MODEL 1
REMARK VINA RESULT:      -8.6      0.000      0.000
REMARK  8 active torsions:
REMARK  status: ('A' for Active; 'I' for Inactive)
REMARK    1  A    between atoms: C_4  and  C_5 
REMARK    2  A    between atoms: C_5  and  N_6 
REMARK       I    between atoms: N_6  and  C_7 
REMARK    3  A    between atoms: C_7  and  C_8 
REMARK    4  A    between atoms: C_11  and  C_12 
REMARK    5  A    between atoms: C_12  and  O_13 
REMARK    6  A    between atoms: O_13  and  C_14 
REMARK    7  A    between atoms: C_25  and  C_26 
REMARK    8  A    between atoms: C_26  and  O_27 
ROOT
HETATM    1  N   UNL     1      -1.864   4.544 -32.731  1.00  0.00    -0.351 N 
HETATM    2  C   UNL     1      -3.231   4.665 -32.778  1.00  0.00     0.251 C 
HETATM    3  O   UNL     1      -3.803   5.751 -32.772  1.00  0.00    -0.268 OA
HETATM    4  H   UNL     1      -1.403   3.654 -32.582  1.00  0.00     0.163 HD
ENDROOT
BRANCH   2   5
HETATM    5  C   UNL     1      -4.015   3.399 -32.790  1.00  0.00     0.032 A 
HETATM    6  C   UNL     1      -3.411   2.244 -32.279  1.00  0.00     0.017 A 
HETATM    7  C   UNL     1      -4.094   1.025 -32.293  1.00  0.00     0.010 A 
HETATM    8  C   UNL     1      -5.392   0.945 -32.817  1.00  0.00    -0.034 A 
HETATM    9  C   UNL     1      -6.009   2.113 -33.286  1.00  0.00     0.010 A 
HETATM   10  C   UNL     1      -5.326   3.333 -33.276  1.00  0.00     0.017 A 
BRANCH   8  11
HETATM   11  C   UNL     1      -6.121  -0.377 -32.845  1.00  0.00     0.214 C 
BRANCH  11  12
HETATM   12  O   UNL     1      -6.084  -0.889 -34.173  1.00  0.00    -0.347 OA
BRANCH  12  13
HETATM   13  C   UNL     1      -5.815  -2.223 -34.314  1.00  0.00     0.069 A 
HETATM   14  C   UNL     1      -6.703  -3.198 -34.773  1.00  0.00     0.037 A 
HETATM   15  C   UNL     1      -6.294  -4.532 -34.868  1.00  0.00     0.003 A 
HETATM   16  C   UNL     1      -4.998  -4.898 -34.506  1.00  0.00     0.000 A 
HETATM   17  C   UNL     1      -4.109  -3.929 -34.047  1.00  0.00     0.003 A 
HETATM   18  C   UNL     1      -4.518  -2.598 -33.951  1.00  0.00     0.037 A 
ENDBRANCH  12  13
ENDBRANCH  11  12
ENDBRANCH   8  11
ENDBRANCH   2   5
BRANCH   1  19
HETATM   19  C   UNL     1      -1.014   5.707 -32.601  1.00  0.00     0.182 C 
BRANCH  19  20
HETATM   20  C   UNL     1      -0.749   6.060 -31.153  1.00  0.00     0.052 A 
HETATM   21  N   UNL     1      -1.366   7.159 -30.637  1.00  0.00    -0.256 NA
HETATM   22  C   UNL     1      -1.126   7.489 -29.340  1.00  0.00     0.040 A 
HETATM   23  C   UNL     1      -1.848   8.712 -28.850  1.00  0.00     0.071 C 
HETATM   24  C   UNL     1      -0.277   6.743 -28.514  1.00  0.00    -0.006 A 
HETATM   25  C   UNL     1       0.349   5.621 -29.079  1.00  0.00     0.014 A 
HETATM   26  C   UNL     1       0.113   5.274 -30.404  1.00  0.00     0.029 A 
BRANCH  24  27
HETATM   27  C   UNL     1       0.001   7.111 -27.073  1.00  0.00     0.149 C 
HETATM   28  C   UNL     1       1.479   7.388 -26.823  1.00  0.00     0.044 C 
BRANCH  27  29
HETATM   29  O   UNL     1      -0.413   6.053 -26.207  1.00  0.00    -0.391 OA
HETATM   30  H   UNL     1      -0.140   6.295 -25.304  1.00  0.00     0.210 HD
ENDBRANCH  27  29
ENDBRANCH  24  27
ENDBRANCH  19  20
ENDBRANCH   1  19
TORSDOF 8
ENDMDL
MODEL 2
REMARK VINA RESULT:      -8.4      2.728     10.146
REMARK  8 active torsions:
REMARK  status: ('A' for Active; 'I' for Inactive)
REMARK    1  A    between atoms: C_4  and  C_5 
REMARK    2  A    between atoms: C_5  and  N_6 
REMARK       I    between atoms: N_6  and  C_7 
REMARK    3  A    between atoms: C_7  and  C_8 
REMARK    4  A    between atoms: C_11  and  C_12 
REMARK    5  A    between atoms: C_12  and  O_13 
REMARK    6  A    between atoms: O_13  and  C_14 
REMARK    7  A    between atoms: C_25  and  C_26 
REMARK    8  A    between atoms: C_26  and  O_27 
ROOT
HETATM    1  N   UNL     1      -5.397   1.808 -32.361  1.00  0.00    -0.351 N 
HETATM    2  C   UNL     1      -5.666   2.851 -33.212  1.00  0.00     0.251 C 
HETATM    3  O   UNL     1      -6.771   3.031 -33.715  1.00  0.00    -0.268 OA
HETATM    4  H   UNL     1      -4.455   1.574 -32.071  1.00  0.00     0.163 HD
ENDROOT
BRANCH   2   5
HETATM    5  C   UNL     1      -4.527   3.750 -33.549  1.00  0.00     0.032 A 
HETATM    6  C   UNL     1      -3.314   3.557 -32.880  1.00  0.00     0.017 A 
HETATM    7  C   UNL     1      -2.223   4.392 -33.140  1.00  0.00     0.010 A 
HETATM    8  C   UNL     1      -2.333   5.431 -34.074  1.00  0.00    -0.034 A 
HETATM    9  C   UNL     1      -3.537   5.593 -34.773  1.00  0.00     0.010 A 
HETATM   10  C   UNL     1      -4.630   4.760 -34.513  1.00  0.00     0.017 A 
BRANCH   8  11
HETATM   11  C   UNL     1      -1.158   6.342 -34.341  1.00  0.00     0.214 C 
BRANCH  11  12
HETATM   12  O   UNL     1      -1.379   7.578 -33.668  1.00  0.00    -0.347 OA
BRANCH  12  13
HETATM   13  C   UNL     1      -1.122   7.604 -32.324  1.00  0.00     0.069 A 
HETATM   14  C   UNL     1      -0.064   6.966 -31.675  1.00  0.00     0.037 A 
HETATM   15  C   UNL     1       0.081   7.078 -30.289  1.00  0.00     0.003 A 
HETATM   16  C   UNL     1      -0.829   7.828 -29.546  1.00  0.00     0.000 A 
HETATM   17  C   UNL     1      -1.888   8.466 -30.188  1.00  0.00     0.003 A 
HETATM   18  C   UNL     1      -2.032   8.353 -31.572  1.00  0.00     0.037 A 
ENDBRANCH  12  13
ENDBRANCH  11  12
ENDBRANCH   8  11
ENDBRANCH   2   5
BRANCH   1  19
HETATM   19  C   UNL     1      -6.400   0.810 -32.060  1.00  0.00     0.182 C 
BRANCH  19  20
HETATM   20  C   UNL     1      -6.171  -0.477 -32.822  1.00  0.00     0.052 A 
HETATM   21  N   UNL     1      -5.015  -1.161 -32.594  1.00  0.00    -0.256 NA
HETATM   22  C   UNL     1      -4.796  -2.313 -33.282  1.00  0.00     0.040 A 
HETATM   23  C   UNL     1      -3.500  -3.005 -32.968  1.00  0.00     0.071 C 
HETATM   24  C   UNL     1      -5.711  -2.827 -34.208  1.00  0.00    -0.006 A 
HETATM   25  C   UNL     1      -6.888  -2.093 -34.426  1.00  0.00     0.014 A 
HETATM   26  C   UNL     1      -7.123  -0.914 -33.730  1.00  0.00     0.029 A 
BRANCH  24  27
HETATM   27  C   UNL     1      -5.469  -4.103 -34.983  1.00  0.00     0.149 C 
HETATM   28  C   UNL     1      -6.679  -4.513 -35.813  1.00  0.00     0.044 C 
BRANCH  27  29
HETATM   29  O   UNL     1      -5.153  -5.170 -34.087  1.00  0.00    -0.391 OA
HETATM   30  H   UNL     1      -4.356  -5.611 -34.432  1.00  0.00     0.210 HD
ENDBRANCH  27  29
ENDBRANCH  24  27
ENDBRANCH  19  20
ENDBRANCH   1  19
TORSDOF 8
ENDMDL
MODEL 3
REMARK VINA RESULT:      -8.4      2.100     10.104
REMARK  8 active torsions:
REMARK  status: ('A' for Active; 'I' for Inactive)
REMARK    1  A    between atoms: C_4  and  C_5 
REMARK    2  A    between atoms: C_5  and  N_6 
REMARK       I    between atoms: N_6  and  C_7 
REMARK    3  A    between atoms: C_7  and  C_8 
REMARK    4  A    between atoms: C_11  and  C_12 
REMARK    5  A    between atoms: C_12  and  O_13 
REMARK    6  A    between atoms: O_13  and  C_14 
REMARK    7  A    between atoms: C_25  and  C_26 
REMARK    8  A    between atoms: C_26  and  O_27 
ROOT
HETATM    1  N   UNL     1      -5.253   4.004 -33.285  1.00  0.00    -0.351 N 
HETATM    2  C   UNL     1      -4.354   4.701 -34.055  1.00  0.00     0.251 C 
HETATM    3  O   UNL     1      -4.509   4.883 -35.258  1.00  0.00    -0.268 OA
HETATM    4  H   UNL     1      -5.049   3.726 -32.333  1.00  0.00     0.163 HD
ENDROOT
BRANCH   2   5
HETATM    5  C   UNL     1      -3.130   5.199 -33.368  1.00  0.00     0.032 A 
HETATM    6  C   UNL     1      -2.689   4.517 -32.228  1.00  0.00     0.017 A 
HETATM    7  C   UNL     1      -1.562   4.961 -31.531  1.00  0.00     0.010 A 
HETATM    8  C   UNL     1      -0.859   6.093 -31.966  1.00  0.00    -0.034 A 
HETATM    9  C   UNL     1      -1.278   6.746 -33.134  1.00  0.00     0.010 A 
HETATM   10  C   UNL     1      -2.408   6.305 -33.831  1.00  0.00     0.017 A 
BRANCH   8  11
HETATM   11  C   UNL     1       0.349   6.579 -31.202  1.00  0.00     0.214 C 
BRANCH  11  12
HETATM   12  O   UNL     1      -0.052   7.645 -30.348  1.00  0.00    -0.347 OA
BRANCH  12  13
HETATM   13  C   UNL     1       0.303   7.547 -29.029  1.00  0.00     0.069 A 
HETATM   14  C   UNL     1       1.243   8.340 -28.369  1.00  0.00     0.037 A 
HETATM   15  C   UNL     1       1.510   8.132 -27.012  1.00  0.00     0.003 A 
HETATM   16  C   UNL     1       0.838   7.132 -26.310  1.00  0.00     0.000 A 
HETATM   17  C   UNL     1      -0.100   6.338 -26.964  1.00  0.00     0.003 A 
HETATM   18  C   UNL     1      -0.365   6.546 -28.318  1.00  0.00     0.037 A 
ENDBRANCH  12  13
ENDBRANCH  11  12
ENDBRANCH   8  11
ENDBRANCH   2   5
BRANCH   1  19
HETATM   19  C   UNL     1      -6.416   3.380 -33.875  1.00  0.00     0.182 C 
BRANCH  19  20
HETATM   20  C   UNL     1      -6.299   1.871 -33.907  1.00  0.00     0.052 A 
HETATM   21  N   UNL     1      -5.551   1.265 -32.943  1.00  0.00    -0.256 NA
HETATM   22  C   UNL     1      -5.432  -0.089 -32.970  1.00  0.00     0.040 A 
HETATM   23  C   UNL     1      -4.594  -0.676 -31.870  1.00  0.00     0.071 C 
HETATM   24  C   UNL     1      -6.050  -0.884 -33.942  1.00  0.00    -0.006 A 
HETATM   25  C   UNL     1      -6.806  -0.227 -34.926  1.00  0.00     0.014 A 
HETATM   26  C   UNL     1      -6.934   1.156 -34.910  1.00  0.00     0.029 A 
BRANCH  24  27
HETATM   27  C   UNL     1      -5.913  -2.390 -33.982  1.00  0.00     0.149 C 
HETATM   28  C   UNL     1      -4.716  -2.839 -34.812  1.00  0.00     0.044 C 
BRANCH  27  29
HETATM   29  O   UNL     1      -7.092  -2.976 -34.536  1.00  0.00    -0.391 OA
HETATM   30  H   UNL     1      -7.081  -3.922 -34.306  1.00  0.00     0.210 HD
ENDBRANCH  27  29
ENDBRANCH  24  27
ENDBRANCH  19  20
ENDBRANCH   1  19
TORSDOF 8
ENDMDL
MODEL 4
REMARK VINA RESULT:      -8.3      1.110      1.692
REMARK  8 active torsions:
REMARK  status: ('A' for Active; 'I' for Inactive)
REMARK    1  A    between atoms: C_4  and  C_5 
REMARK    2  A    between atoms: C_5  and  N_6 
REMARK       I    between atoms: N_6  and  C_7 
REMARK    3  A    between atoms: C_7  and  C_8 
REMARK    4  A    between atoms: C_11  and  C_12 
REMARK    5  A    between atoms: C_12  and  O_13 
REMARK    6  A    between atoms: O_13  and  C_14 
REMARK    7  A    between atoms: C_25  and  C_26 
REMARK    8  A    between atoms: C_26  and  O_27 
ROOT
HETATM    1  N   UNL     1      -2.956   5.289 -32.915  1.00  0.00    -0.351 N 
HETATM    2  C   UNL     1      -4.292   5.145 -33.197  1.00  0.00     0.251 C 
HETATM    3  O   UNL     1      -5.029   6.098 -33.432  1.00  0.00    -0.268 OA
HETATM    4  H   UNL     1      -2.388   4.523 -32.573  1.00  0.00     0.163 HD
ENDROOT
BRANCH   2   5
HETATM    5  C   UNL     1      -4.838   3.760 -33.159  1.00  0.00     0.032 A 
HETATM    6  C   UNL     1      -4.234   2.835 -32.300  1.00  0.00     0.017 A 
HETATM    7  C   UNL     1      -4.692   1.516 -32.248  1.00  0.00     0.010 A 
HETATM    8  C   UNL     1      -5.761   1.104 -33.056  1.00  0.00    -0.034 A 
HETATM    9  C   UNL     1      -6.391   2.045 -33.882  1.00  0.00     0.010 A 
HETATM   10  C   UNL     1      -5.933   3.365 -33.937  1.00  0.00     0.017 A 
BRANCH   8  11
HETATM   11  C   UNL     1      -6.242  -0.327 -33.010  1.00  0.00     0.214 C 
BRANCH  11  12
HETATM   12  O   UNL     1      -6.151  -0.880 -34.318  1.00  0.00    -0.347 OA
BRANCH  12  13
HETATM   13  C   UNL     1      -5.857  -2.214 -34.407  1.00  0.00     0.069 A 
HETATM   14  C   UNL     1      -6.728  -3.223 -34.821  1.00  0.00     0.037 A 
HETATM   15  C   UNL     1      -6.294  -4.552 -34.865  1.00  0.00     0.003 A 
HETATM   16  C   UNL     1      -4.990  -4.878 -34.496  1.00  0.00     0.000 A 
HETATM   17  C   UNL     1      -4.117  -3.875 -34.081  1.00  0.00     0.003 A 
HETATM   18  C   UNL     1      -4.551  -2.549 -34.037  1.00  0.00     0.037 A 
ENDBRANCH  12  13
ENDBRANCH  11  12
ENDBRANCH   8  11
ENDBRANCH   2   5
BRANCH   1  19
HETATM   19  C   UNL     1      -2.350   6.598 -32.811  1.00  0.00     0.182 C 
BRANCH  19  20
HETATM   20  C   UNL     1      -1.534   6.750 -31.546  1.00  0.00     0.052 A 
HETATM   21  N   UNL     1      -0.677   5.745 -31.210  1.00  0.00    -0.256 NA
HETATM   22  C   UNL     1       0.052   5.869 -30.069  1.00  0.00     0.040 A 
HETATM   23  C   UNL     1       0.973   4.719 -29.775  1.00  0.00     0.071 C 
HETATM   24  C   UNL     1      -0.037   6.986 -29.231  1.00  0.00    -0.006 A 
HETATM   25  C   UNL     1      -0.935   7.999 -29.601  1.00  0.00     0.014 A 
HETATM   26  C   UNL     1      -1.687   7.885 -30.764  1.00  0.00     0.029 A 
BRANCH  24  27
HETATM   27  C   UNL     1       0.766   7.125 -27.956  1.00  0.00     0.149 C 
HETATM   28  C   UNL     1      -0.123   7.214 -26.722  1.00  0.00     0.044 C 
BRANCH  27  29
HETATM   29  O   UNL     1       1.580   8.298 -28.012  1.00  0.00    -0.391 OA
HETATM   30  H   UNL     1       1.418   8.802 -27.195  1.00  0.00     0.210 HD
ENDBRANCH  27  29
ENDBRANCH  24  27
ENDBRANCH  19  20
ENDBRANCH   1  19
TORSDOF 8
ENDMDL
MODEL 5
REMARK VINA RESULT:      -8.2      1.296      1.460
REMARK  8 active torsions:
REMARK  status: ('A' for Active; 'I' for Inactive)
REMARK    1  A    between atoms: C_4  and  C_5 
REMARK    2  A    between atoms: C_5  and  N_6 
REMARK       I    between atoms: N_6  and  C_7 
REMARK    3  A    between atoms: C_7  and  C_8 
REMARK    4  A    between atoms: C_11  and  C_12 
REMARK    5  A    between atoms: C_12  and  O_13 
REMARK    6  A    between atoms: O_13  and  C_14 
REMARK    7  A    between atoms: C_25  and  C_26 
REMARK    8  A    between atoms: C_26  and  O_27 
ROOT
HETATM    1  N   UNL     1      -2.391   5.117 -32.777  1.00  0.00    -0.351 N 
HETATM    2  C   UNL     1      -3.496   5.160 -33.590  1.00  0.00     0.251 C 
HETATM    3  O   UNL     1      -3.657   6.022 -34.449  1.00  0.00    -0.268 OA
HETATM    4  H   UNL     1      -2.333   4.502 -31.974  1.00  0.00     0.163 HD
ENDROOT
BRANCH   2   5
HETATM    5  C   UNL     1      -4.541   4.125 -33.355  1.00  0.00     0.032 A 
HETATM    6  C   UNL     1      -4.378   3.257 -32.269  1.00  0.00     0.017 A 
HETATM    7  C   UNL     1      -5.316   2.251 -32.022  1.00  0.00     0.010 A 
HETATM    8  C   UNL     1      -6.431   2.100 -32.858  1.00  0.00    -0.034 A 
HETATM    9  C   UNL     1      -6.614   3.001 -33.917  1.00  0.00     0.010 A 
HETATM   10  C   UNL     1      -5.674   4.006 -34.168  1.00  0.00     0.017 A 
BRANCH   8  11
HETATM   11  C   UNL     1      -7.435   1.003 -32.597  1.00  0.00     0.214 C 
BRANCH  11  12
HETATM   12  O   UNL     1      -6.742  -0.141 -32.111  1.00  0.00    -0.347 OA
BRANCH  12  13
HETATM   13  C   UNL     1      -6.340  -1.063 -33.040  1.00  0.00     0.069 A 
HETATM   14  C   UNL     1      -7.163  -1.721 -33.955  1.00  0.00     0.037 A 
HETATM   15  C   UNL     1      -6.618  -2.644 -34.854  1.00  0.00     0.003 A 
HETATM   16  C   UNL     1      -5.249  -2.911 -34.843  1.00  0.00     0.000 A 
HETATM   17  C   UNL     1      -4.424  -2.257 -33.931  1.00  0.00     0.003 A 
HETATM   18  C   UNL     1      -4.969  -1.337 -33.034  1.00  0.00     0.037 A 
ENDBRANCH  12  13
ENDBRANCH  11  12
ENDBRANCH   8  11
ENDBRANCH   2   5
BRANCH   1  19
HETATM   19  C   UNL     1      -1.372   6.141 -32.844  1.00  0.00     0.182 C 
BRANCH  19  20
HETATM   20  C   UNL     1      -0.934   6.599 -31.469  1.00  0.00     0.052 A 
HETATM   21  N   UNL     1      -1.897   6.883 -30.549  1.00  0.00    -0.256 NA
HETATM   22  C   UNL     1      -1.513   7.305 -29.316  1.00  0.00     0.040 A 
HETATM   23  C   UNL     1      -2.637   7.592 -28.362  1.00  0.00     0.071 C 
HETATM   24  C   UNL     1      -0.169   7.453 -28.951  1.00  0.00    -0.006 A 
HETATM   25  C   UNL     1       0.798   7.160 -29.925  1.00  0.00     0.014 A 
HETATM   26  C   UNL     1       0.418   6.729 -31.191  1.00  0.00     0.029 A 
BRANCH  24  27
HETATM   27  C   UNL     1       0.265   7.930 -27.583  1.00  0.00     0.149 C 
HETATM   28  C   UNL     1       1.591   8.680 -27.627  1.00  0.00     0.044 C 
BRANCH  27  29
HETATM   29  O   UNL     1       0.404   6.820 -26.695  1.00  0.00    -0.391 OA
HETATM   30  H   UNL     1       1.318   6.829 -26.362  1.00  0.00     0.210 HD
ENDBRANCH  27  29
ENDBRANCH  24  27
ENDBRANCH  19  20
ENDBRANCH   1  19
TORSDOF 8
ENDMDL
MODEL 6
REMARK VINA RESULT:      -8.1      2.615      9.650
REMARK  8 active torsions:
REMARK  status: ('A' for Active; 'I' for Inactive)
REMARK    1  A    between atoms: C_4  and  C_5 
REMARK    2  A    between atoms: C_5  and  N_6 
REMARK       I    between atoms: N_6  and  C_7 
REMARK    3  A    between atoms: C_7  and  C_8 
REMARK    4  A    between atoms: C_11  and  C_12 
REMARK    5  A    between atoms: C_12  and  O_13 
REMARK    6  A    between atoms: O_13  and  C_14 
REMARK    7  A    between atoms: C_25  and  C_26 
REMARK    8  A    between atoms: C_26  and  O_27 
ROOT
HETATM    1  N   UNL     1      -5.971   3.060 -33.349  1.00  0.00    -0.351 N 
HETATM    2  C   UNL     1      -6.126   4.381 -33.690  1.00  0.00     0.251 C 
HETATM    3  O   UNL     1      -7.139   4.813 -34.232  1.00  0.00    -0.268 OA
HETATM    4  H   UNL     1      -5.083   2.680 -33.044  1.00  0.00     0.163 HD
ENDROOT
BRANCH   2   5
HETATM    5  C   UNL     1      -4.974   5.283 -33.414  1.00  0.00     0.032 A 
HETATM    6  C   UNL     1      -3.888   5.255 -34.295  1.00  0.00     0.017 A 
HETATM    7  C   UNL     1      -2.770   6.062 -34.065  1.00  0.00     0.010 A 
HETATM    8  C   UNL     1      -2.724   6.909 -32.949  1.00  0.00    -0.034 A 
HETATM    9  C   UNL     1      -3.834   6.966 -32.093  1.00  0.00     0.010 A 
HETATM   10  C   UNL     1      -4.952   6.157 -32.320  1.00  0.00     0.017 A 
BRANCH   8  11
HETATM   11  C   UNL     1      -1.509   7.767 -32.694  1.00  0.00     0.214 C 
BRANCH  11  12
HETATM   12  O   UNL     1      -0.380   6.918 -32.519  1.00  0.00    -0.347 OA
BRANCH  12  13
HETATM   13  C   UNL     1      -0.046   6.589 -31.233  1.00  0.00     0.069 A 
HETATM   14  C   UNL     1      -0.075   7.445 -30.131  1.00  0.00     0.037 A 
HETATM   15  C   UNL     1       0.294   6.976 -28.866  1.00  0.00     0.003 A 
HETATM   16  C   UNL     1       0.692   5.650 -28.698  1.00  0.00     0.000 A 
HETATM   17  C   UNL     1       0.724   4.792 -29.795  1.00  0.00     0.003 A 
HETATM   18  C   UNL     1       0.356   5.262 -31.056  1.00  0.00     0.037 A 
ENDBRANCH  12  13
ENDBRANCH  11  12
ENDBRANCH   8  11
ENDBRANCH   2   5
BRANCH   1  19
HETATM   19  C   UNL     1      -6.982   2.079 -33.677  1.00  0.00     0.182 C 
BRANCH  19  20
HETATM   20  C   UNL     1      -6.390   0.702 -33.890  1.00  0.00     0.052 A 
HETATM   21  N   UNL     1      -5.193   0.419 -33.306  1.00  0.00    -0.256 NA
HETATM   22  C   UNL     1      -4.650  -0.811 -33.500  1.00  0.00     0.040 A 
HETATM   23  C   UNL     1      -3.331  -1.040 -32.818  1.00  0.00     0.071 C 
HETATM   24  C   UNL     1      -5.273  -1.801 -34.270  1.00  0.00    -0.006 A 
HETATM   25  C   UNL     1      -6.502  -1.475 -34.865  1.00  0.00     0.014 A 
HETATM   26  C   UNL     1      -7.067  -0.219 -34.675  1.00  0.00     0.029 A 
BRANCH  24  27
HETATM   27  C   UNL     1      -4.669  -3.169 -34.497  1.00  0.00     0.149 C 
HETATM   28  C   UNL     1      -5.705  -4.187 -34.958  1.00  0.00     0.044 C 
BRANCH  27  29
HETATM   29  O   UNL     1      -4.069  -3.649 -33.292  1.00  0.00    -0.391 OA
HETATM   30  H   UNL     1      -3.931  -2.879 -32.712  1.00  0.00     0.210 HD
ENDBRANCH  27  29
ENDBRANCH  24  27
ENDBRANCH  19  20
ENDBRANCH   1  19
TORSDOF 8
ENDMDL
MODEL 7
REMARK VINA RESULT:      -8.0      5.513      9.617
REMARK  8 active torsions:
REMARK  status: ('A' for Active; 'I' for Inactive)
REMARK    1  A    between atoms: C_4  and  C_5 
REMARK    2  A    between atoms: C_5  and  N_6 
REMARK       I    between atoms: N_6  and  C_7 
REMARK    3  A    between atoms: C_7  and  C_8 
REMARK    4  A    between atoms: C_11  and  C_12 
REMARK    5  A    between atoms: C_12  and  O_13 
REMARK    6  A    between atoms: O_13  and  C_14 
REMARK    7  A    between atoms: C_25  and  C_26 
REMARK    8  A    between atoms: C_26  and  O_27 
ROOT
HETATM    1  N   UNL     1       2.641   9.429 -25.342  1.00  0.00    -0.351 N 
HETATM    2  C   UNL     1       1.319   9.081 -25.463  1.00  0.00     0.251 C 
HETATM    3  O   UNL     1       0.455   9.467 -24.680  1.00  0.00    -0.268 OA
HETATM    4  H   UNL     1       3.370   8.991 -25.893  1.00  0.00     0.163 HD
ENDROOT
BRANCH   2   5
HETATM    5  C   UNL     1       0.969   8.157 -26.577  1.00  0.00     0.032 A 
HETATM    6  C   UNL     1       1.307   8.538 -27.881  1.00  0.00     0.017 A 
HETATM    7  C   UNL     1       0.976   7.718 -28.964  1.00  0.00     0.010 A 
HETATM    8  C   UNL     1       0.303   6.506 -28.757  1.00  0.00    -0.034 A 
HETATM    9  C   UNL     1       0.007   6.109 -27.445  1.00  0.00     0.010 A 
HETATM   10  C   UNL     1       0.334   6.928 -26.360  1.00  0.00     0.017 A 
BRANCH   8  11
HETATM   11  C   UNL     1      -0.068   5.631 -29.930  1.00  0.00     0.214 C 
BRANCH  11  12
HETATM   12  O   UNL     1      -1.197   6.201 -30.584  1.00  0.00    -0.347 OA
BRANCH  12  13
HETATM   13  C   UNL     1      -1.428   5.807 -31.874  1.00  0.00     0.069 A 
HETATM   14  C   UNL     1      -2.044   4.620 -32.274  1.00  0.00     0.037 A 
HETATM   15  C   UNL     1      -2.218   4.342 -33.634  1.00  0.00     0.003 A 
HETATM   16  C   UNL     1      -1.779   5.248 -34.598  1.00  0.00     0.000 A 
HETATM   17  C   UNL     1      -1.163   6.434 -34.204  1.00  0.00     0.003 A 
HETATM   18  C   UNL     1      -0.989   6.710 -32.847  1.00  0.00     0.037 A 
ENDBRANCH  12  13
ENDBRANCH  11  12
ENDBRANCH   8  11
ENDBRANCH   2   5
BRANCH   1  19
HETATM   19  C   UNL     1       3.106  10.228 -24.229  1.00  0.00     0.182 C 
BRANCH  19  20
HETATM   20  C   UNL     1       4.047   9.456 -23.329  1.00  0.00     0.052 A 
HETATM   21  N   UNL     1       5.382   9.710 -23.427  1.00  0.00    -0.256 NA
HETATM   22  C   UNL     1       6.235   9.014 -22.629  1.00  0.00     0.040 A 
HETATM   23  C   UNL     1       7.687   9.357 -22.798  1.00  0.00     0.071 C 
HETATM   24  C   UNL     1       5.798   8.054 -21.709  1.00  0.00    -0.006 A 
HETATM   25  C   UNL     1       4.417   7.810 -21.639  1.00  0.00     0.014 A 
HETATM   26  C   UNL     1       3.535   8.514 -22.450  1.00  0.00     0.029 A 
BRANCH  24  27
HETATM   27  C   UNL     1       6.743   7.270 -20.825  1.00  0.00     0.149 C 
HETATM   28  C   UNL     1       7.261   6.011 -21.509  1.00  0.00     0.044 C 
BRANCH  27  29
HETATM   29  O   UNL     1       6.084   6.890 -19.616  1.00  0.00    -0.391 OA
HETATM   30  H   UNL     1       6.773   6.751 -18.942  1.00  0.00     0.210 HD
ENDBRANCH  27  29
ENDBRANCH  24  27
ENDBRANCH  19  20
ENDBRANCH   1  19
TORSDOF 8
ENDMDL
MODEL 8
REMARK VINA RESULT:      -7.9      5.749     10.070
REMARK  8 active torsions:
REMARK  status: ('A' for Active; 'I' for Inactive)
REMARK    1  A    between atoms: C_4  and  C_5 
REMARK    2  A    between atoms: C_5  and  N_6 
REMARK       I    between atoms: N_6  and  C_7 
REMARK    3  A    between atoms: C_7  and  C_8 
REMARK    4  A    between atoms: C_11  and  C_12 
REMARK    5  A    between atoms: C_12  and  O_13 
REMARK    6  A    between atoms: O_13  and  C_14 
REMARK    7  A    between atoms: C_25  and  C_26 
REMARK    8  A    between atoms: C_26  and  O_27 
ROOT
HETATM    1  N   UNL     1       2.631   8.235 -24.313  1.00  0.00    -0.351 N 
HETATM    2  C   UNL     1       2.058   9.007 -25.294  1.00  0.00     0.251 C 
HETATM    3  O   UNL     1       2.003  10.231 -25.230  1.00  0.00    -0.268 OA
HETATM    4  H   UNL     1       2.539   7.226 -24.295  1.00  0.00     0.163 HD
ENDROOT
BRANCH   2   5
HETATM    5  C   UNL     1       1.448   8.283 -26.444  1.00  0.00     0.032 A 
HETATM    6  C   UNL     1       0.678   7.146 -26.175  1.00  0.00     0.017 A 
HETATM    7  C   UNL     1       0.107   6.416 -27.221  1.00  0.00     0.010 A 
HETATM    8  C   UNL     1       0.300   6.814 -28.551  1.00  0.00    -0.034 A 
HETATM    9  C   UNL     1       1.035   7.978 -28.813  1.00  0.00     0.010 A 
HETATM   10  C   UNL     1       1.609   8.709 -27.768  1.00  0.00     0.017 A 
BRANCH   8  11
HETATM   11  C   UNL     1      -0.305   6.014 -29.680  1.00  0.00     0.214 C 
BRANCH  11  12
HETATM   12  O   UNL     1      -0.071   6.705 -30.903  1.00  0.00    -0.347 OA
BRANCH  12  13
HETATM   13  C   UNL     1      -0.767   6.272 -32.000  1.00  0.00     0.069 A 
HETATM   14  C   UNL     1      -0.947   6.978 -33.191  1.00  0.00     0.037 A 
HETATM   15  C   UNL     1      -1.683   6.414 -34.238  1.00  0.00     0.003 A 
HETATM   16  C   UNL     1      -2.242   5.144 -34.099  1.00  0.00     0.000 A 
HETATM   17  C   UNL     1      -2.066   4.437 -32.913  1.00  0.00     0.003 A 
HETATM   18  C   UNL     1      -1.331   5.000 -31.868  1.00  0.00     0.037 A 
ENDBRANCH  12  13
ENDBRANCH  11  12
ENDBRANCH   8  11
ENDBRANCH   2   5
BRANCH   1  19
HETATM   19  C   UNL     1       3.148   8.830 -23.101  1.00  0.00     0.182 C 
BRANCH  19  20
HETATM   20  C   UNL     1       4.634   8.590 -22.939  1.00  0.00     0.052 A 
HETATM   21  N   UNL     1       5.044   7.731 -21.965  1.00  0.00    -0.256 NA
HETATM   22  C   UNL     1       6.377   7.519 -21.806  1.00  0.00     0.040 A 
HETATM   23  C   UNL     1       6.743   6.556 -20.713  1.00  0.00     0.071 C 
HETATM   24  C   UNL     1       7.344   8.141 -22.605  1.00  0.00    -0.006 A 
HETATM   25  C   UNL     1       6.888   9.027 -23.594  1.00  0.00     0.014 A 
HETATM   26  C   UNL     1       5.528   9.254 -23.766  1.00  0.00     0.029 A 
BRANCH  24  27
HETATM   27  C   UNL     1       8.829   7.915 -22.427  1.00  0.00     0.149 C 
HETATM   28  C   UNL     1       9.656   9.093 -22.929  1.00  0.00     0.044 C 
BRANCH  27  29
HETATM   29  O   UNL     1       9.237   6.743 -23.134  1.00  0.00    -0.391 OA
HETATM   30  H   UNL     1      10.063   6.431 -22.725  1.00  0.00     0.210 HD
ENDBRANCH  27  29
ENDBRANCH  24  27
ENDBRANCH  19  20
ENDBRANCH   1  19
TORSDOF 8
ENDMDL
MODEL 9
REMARK VINA RESULT:      -7.9      2.233     10.207
REMARK  8 active torsions:
REMARK  status: ('A' for Active; 'I' for Inactive)
REMARK    1  A    between atoms: C_4  and  C_5 
REMARK    2  A    between atoms: C_5  and  N_6 
REMARK       I    between atoms: N_6  and  C_7 
REMARK    3  A    between atoms: C_7  and  C_8 
REMARK    4  A    between atoms: C_11  and  C_12 
REMARK    5  A    between atoms: C_12  and  O_13 
REMARK    6  A    between atoms: O_13  and  C_14 
REMARK    7  A    between atoms: C_25  and  C_26 
REMARK    8  A    between atoms: C_26  and  O_27 
ROOT
HETATM    1  N   UNL     1      -5.530   3.058 -30.894  1.00  0.00    -0.351 N 
HETATM    2  C   UNL     1      -5.276   4.107 -31.743  1.00  0.00     0.251 C 
HETATM    3  O   UNL     1      -6.043   4.433 -32.644  1.00  0.00    -0.268 OA
HETATM    4  H   UNL     1      -4.831   2.696 -30.255  1.00  0.00     0.163 HD
ENDROOT
BRANCH   2   5
HETATM    5  C   UNL     1      -3.983   4.821 -31.556  1.00  0.00     0.032 A 
HETATM    6  C   UNL     1      -2.816   4.209 -32.027  1.00  0.00     0.017 A 
HETATM    7  C   UNL     1      -1.574   4.825 -31.851  1.00  0.00     0.010 A 
HETATM    8  C   UNL     1      -1.483   6.064 -31.202  1.00  0.00    -0.034 A 
HETATM    9  C   UNL     1      -2.659   6.694 -30.771  1.00  0.00     0.010 A 
HETATM   10  C   UNL     1      -3.903   6.077 -30.943  1.00  0.00     0.017 A 
BRANCH   8  11
HETATM   11  C   UNL     1      -0.138   6.720 -30.999  1.00  0.00     0.214 C 
BRANCH  11  12
HETATM   12  O   UNL     1       0.517   6.086 -29.905  1.00  0.00    -0.347 OA
BRANCH  12  13
HETATM   13  C   UNL     1       0.606   6.798 -28.740  1.00  0.00     0.069 A 
HETATM   14  C   UNL     1       1.140   8.080 -28.598  1.00  0.00     0.037 A 
HETATM   15  C   UNL     1       1.168   8.695 -27.342  1.00  0.00     0.003 A 
HETATM   16  C   UNL     1       0.663   8.032 -26.224  1.00  0.00     0.000 A 
HETATM   17  C   UNL     1       0.130   6.752 -26.360  1.00  0.00     0.003 A 
HETATM   18  C   UNL     1       0.103   6.140 -27.614  1.00  0.00     0.037 A 
ENDBRANCH  12  13
ENDBRANCH  11  12
ENDBRANCH   8  11
ENDBRANCH   2   5
BRANCH   1  19
HETATM   19  C   UNL     1      -6.701   2.226 -31.061  1.00  0.00     0.182 C 
BRANCH  19  20
HETATM   20  C   UNL     1      -6.450   1.075 -32.012  1.00  0.00     0.052 A 
HETATM   21  N   UNL     1      -7.036   1.117 -33.241  1.00  0.00    -0.256 NA
HETATM   22  C   UNL     1      -6.825   0.083 -34.097  1.00  0.00     0.040 A 
HETATM   23  C   UNL     1      -7.504   0.211 -35.430  1.00  0.00     0.071 C 
HETATM   24  C   UNL     1      -6.026  -1.020 -33.770  1.00  0.00    -0.006 A 
HETATM   25  C   UNL     1      -5.443  -1.036 -32.493  1.00  0.00     0.014 A 
HETATM   26  C   UNL     1      -5.653   0.014 -31.608  1.00  0.00     0.029 A 
BRANCH  24  27
HETATM   27  C   UNL     1      -5.794  -2.178 -34.715  1.00  0.00     0.149 C 
HETATM   28  C   UNL     1      -6.845  -3.270 -34.558  1.00  0.00     0.044 C 
BRANCH  27  29
HETATM   29  O   UNL     1      -4.507  -2.752 -34.483  1.00  0.00    -0.391 OA
HETATM   30  H   UNL     1      -4.263  -3.249 -35.284  1.00  0.00     0.210 HD
ENDBRANCH  27  29
ENDBRANCH  24  27
ENDBRANCH  19  20
ENDBRANCH   1  19
TORSDOF 8
ENDMDL
MODEL 10
REMARK VINA RESULT:      -7.9      3.846     10.463
REMARK  8 active torsions:
REMARK  status: ('A' for Active; 'I' for Inactive)
REMARK    1  A    between atoms: C_4  and  C_5 
REMARK    2  A    between atoms: C_5  and  N_6 
REMARK       I    between atoms: N_6  and  C_7 
REMARK    3  A    between atoms: C_7  and  C_8 
REMARK    4  A    between atoms: C_11  and  C_12 
REMARK    5  A    between atoms: C_12  and  O_13 
REMARK    6  A    between atoms: O_13  and  C_14 
REMARK    7  A    between atoms: C_25  and  C_26 
REMARK    8  A    between atoms: C_26  and  O_27 
ROOT
HETATM    1  N   UNL     1      -6.871   2.012 -32.046  1.00  0.00    -0.351 N 
HETATM    2  C   UNL     1      -5.694   1.764 -32.707  1.00  0.00     0.251 C 
HETATM    3  O   UNL     1      -5.446   0.688 -33.243  1.00  0.00    -0.268 OA
HETATM    4  H   UNL     1      -7.010   2.839 -31.478  1.00  0.00     0.163 HD
ENDROOT
BRANCH   2   5
HETATM    5  C   UNL     1      -4.685   2.859 -32.710  1.00  0.00     0.032 A 
HETATM    6  C   UNL     1      -3.523   2.688 -31.949  1.00  0.00     0.017 A 
HETATM    7  C   UNL     1      -2.558   3.697 -31.896  1.00  0.00     0.010 A 
HETATM    8  C   UNL     1      -2.743   4.893 -32.604  1.00  0.00    -0.034 A 
HETATM    9  C   UNL     1      -3.887   5.041 -33.400  1.00  0.00     0.010 A 
HETATM   10  C   UNL     1      -4.855   4.033 -33.452  1.00  0.00     0.017 A 
BRANCH   8  11
HETATM   11  C   UNL     1      -1.706   5.988 -32.532  1.00  0.00     0.214 C 
BRANCH  11  12
HETATM   12  O   UNL     1      -0.486   5.430 -32.056  1.00  0.00    -0.347 OA
BRANCH  12  13
HETATM   13  C   UNL     1      -0.079   5.808 -30.805  1.00  0.00     0.069 A 
HETATM   14  C   UNL     1       0.449   4.969 -29.823  1.00  0.00     0.037 A 
HETATM   15  C   UNL     1       0.826   5.491 -28.581  1.00  0.00     0.003 A 
HETATM   16  C   UNL     1       0.679   6.852 -28.317  1.00  0.00     0.000 A 
HETATM   17  C   UNL     1       0.152   7.694 -29.294  1.00  0.00     0.003 A 
HETATM   18  C   UNL     1      -0.225   7.172 -30.533  1.00  0.00     0.037 A 
ENDBRANCH  12  13
ENDBRANCH  11  12
ENDBRANCH   8  11
ENDBRANCH   2   5
BRANCH   1  19
HETATM   19  C   UNL     1      -7.871   0.979 -31.885  1.00  0.00     0.182 C 
BRANCH  19  20
HETATM   20  C   UNL     1      -9.108   1.250 -32.714  1.00  0.00     0.052 A 
HETATM   21  N   UNL     1      -9.207   2.451 -33.348  1.00  0.00    -0.256 NA
HETATM   22  C   UNL     1     -10.319   2.707 -34.086  1.00  0.00     0.040 A 
HETATM   23  C   UNL     1     -10.345   4.052 -34.754  1.00  0.00     0.071 C 
HETATM   24  C   UNL     1     -11.363   1.784 -34.226  1.00  0.00    -0.006 A 
HETATM   25  C   UNL     1     -11.234   0.559 -33.553  1.00  0.00     0.014 A 
HETATM   26  C   UNL     1     -10.102   0.286 -32.794  1.00  0.00     0.029 A 
BRANCH  24  27
HETATM   27  C   UNL     1     -12.607   2.066 -35.038  1.00  0.00     0.149 C 
HETATM   28  C   UNL     1     -13.801   1.243 -34.570  1.00  0.00     0.044 C 
BRANCH  27  29
HETATM   29  O   UNL     1     -12.371   1.776 -36.417  1.00  0.00    -0.391 OA
HETATM   30  H   UNL     1     -11.693   1.077 -36.454  1.00  0.00     0.210 HD
ENDBRANCH  27  29
ENDBRANCH  24  27
ENDBRANCH  19  20
ENDBRANCH   1  19
TORSDOF 8
ENDMDL
