MODEL 1
REMARK VINA RESULT:      -7.8      0.000      0.000
REMARK  5 active torsions:
REMARK  status: ('A' for Active; 'I' for Inactive)
REMARK    1  A    between atoms: C_2  and  N_3 
REMARK       I    between atoms: N_3  and  C_4 
REMARK    2  A    between atoms: C_4  and  C_5 
REMARK    3  A    between atoms: C_5  and  N_6 
REMARK    4  A    between atoms: N_6  and  C_7 
REMARK    5  A    between atoms: C_11  and  C_12 
ROOT
HETATM    1  C   UNL     1      -5.014   1.100 -32.859  1.00  0.00     0.022 A 
HETATM    2  C   UNL     1      -5.232  -0.229 -33.332  1.00  0.00     0.012 A 
HETATM    3  C   UNL     1      -6.549  -0.627 -33.678  1.00  0.00     0.044 A 
HETATM    4  C   UNL     1      -6.817  -1.913 -34.175  1.00  0.00     0.046 A 
HETATM    5  C   UNL     1      -5.788  -2.852 -34.333  1.00  0.00     0.050 A 
HETATM    6  C   UNL     1      -4.487  -2.483 -33.978  1.00  0.00     0.017 A 
HETATM    7  C   UNL     1      -4.216  -1.201 -33.485  1.00  0.00     0.016 A 
HETATM    8  N   UNL     1      -7.562   0.244 -33.518  1.00  0.00    -0.365 N 
HETATM    9  H   UNL     1      -8.506  -0.053 -33.765  1.00  0.00     0.165 HD
HETATM   10  C   UNL     1      -7.395   1.475 -33.027  1.00  0.00     0.090 A 
HETATM   11  C   UNL     1      -6.131   1.922 -32.677  1.00  0.00     0.041 A 
ENDROOT
BRANCH   1  12
HETATM   12  N   UNL     1      -3.732   1.507 -32.451  1.00  0.00    -0.283 NA
HETATM   13  H   UNL     1      -3.130   1.746 -33.240  1.00  0.00     0.128 HD
BRANCH  12  14
HETATM   14  C   UNL     1      -3.580   2.541 -31.398  1.00  0.00     0.195 C 
BRANCH  14  15
HETATM   15  C   UNL     1      -2.767   3.731 -31.919  1.00  0.00     0.230 C 
HETATM   16  N   UNL     1      -3.337   4.359 -33.007  1.00  0.00    -0.360 N 
HETATM   17  H   UNL     1      -4.251   4.040 -33.313  1.00  0.00     0.162 HD
HETATM   18  O   UNL     1      -1.691   4.053 -31.427  1.00  0.00    -0.272 OA
BRANCH  16  19
HETATM   19  C   UNL     1      -2.717   5.489 -33.666  1.00  0.00     0.118 C 
HETATM   20  C   UNL     1      -1.869   5.052 -34.845  1.00  0.00     0.026 C 
ENDBRANCH  16  19
ENDBRANCH  14  15
ENDBRANCH  12  14
ENDBRANCH   1  12
BRANCH   5  21
HETATM   21  C   UNL     1      -6.064  -4.241 -34.874  1.00  0.00     0.417 C 
HETATM   22  F   UNL     1      -5.149  -5.153 -34.447  1.00  0.00    -0.166 F 
HETATM   23  F   UNL     1      -7.277  -4.710 -34.490  1.00  0.00    -0.166 F 
HETATM   24  F   UNL     1      -6.038  -4.280 -36.230  1.00  0.00    -0.166 F 
ENDBRANCH   5  21
TORSDOF 5
ENDMDL
MODEL 2
REMARK VINA RESULT:      -7.7      1.675      2.527
REMARK  5 active torsions:
REMARK  status: ('A' for Active; 'I' for Inactive)
REMARK    1  A    between atoms: C_2  and  N_3 
REMARK       I    between atoms: N_3  and  C_4 
REMARK    2  A    between atoms: C_4  and  C_5 
REMARK    3  A    between atoms: C_5  and  N_6 
REMARK    4  A    between atoms: N_6  and  C_7 
REMARK    5  A    between atoms: C_11  and  C_12 
ROOT
HETATM    1  C   UNL     1      -4.882   0.988 -32.734  1.00  0.00     0.022 A 
HETATM    2  C   UNL     1      -5.173  -0.281 -33.320  1.00  0.00     0.012 A 
HETATM    3  C   UNL     1      -4.349  -1.389 -32.998  1.00  0.00     0.044 A 
HETATM    4  C   UNL     1      -4.605  -2.668 -33.522  1.00  0.00     0.046 A 
HETATM    5  C   UNL     1      -5.682  -2.884 -34.395  1.00  0.00     0.050 A 
HETATM    6  C   UNL     1      -6.492  -1.798 -34.737  1.00  0.00     0.017 A 
HETATM    7  C   UNL     1      -6.241  -0.524 -34.214  1.00  0.00     0.016 A 
HETATM    8  N   UNL     1      -3.295  -1.210 -32.181  1.00  0.00    -0.365 N 
HETATM    9  H   UNL     1      -2.705  -2.013 -31.960  1.00  0.00     0.165 HD
HETATM   10  C   UNL     1      -2.967  -0.023 -31.662  1.00  0.00     0.090 A 
HETATM   11  C   UNL     1      -3.739   1.095 -31.935  1.00  0.00     0.041 A 
ENDROOT
BRANCH   1  12
HETATM   12  N   UNL     1      -5.642   2.120 -33.079  1.00  0.00    -0.283 NA
HETATM   13  H   UNL     1      -6.643   1.973 -32.937  1.00  0.00     0.128 HD
BRANCH  12  14
HETATM   14  C   UNL     1      -5.270   3.455 -32.550  1.00  0.00     0.195 C 
BRANCH  14  15
HETATM   15  C   UNL     1      -4.836   4.388 -33.686  1.00  0.00     0.230 C 
HETATM   16  N   UNL     1      -3.509   4.759 -33.622  1.00  0.00    -0.360 N 
HETATM   17  H   UNL     1      -2.934   4.339 -32.900  1.00  0.00     0.162 HD
HETATM   18  O   UNL     1      -5.621   4.789 -34.538  1.00  0.00    -0.272 OA
BRANCH  16  19
HETATM   19  C   UNL     1      -2.906   5.656 -34.585  1.00  0.00     0.118 C 
HETATM   20  C   UNL     1      -1.458   5.293 -34.856  1.00  0.00     0.026 C 
ENDBRANCH  16  19
ENDBRANCH  14  15
ENDBRANCH  12  14
ENDBRANCH   1  12
BRANCH   5  21
HETATM   21  C   UNL     1      -5.973  -4.259 -34.962  1.00  0.00     0.417 C 
HETATM   22  F   UNL     1      -6.013  -4.259 -36.322  1.00  0.00    -0.166 F 
HETATM   23  F   UNL     1      -5.032  -5.170 -34.608  1.00  0.00    -0.166 F 
HETATM   24  F   UNL     1      -7.169  -4.747 -34.545  1.00  0.00    -0.166 F 
ENDBRANCH   5  21
TORSDOF 5
ENDMDL
MODEL 3
REMARK VINA RESULT:      -7.5      2.500      4.173
REMARK  5 active torsions:
REMARK  status: ('A' for Active; 'I' for Inactive)
REMARK    1  A    between atoms: C_2  and  N_3 
REMARK       I    between atoms: N_3  and  C_4 
REMARK    2  A    between atoms: C_4  and  C_5 
REMARK    3  A    between atoms: C_5  and  N_6 
REMARK    4  A    between atoms: N_6  and  C_7 
REMARK    5  A    between atoms: C_11  and  C_12 
ROOT
HETATM    1  C   UNL     1      -4.878   0.975 -32.754  1.00  0.00     0.022 A 
HETATM    2  C   UNL     1      -5.175  -0.294 -33.336  1.00  0.00     0.012 A 
HETATM    3  C   UNL     1      -4.334  -1.397 -33.041  1.00  0.00     0.044 A 
HETATM    4  C   UNL     1      -4.594  -2.676 -33.562  1.00  0.00     0.046 A 
HETATM    5  C   UNL     1      -5.693  -2.898 -34.405  1.00  0.00     0.050 A 
HETATM    6  C   UNL     1      -6.521  -1.818 -34.721  1.00  0.00     0.017 A 
HETATM    7  C   UNL     1      -6.266  -0.543 -34.201  1.00  0.00     0.016 A 
HETATM    8  N   UNL     1      -3.258  -1.212 -32.254  1.00  0.00    -0.365 N 
HETATM    9  H   UNL     1      -2.656  -2.011 -32.052  1.00  0.00     0.165 HD
HETATM   10  C   UNL     1      -2.926  -0.024 -31.741  1.00  0.00     0.090 A 
HETATM   11  C   UNL     1      -3.714   1.089 -31.988  1.00  0.00     0.041 A 
ENDROOT
BRANCH   1  12
HETATM   12  N   UNL     1      -5.656   2.101 -33.074  1.00  0.00    -0.283 NA
HETATM   13  H   UNL     1      -6.341   1.905 -33.806  1.00  0.00     0.128 HD
BRANCH  12  14
HETATM   14  C   UNL     1      -6.312   2.882 -31.997  1.00  0.00     0.195 C 
BRANCH  14  15
HETATM   15  C   UNL     1      -7.759   2.417 -31.793  1.00  0.00     0.230 C 
HETATM   16  N   UNL     1      -8.364   1.965 -32.948  1.00  0.00    -0.360 N 
HETATM   17  H   UNL     1      -7.798   1.908 -33.788  1.00  0.00     0.162 HD
HETATM   18  O   UNL     1      -8.321   2.489 -30.706  1.00  0.00    -0.272 OA
BRANCH  16  19
HETATM   19  C   UNL     1      -9.736   1.505 -32.977  1.00  0.00     0.118 C 
HETATM   20  C   UNL     1      -9.829   0.010 -32.736  1.00  0.00     0.026 C 
ENDBRANCH  16  19
ENDBRANCH  14  15
ENDBRANCH  12  14
ENDBRANCH   1  12
BRANCH   5  21
HETATM   21  C   UNL     1      -5.989  -4.274 -34.969  1.00  0.00     0.417 C 
HETATM   22  F   UNL     1      -6.018  -4.279 -36.329  1.00  0.00    -0.166 F 
HETATM   23  F   UNL     1      -5.057  -5.189 -34.603  1.00  0.00    -0.166 F 
HETATM   24  F   UNL     1      -7.191  -4.751 -34.559  1.00  0.00    -0.166 F 
ENDBRANCH   5  21
TORSDOF 5
ENDMDL
MODEL 4
REMARK VINA RESULT:      -7.4     14.236     15.260
REMARK  5 active torsions:
REMARK  status: ('A' for Active; 'I' for Inactive)
REMARK    1  A    between atoms: C_2  and  N_3 
REMARK       I    between atoms: N_3  and  C_4 
REMARK    2  A    between atoms: C_4  and  C_5 
REMARK    3  A    between atoms: C_5  and  N_6 
REMARK    4  A    between atoms: N_6  and  C_7 
REMARK    5  A    between atoms: C_11  and  C_12 
ROOT
HETATM    1  C   UNL     1      -4.169 -12.436 -37.920  1.00  0.00     0.022 A 
HETATM    2  C   UNL     1      -5.476 -12.489 -38.492  1.00  0.00     0.012 A 
HETATM    3  C   UNL     1      -6.553 -12.956 -37.695  1.00  0.00     0.044 A 
HETATM    4  C   UNL     1      -7.866 -13.003 -38.195  1.00  0.00     0.046 A 
HETATM    5  C   UNL     1      -8.149 -12.601 -39.509  1.00  0.00     0.050 A 
HETATM    6  C   UNL     1      -7.096 -12.157 -40.313  1.00  0.00     0.017 A 
HETATM    7  C   UNL     1      -5.788 -12.106 -39.817  1.00  0.00     0.016 A 
HETATM    8  N   UNL     1      -6.311 -13.370 -36.438  1.00  0.00    -0.365 N 
HETATM    9  H   UNL     1      -7.092 -13.708 -35.875  1.00  0.00     0.165 HD
HETATM   10  C   UNL     1      -5.089 -13.382 -35.897  1.00  0.00     0.090 A 
HETATM   11  C   UNL     1      -3.999 -12.931 -36.624  1.00  0.00     0.041 A 
ENDROOT
BRANCH   1  12
HETATM   12  N   UNL     1      -3.070 -12.036 -38.701  1.00  0.00    -0.283 NA
HETATM   13  H   UNL     1      -2.688 -11.137 -38.403  1.00  0.00     0.128 HD
BRANCH  12  14
HETATM   14  C   UNL     1      -1.950 -12.978 -38.945  1.00  0.00     0.195 C 
BRANCH  14  15
HETATM   15  C   UNL     1      -2.393 -14.122 -39.864  1.00  0.00     0.230 C 
HETATM   16  N   UNL     1      -2.751 -13.710 -41.130  1.00  0.00    -0.360 N 
HETATM   17  H   UNL     1      -2.624 -12.731 -41.364  1.00  0.00     0.162 HD
HETATM   18  O   UNL     1      -2.456 -15.283 -39.476  1.00  0.00    -0.272 OA
BRANCH  16  19
HETATM   19  C   UNL     1      -3.223 -14.631 -42.143  1.00  0.00     0.118 C 
HETATM   20  C   UNL     1      -4.614 -14.266 -42.626  1.00  0.00     0.026 C 
ENDBRANCH  16  19
ENDBRANCH  14  15
ENDBRANCH  12  14
ENDBRANCH   1  12
BRANCH   5  21
HETATM   21  C   UNL     1      -9.561 -12.642 -40.058  1.00  0.00     0.417 C 
HETATM   22  F   UNL     1      -9.900 -11.489 -40.697  1.00  0.00    -0.166 F 
HETATM   23  F   UNL     1      -9.733 -13.642 -40.958  1.00  0.00    -0.166 F 
HETATM   24  F   UNL     1     -10.488 -12.824 -39.084  1.00  0.00    -0.166 F 
ENDBRANCH   5  21
TORSDOF 5
ENDMDL
MODEL 5
REMARK VINA RESULT:      -7.4      2.974      5.083
REMARK  5 active torsions:
REMARK  status: ('A' for Active; 'I' for Inactive)
REMARK    1  A    between atoms: C_2  and  N_3 
REMARK       I    between atoms: N_3  and  C_4 
REMARK    2  A    between atoms: C_4  and  C_5 
REMARK    3  A    between atoms: C_5  and  N_6 
REMARK    4  A    between atoms: N_6  and  C_7 
REMARK    5  A    between atoms: C_11  and  C_12 
ROOT
HETATM    1  C   UNL     1      -6.748   0.618 -34.145  1.00  0.00     0.022 A 
HETATM    2  C   UNL     1      -6.102  -0.655 -34.137  1.00  0.00     0.012 A 
HETATM    3  C   UNL     1      -4.907  -0.812 -33.389  1.00  0.00     0.044 A 
HETATM    4  C   UNL     1      -4.244  -2.049 -33.320  1.00  0.00     0.046 A 
HETATM    5  C   UNL     1      -4.740  -3.169 -34.004  1.00  0.00     0.050 A 
HETATM    6  C   UNL     1      -5.906  -3.026 -34.761  1.00  0.00     0.017 A 
HETATM    7  C   UNL     1      -6.571  -1.795 -34.829  1.00  0.00     0.016 A 
HETATM    8  N   UNL     1      -4.393   0.249 -32.739  1.00  0.00    -0.365 N 
HETATM    9  H   UNL     1      -3.530   0.126 -32.208  1.00  0.00     0.165 HD
HETATM   10  C   UNL     1      -4.947   1.464 -32.775  1.00  0.00     0.090 A 
HETATM   11  C   UNL     1      -6.119   1.677 -33.483  1.00  0.00     0.041 A 
ENDROOT
BRANCH   1  12
HETATM   12  N   UNL     1      -7.900   0.823 -34.924  1.00  0.00    -0.283 NA
HETATM   13  H   UNL     1      -7.948   0.186 -35.721  1.00  0.00     0.128 HD
BRANCH  12  14
HETATM   14  C   UNL     1      -9.233   0.888 -34.278  1.00  0.00     0.195 C 
BRANCH  14  15
HETATM   15  C   UNL     1      -9.789   2.316 -34.319  1.00  0.00     0.230 C 
HETATM   16  N   UNL     1     -10.797   2.492 -35.244  1.00  0.00    -0.360 N 
HETATM   17  H   UNL     1     -11.127   1.675 -35.746  1.00  0.00     0.162 HD
HETATM   18  O   UNL     1      -9.336   3.214 -33.618  1.00  0.00    -0.272 OA
BRANCH  16  19
HETATM   19  C   UNL     1     -11.440   3.771 -35.459  1.00  0.00     0.118 C 
HETATM   20  C   UNL     1     -12.721   3.895 -34.655  1.00  0.00     0.026 C 
ENDBRANCH  16  19
ENDBRANCH  14  15
ENDBRANCH  12  14
ENDBRANCH   1  12
BRANCH   5  21
HETATM   21  C   UNL     1      -4.038  -4.510 -33.934  1.00  0.00     0.417 C 
HETATM   22  F   UNL     1      -4.833  -5.532 -34.352  1.00  0.00    -0.166 F 
HETATM   23  F   UNL     1      -2.926  -4.549 -34.710  1.00  0.00    -0.166 F 
HETATM   24  F   UNL     1      -3.648  -4.822 -32.672  1.00  0.00    -0.166 F 
ENDBRANCH   5  21
TORSDOF 5
ENDMDL
MODEL 6
REMARK VINA RESULT:      -7.4     14.098     14.950
REMARK  5 active torsions:
REMARK  status: ('A' for Active; 'I' for Inactive)
REMARK    1  A    between atoms: C_2  and  N_3 
REMARK       I    between atoms: N_3  and  C_4 
REMARK    2  A    between atoms: C_4  and  C_5 
REMARK    3  A    between atoms: C_5  and  N_6 
REMARK    4  A    between atoms: N_6  and  C_7 
REMARK    5  A    between atoms: C_11  and  C_12 
ROOT
HETATM    1  C   UNL     1      -4.328 -12.422 -38.080  1.00  0.00     0.022 A 
HETATM    2  C   UNL     1      -5.651 -12.459 -38.615  1.00  0.00     0.012 A 
HETATM    3  C   UNL     1      -6.707 -12.938 -37.798  1.00  0.00     0.044 A 
HETATM    4  C   UNL     1      -8.034 -12.970 -38.261  1.00  0.00     0.046 A 
HETATM    5  C   UNL     1      -8.353 -12.538 -39.557  1.00  0.00     0.050 A 
HETATM    6  C   UNL     1      -7.320 -12.080 -40.381  1.00  0.00     0.017 A 
HETATM    7  C   UNL     1      -5.998 -12.045 -39.921  1.00  0.00     0.016 A 
HETATM    8  N   UNL     1      -6.431 -13.380 -36.557  1.00  0.00    -0.365 N 
HETATM    9  H   UNL     1      -7.197 -13.728 -35.980  1.00  0.00     0.165 HD
HETATM   10  C   UNL     1      -5.194 -13.409 -36.052  1.00  0.00     0.090 A 
HETATM   11  C   UNL     1      -4.123 -12.947 -36.800  1.00  0.00     0.041 A 
ENDROOT
BRANCH   1  12
HETATM   12  N   UNL     1      -3.250 -12.010 -38.882  1.00  0.00    -0.283 NA
HETATM   13  H   UNL     1      -3.410 -11.095 -39.307  1.00  0.00     0.128 HD
BRANCH  12  14
HETATM   14  C   UNL     1      -1.866 -12.060 -38.352  1.00  0.00     0.195 C 
BRANCH  14  15
HETATM   15  C   UNL     1      -1.102 -13.254 -38.936  1.00  0.00     0.230 C 
HETATM   16  N   UNL     1      -0.352 -13.941 -38.004  1.00  0.00    -0.360 N 
HETATM   17  H   UNL     1      -0.426 -13.657 -37.033  1.00  0.00     0.162 HD
HETATM   18  O   UNL     1      -1.135 -13.529 -40.129  1.00  0.00    -0.272 OA
BRANCH  16  19
HETATM   19  C   UNL     1       0.463 -15.086 -38.354  1.00  0.00     0.118 C 
HETATM   20  C   UNL     1       1.876 -14.674 -38.721  1.00  0.00     0.026 C 
ENDBRANCH  16  19
ENDBRANCH  14  15
ENDBRANCH  12  14
ENDBRANCH   1  12
BRANCH   5  21
HETATM   21  C   UNL     1      -9.780 -12.561 -40.066  1.00  0.00     0.417 C 
HETATM   22  F   UNL     1     -10.679 -12.797 -39.073  1.00  0.00    -0.166 F 
HETATM   23  F   UNL     1     -10.140 -11.384 -40.637  1.00  0.00    -0.166 F 
HETATM   24  F   UNL     1      -9.978 -13.528 -40.998  1.00  0.00    -0.166 F 
ENDBRANCH   5  21
TORSDOF 5
ENDMDL
MODEL 7
REMARK VINA RESULT:      -7.2      1.676      2.032
REMARK  5 active torsions:
REMARK  status: ('A' for Active; 'I' for Inactive)
REMARK    1  A    between atoms: C_2  and  N_3 
REMARK       I    between atoms: N_3  and  C_4 
REMARK    2  A    between atoms: C_4  and  C_5 
REMARK    3  A    between atoms: C_5  and  N_6 
REMARK    4  A    between atoms: N_6  and  C_7 
REMARK    5  A    between atoms: C_11  and  C_12 
ROOT
HETATM    1  C   UNL     1      -6.461   2.089 -33.362  1.00  0.00     0.022 A 
HETATM    2  C   UNL     1      -6.296   0.704 -33.665  1.00  0.00     0.012 A 
HETATM    3  C   UNL     1      -7.312   0.036 -34.395  1.00  0.00     0.044 A 
HETATM    4  C   UNL     1      -7.190  -1.319 -34.746  1.00  0.00     0.046 A 
HETATM    5  C   UNL     1      -6.060  -2.060 -34.372  1.00  0.00     0.050 A 
HETATM    6  C   UNL     1      -5.058  -1.422 -33.635  1.00  0.00     0.017 A 
HETATM    7  C   UNL     1      -5.175  -0.071 -33.286  1.00  0.00     0.016 A 
HETATM    8  N   UNL     1      -8.420   0.713 -34.750  1.00  0.00    -0.365 N 
HETATM    9  H   UNL     1      -9.147   0.222 -35.271  1.00  0.00     0.165 HD
HETATM   10  C   UNL     1      -8.624   1.995 -34.432  1.00  0.00     0.090 A 
HETATM   11  C   UNL     1      -7.664   2.701 -33.726  1.00  0.00     0.041 A 
ENDROOT
BRANCH   1  12
HETATM   12  N   UNL     1      -5.501   2.765 -32.588  1.00  0.00    -0.283 NA
HETATM   13  H   UNL     1      -4.579   2.330 -32.647  1.00  0.00     0.128 HD
BRANCH  12  14
HETATM   14  C   UNL     1      -5.349   4.235 -32.710  1.00  0.00     0.195 C 
BRANCH  14  15
HETATM   15  C   UNL     1      -4.421   4.591 -33.877  1.00  0.00     0.230 C 
HETATM   16  N   UNL     1      -3.081   4.560 -33.549  1.00  0.00    -0.360 N 
HETATM   17  H   UNL     1      -2.828   4.241 -32.620  1.00  0.00     0.162 HD
HETATM   18  O   UNL     1      -4.851   4.912 -34.979  1.00  0.00    -0.272 OA
BRANCH  16  19
HETATM   19  C   UNL     1      -2.041   4.888 -34.501  1.00  0.00     0.118 C 
HETATM   20  C   UNL     1      -1.462   6.266 -34.242  1.00  0.00     0.026 C 
ENDBRANCH  16  19
ENDBRANCH  14  15
ENDBRANCH  12  14
ENDBRANCH   1  12
BRANCH   5  21
HETATM   21  C   UNL     1      -5.914  -3.520 -34.750  1.00  0.00     0.417 C 
HETATM   22  F   UNL     1      -7.039  -4.238 -34.483  1.00  0.00    -0.166 F 
HETATM   23  F   UNL     1      -5.660  -3.686 -36.072  1.00  0.00    -0.166 F 
HETATM   24  F   UNL     1      -4.904  -4.128 -34.076  1.00  0.00    -0.166 F 
ENDBRANCH   5  21
TORSDOF 5
ENDMDL
MODEL 8
REMARK VINA RESULT:      -7.1      2.946      5.312
REMARK  5 active torsions:
REMARK  status: ('A' for Active; 'I' for Inactive)
REMARK    1  A    between atoms: C_2  and  N_3 
REMARK       I    between atoms: N_3  and  C_4 
REMARK    2  A    between atoms: C_4  and  C_5 
REMARK    3  A    between atoms: C_5  and  N_6 
REMARK    4  A    between atoms: N_6  and  C_7 
REMARK    5  A    between atoms: C_11  and  C_12 
ROOT
HETATM    1  C   UNL     1      -6.676   1.479 -32.992  1.00  0.00     0.022 A 
HETATM    2  C   UNL     1      -6.500   0.148 -33.478  1.00  0.00     0.012 A 
HETATM    3  C   UNL     1      -5.224  -0.462 -33.358  1.00  0.00     0.044 A 
HETATM    4  C   UNL     1      -5.000  -1.779 -33.793  1.00  0.00     0.046 A 
HETATM    5  C   UNL     1      -6.032  -2.530 -34.373  1.00  0.00     0.050 A 
HETATM    6  C   UNL     1      -7.290  -1.937 -34.516  1.00  0.00     0.017 A 
HETATM    7  C   UNL     1      -7.518  -0.626 -34.082  1.00  0.00     0.016 A 
HETATM    8  N   UNL     1      -4.207   0.241 -32.826  1.00  0.00    -0.365 N 
HETATM    9  H   UNL     1      -3.292  -0.206 -32.750  1.00  0.00     0.165 HD
HETATM   10  C   UNL     1      -4.331   1.505 -32.414  1.00  0.00     0.090 A 
HETATM   11  C   UNL     1      -5.554   2.151 -32.499  1.00  0.00     0.041 A 
ENDROOT
BRANCH   1  12
HETATM   12  N   UNL     1      -7.910   2.133 -33.150  1.00  0.00    -0.283 NA
HETATM   13  H   UNL     1      -8.327   1.960 -34.066  1.00  0.00     0.128 HD
BRANCH  12  14
HETATM   14  C   UNL     1      -8.960   2.001 -32.111  1.00  0.00     0.195 C 
BRANCH  14  15
HETATM   15  C   UNL     1     -10.351   2.238 -32.710  1.00  0.00     0.230 C 
HETATM   16  N   UNL     1     -10.941   1.095 -33.209  1.00  0.00    -0.360 N 
HETATM   17  H   UNL     1     -10.457   0.214 -33.075  1.00  0.00     0.162 HD
HETATM   18  O   UNL     1     -10.856   3.353 -32.767  1.00  0.00    -0.272 OA
BRANCH  16  19
HETATM   19  C   UNL     1     -12.244   1.106 -33.840  1.00  0.00     0.118 C 
HETATM   20  C   UNL     1     -13.007  -0.177 -33.568  1.00  0.00     0.026 C 
ENDBRANCH  16  19
ENDBRANCH  14  15
ENDBRANCH  12  14
ENDBRANCH   1  12
BRANCH   5  21
HETATM   21  C   UNL     1      -5.804  -3.954 -34.841  1.00  0.00     0.417 C 
HETATM   22  F   UNL     1      -6.797  -4.794 -34.440  1.00  0.00    -0.166 F 
HETATM   23  F   UNL     1      -5.747  -4.047 -36.193  1.00  0.00    -0.166 F 
HETATM   24  F   UNL     1      -4.646  -4.475 -34.361  1.00  0.00    -0.166 F 
ENDBRANCH   5  21
TORSDOF 5
ENDMDL
MODEL 9
REMARK VINA RESULT:      -6.9      4.404      6.688
REMARK  5 active torsions:
REMARK  status: ('A' for Active; 'I' for Inactive)
REMARK    1  A    between atoms: C_2  and  N_3 
REMARK       I    between atoms: N_3  and  C_4 
REMARK    2  A    between atoms: C_4  and  C_5 
REMARK    3  A    between atoms: C_5  and  N_6 
REMARK    4  A    between atoms: N_6  and  C_7 
REMARK    5  A    between atoms: C_11  and  C_12 
ROOT
HETATM    1  C   UNL     1      -9.344   1.116 -32.246  1.00  0.00     0.022 A 
HETATM    2  C   UNL     1      -8.142   0.436 -32.611  1.00  0.00     0.012 A 
HETATM    3  C   UNL     1      -6.921   0.832 -32.008  1.00  0.00     0.044 A 
HETATM    4  C   UNL     1      -5.713   0.180 -32.307  1.00  0.00     0.046 A 
HETATM    5  C   UNL     1      -5.676  -0.879 -33.226  1.00  0.00     0.050 A 
HETATM    6  C   UNL     1      -6.868  -1.269 -33.843  1.00  0.00     0.017 A 
HETATM    7  C   UNL     1      -8.074  -0.623 -33.545  1.00  0.00     0.016 A 
HETATM    8  N   UNL     1      -6.919   1.860 -31.139  1.00  0.00    -0.365 N 
HETATM    9  H   UNL     1      -6.034   2.140 -30.715  1.00  0.00     0.165 HD
HETATM   10  C   UNL     1      -8.019   2.549 -30.822  1.00  0.00     0.090 A 
HETATM   11  C   UNL     1      -9.242   2.203 -31.373  1.00  0.00     0.041 A 
ENDROOT
BRANCH   1  12
HETATM   12  N   UNL     1     -10.561   0.789 -32.869  1.00  0.00    -0.283 NA
HETATM   13  H   UNL     1     -11.361   0.912 -32.247  1.00  0.00     0.128 HD
BRANCH  12  14
HETATM   14  C   UNL     1     -10.891   1.356 -34.199  1.00  0.00     0.195 C 
BRANCH  14  15
HETATM   15  C   UNL     1     -12.261   2.044 -34.171  1.00  0.00     0.230 C 
HETATM   16  N   UNL     1     -12.737   2.281 -32.898  1.00  0.00    -0.360 N 
HETATM   17  H   UNL     1     -12.130   2.057 -32.116  1.00  0.00     0.162 HD
HETATM   18  O   UNL     1     -12.878   2.313 -35.195  1.00  0.00    -0.272 OA
BRANCH  16  19
HETATM   19  C   UNL     1     -14.023   2.898 -32.651  1.00  0.00     0.118 C 
HETATM   20  C   UNL     1     -15.113   1.861 -32.458  1.00  0.00     0.026 C 
ENDBRANCH  16  19
ENDBRANCH  14  15
ENDBRANCH  12  14
ENDBRANCH   1  12
BRANCH   5  21
HETATM   21  C   UNL     1      -4.380  -1.594 -33.553  1.00  0.00     0.417 C 
HETATM   22  F   UNL     1      -4.502  -2.418 -34.629  1.00  0.00    -0.166 F 
HETATM   23  F   UNL     1      -3.377  -0.730 -33.846  1.00  0.00    -0.166 F 
HETATM   24  F   UNL     1      -3.946  -2.369 -32.526  1.00  0.00    -0.166 F 
ENDBRANCH   5  21
TORSDOF 5
ENDMDL
MODEL 10
REMARK VINA RESULT:      -6.8      2.803      4.093
REMARK  5 active torsions:
REMARK  status: ('A' for Active; 'I' for Inactive)
REMARK    1  A    between atoms: C_2  and  N_3 
REMARK       I    between atoms: N_3  and  C_4 
REMARK    2  A    between atoms: C_4  and  C_5 
REMARK    3  A    between atoms: C_5  and  N_6 
REMARK    4  A    between atoms: N_6  and  C_7 
REMARK    5  A    between atoms: C_11  and  C_12 
ROOT
HETATM    1  C   UNL     1      -5.858   1.102 -32.540  1.00  0.00     0.022 A 
HETATM    2  C   UNL     1      -5.923  -0.181 -33.164  1.00  0.00     0.012 A 
HETATM    3  C   UNL     1      -4.722  -0.910 -33.358  1.00  0.00     0.044 A 
HETATM    4  C   UNL     1      -4.728  -2.189 -33.940  1.00  0.00     0.046 A 
HETATM    5  C   UNL     1      -5.928  -2.781 -34.360  1.00  0.00     0.050 A 
HETATM    6  C   UNL     1      -7.118  -2.068 -34.194  1.00  0.00     0.017 A 
HETATM    7  C   UNL     1      -7.116  -0.795 -33.612  1.00  0.00     0.016 A 
HETATM    8  N   UNL     1      -3.551  -0.360 -32.985  1.00  0.00    -0.365 N 
HETATM    9  H   UNL     1      -2.692  -0.891 -33.134  1.00  0.00     0.165 HD
HETATM   10  C   UNL     1      -3.456   0.860 -32.450  1.00  0.00     0.090 A 
HETATM   11  C   UNL     1      -4.596   1.617 -32.229  1.00  0.00     0.041 A 
ENDROOT
BRANCH   1  12
HETATM   12  N   UNL     1      -7.022   1.875 -32.388  1.00  0.00    -0.283 NA
HETATM   13  H   UNL     1      -7.269   2.017 -31.407  1.00  0.00     0.128 HD
BRANCH  12  14
HETATM   14  C   UNL     1      -7.158   3.164 -33.110  1.00  0.00     0.195 C 
BRANCH  14  15
HETATM   15  C   UNL     1      -8.467   3.205 -33.906  1.00  0.00     0.230 C 
HETATM   16  N   UNL     1      -8.921   4.483 -34.161  1.00  0.00    -0.360 N 
HETATM   17  H   UNL     1      -8.333   5.260 -33.878  1.00  0.00     0.162 HD
HETATM   18  O   UNL     1      -9.062   2.186 -34.239  1.00  0.00    -0.272 OA
BRANCH  16  19
HETATM   19  C   UNL     1     -10.152   4.742 -34.877  1.00  0.00     0.118 C 
HETATM   20  C   UNL     1     -10.229   6.180 -35.354  1.00  0.00     0.026 C 
ENDBRANCH  16  19
ENDBRANCH  14  15
ENDBRANCH  12  14
ENDBRANCH   1  12
BRANCH   5  21
HETATM   21  C   UNL     1      -5.949  -4.162 -34.984  1.00  0.00     0.417 C 
HETATM   22  F   UNL     1      -4.890  -4.922 -34.594  1.00  0.00    -0.166 F 
HETATM   23  F   UNL     1      -7.063  -4.860 -34.649  1.00  0.00    -0.166 F 
HETATM   24  F   UNL     1      -5.907  -4.116 -36.340  1.00  0.00    -0.166 F 
ENDBRANCH   5  21
TORSDOF 5
ENDMDL
