MODEL 1
REMARK VINA RESULT:      -8.2      0.000      0.000
REMARK  5 active torsions:
REMARK  status: ('A' for Active; 'I' for Inactive)
REMARK    1  A    between atoms: C_3  and  N_4 
REMARK    2  A    between atoms: N_4  and  C_5 
REMARK    3  A    between atoms: C_5  and  C_6 
REMARK    4  A    between atoms: C_8  and  N_9 
REMARK    5  A    between atoms: C_18  and  C_19 
ROOT
HETATM    1  C   UNL     1      -6.159   2.054 -32.831  1.00  0.00     0.053 C 
HETATM    2  C   UNL     1      -5.937   0.610 -33.187  1.00  0.00    -0.005 A 
HETATM    3  C   UNL     1      -7.123  -0.131 -33.792  1.00  0.00     0.151 A 
HETATM    4  N   UNL     1      -7.054  -1.373 -34.197  1.00  0.00    -0.146 NA
HETATM    5  N   UNL     1      -5.851  -1.961 -34.019  1.00  0.00    -0.187 N 
HETATM    6  C   UNL     1      -4.719  -1.404 -33.474  1.00  0.00     0.181 A 
HETATM    7  C   UNL     1      -4.763  -0.050 -33.040  1.00  0.00    -0.003 A 
HETATM    8  C   UNL     1      -3.549   0.616 -32.436  1.00  0.00     0.053 C 
HETATM    9  C   UNL     1      -5.510  -3.248 -34.331  1.00  0.00     0.258 A 
HETATM   10  N   UNL     1      -4.246  -3.461 -34.003  1.00  0.00    -0.123 NA
HETATM   11  N   UNL     1      -3.751  -2.298 -33.463  1.00  0.00    -0.128 NA
ENDROOT
BRANCH   3  12
HETATM   12  N   UNL     1      -8.330   0.509 -33.935  1.00  0.00    -0.366 N 
HETATM   13  H   UNL     1      -8.384   1.357 -34.494  1.00  0.00     0.161 HD
BRANCH  12  14
HETATM   14  C   UNL     1      -9.375   0.470 -32.913  1.00  0.00     0.201 C 
BRANCH  14  15
HETATM   15  C   UNL     1     -10.755   0.629 -33.531  1.00  0.00     0.144 A 
HETATM   16  N   UNL     1     -11.719  -0.235 -33.152  1.00  0.00    -0.220 NA
HETATM   17  C   UNL     1     -12.933  -0.063 -33.685  1.00  0.00     0.104 A 
HETATM   18  C   UNL     1     -13.217   0.939 -34.586  1.00  0.00     0.063 A 
HETATM   19  C   UNL     1     -12.178   1.778 -34.906  1.00  0.00     0.122 A 
HETATM   20  N   UNL     1     -10.940   1.655 -34.396  1.00  0.00    -0.244 NA
BRANCH  17  21
HETATM   21  N   UNL     1     -13.910  -0.983 -33.320  1.00  0.00    -0.287 NA
HETATM   22  H   UNL     1     -14.570  -1.055 -34.091  1.00  0.00     0.125 HD
HETATM   23  H   UNL     1     -13.516  -1.885 -33.079  1.00  0.00     0.125 HD
ENDBRANCH  17  21
ENDBRANCH  14  15
ENDBRANCH  12  14
ENDBRANCH   3  12
BRANCH   9  24
HETATM   24  C   UNL     1      -6.481  -4.167 -34.935  1.00  0.00     0.454 C 
HETATM   25  F   UNL     1      -7.471  -4.527 -34.073  1.00  0.00    -0.163 F 
HETATM   26  F   UNL     1      -7.090  -3.637 -36.031  1.00  0.00    -0.163 F 
HETATM   27  F   UNL     1      -5.908  -5.330 -35.349  1.00  0.00    -0.163 F 
ENDBRANCH   9  24
TORSDOF 5
ENDMDL
MODEL 2
REMARK VINA RESULT:      -8.0      3.660      5.353
REMARK  5 active torsions:
REMARK  status: ('A' for Active; 'I' for Inactive)
REMARK    1  A    between atoms: C_3  and  N_4 
REMARK    2  A    between atoms: N_4  and  C_5 
REMARK    3  A    between atoms: C_5  and  C_6 
REMARK    4  A    between atoms: C_8  and  N_9 
REMARK    5  A    between atoms: C_18  and  C_19 
ROOT
HETATM    1  C   UNL     1      -5.963   1.536 -33.792  1.00  0.00     0.053 C 
HETATM    2  C   UNL     1      -5.705   0.062 -33.940  1.00  0.00    -0.005 A 
HETATM    3  C   UNL     1      -4.411  -0.465 -33.334  1.00  0.00     0.151 A 
HETATM    4  N   UNL     1      -4.087  -1.732 -33.342  1.00  0.00    -0.146 NA
HETATM    5  N   UNL     1      -4.981  -2.542 -33.951  1.00  0.00    -0.187 N 
HETATM    6  C   UNL     1      -6.167  -2.183 -34.545  1.00  0.00     0.181 A 
HETATM    7  C   UNL     1      -6.550  -0.813 -34.536  1.00  0.00    -0.003 A 
HETATM    8  C   UNL     1      -7.845  -0.360 -35.170  1.00  0.00     0.053 C 
HETATM    9  C   UNL     1      -4.884  -3.895 -34.120  1.00  0.00     0.258 A 
HETATM   10  N   UNL     1      -5.947  -4.336 -34.771  1.00  0.00    -0.123 NA
HETATM   11  N   UNL     1      -6.753  -3.255 -35.037  1.00  0.00    -0.128 NA
ENDROOT
BRANCH   3  12
HETATM   12  N   UNL     1      -3.528   0.403 -32.741  1.00  0.00    -0.366 N 
HETATM   13  H   UNL     1      -2.614   0.552 -33.162  1.00  0.00     0.161 HD
BRANCH  12  14
HETATM   14  C   UNL     1      -3.504   0.651 -31.300  1.00  0.00     0.201 C 
BRANCH  14  15
HETATM   15  C   UNL     1      -4.236   1.938 -30.950  1.00  0.00     0.144 A 
HETATM   16  N   UNL     1      -5.393   1.837 -30.264  1.00  0.00    -0.220 NA
HETATM   17  C   UNL     1      -6.008   2.980 -29.942  1.00  0.00     0.104 A 
HETATM   18  C   UNL     1      -5.511   4.217 -30.285  1.00  0.00     0.063 A 
HETATM   19  C   UNL     1      -4.323   4.224 -30.974  1.00  0.00     0.122 A 
HETATM   20  N   UNL     1      -3.659   3.106 -31.318  1.00  0.00    -0.244 NA
BRANCH  17  21
HETATM   21  N   UNL     1      -7.221   2.867 -29.270  1.00  0.00    -0.287 NA
HETATM   22  H   UNL     1      -7.028   2.928 -28.273  1.00  0.00     0.125 HD
HETATM   23  H   UNL     1      -7.889   3.569 -29.565  1.00  0.00     0.125 HD
ENDBRANCH  17  21
ENDBRANCH  14  15
ENDBRANCH  12  14
ENDBRANCH   3  12
BRANCH   9  24
HETATM   24  C   UNL     1      -3.727  -4.644 -33.615  1.00  0.00     0.454 C 
HETATM   25  F   UNL     1      -3.117  -4.026 -32.566  1.00  0.00    -0.163 F 
HETATM   26  F   UNL     1      -4.058  -5.895 -33.193  1.00  0.00    -0.163 F 
HETATM   27  F   UNL     1      -2.762  -4.810 -34.561  1.00  0.00    -0.163 F 
ENDBRANCH   9  24
TORSDOF 5
ENDMDL
MODEL 3
REMARK VINA RESULT:      -7.9      3.319      4.542
REMARK  5 active torsions:
REMARK  status: ('A' for Active; 'I' for Inactive)
REMARK    1  A    between atoms: C_3  and  N_4 
REMARK    2  A    between atoms: N_4  and  C_5 
REMARK    3  A    between atoms: C_5  and  C_6 
REMARK    4  A    between atoms: C_8  and  N_9 
REMARK    5  A    between atoms: C_18  and  C_19 
ROOT
HETATM    1  C   UNL     1      -6.017  -3.476 -35.038  1.00  0.00     0.053 C 
HETATM    2  C   UNL     1      -5.266  -2.478 -34.201  1.00  0.00    -0.005 A 
HETATM    3  C   UNL     1      -5.808  -1.054 -34.191  1.00  0.00     0.151 A 
HETATM    4  N   UNL     1      -5.286  -0.100 -33.465  1.00  0.00    -0.146 NA
HETATM    5  N   UNL     1      -4.209  -0.466 -32.736  1.00  0.00    -0.187 N 
HETATM    6  C   UNL     1      -3.622  -1.707 -32.676  1.00  0.00     0.181 A 
HETATM    7  C   UNL     1      -4.181  -2.767 -33.443  1.00  0.00    -0.003 A 
HETATM    8  C   UNL     1      -3.580  -4.153 -33.414  1.00  0.00     0.053 C 
HETATM    9  C   UNL     1      -3.463   0.330 -31.913  1.00  0.00     0.258 A 
HETATM   10  N   UNL     1      -2.485  -0.382 -31.378  1.00  0.00    -0.123 NA
HETATM   11  N   UNL     1      -2.588  -1.664 -31.861  1.00  0.00    -0.128 NA
ENDROOT
BRANCH   3  12
HETATM   12  N   UNL     1      -6.896  -0.730 -34.964  1.00  0.00    -0.366 N 
HETATM   13  H   UNL     1      -7.242  -1.399 -35.647  1.00  0.00     0.161 HD
BRANCH  12  14
HETATM   14  C   UNL     1      -7.216   0.644 -35.346  1.00  0.00     0.201 C 
BRANCH  14  15
HETATM   15  C   UNL     1      -8.225   1.261 -34.390  1.00  0.00     0.144 A 
HETATM   16  N   UNL     1      -9.411   0.637 -34.237  1.00  0.00    -0.220 NA
HETATM   17  C   UNL     1     -10.275   1.179 -33.373  1.00  0.00     0.104 A 
HETATM   18  C   UNL     1      -9.999   2.324 -32.660  1.00  0.00     0.063 A 
HETATM   19  C   UNL     1      -8.763   2.886 -32.872  1.00  0.00     0.122 A 
HETATM   20  N   UNL     1      -7.854   2.380 -33.724  1.00  0.00    -0.244 NA
BRANCH  17  21
HETATM   21  N   UNL     1     -11.511   0.552 -33.251  1.00  0.00    -0.287 NA
HETATM   22  H   UNL     1     -11.745   0.520 -32.261  1.00  0.00     0.125 HD
HETATM   23  H   UNL     1     -12.232   1.018 -33.790  1.00  0.00     0.125 HD
ENDBRANCH  17  21
ENDBRANCH  14  15
ENDBRANCH  12  14
ENDBRANCH   3  12
BRANCH   9  24
HETATM   24  C   UNL     1      -3.789   1.749 -31.726  1.00  0.00     0.454 C 
HETATM   25  F   UNL     1      -3.796   2.445 -32.896  1.00  0.00    -0.163 F 
HETATM   26  F   UNL     1      -5.010   1.933 -31.154  1.00  0.00    -0.163 F 
HETATM   27  F   UNL     1      -2.896   2.386 -30.920  1.00  0.00    -0.163 F 
ENDBRANCH   9  24
TORSDOF 5
ENDMDL
MODEL 4
REMARK VINA RESULT:      -7.8      6.582      8.834
REMARK  5 active torsions:
REMARK  status: ('A' for Active; 'I' for Inactive)
REMARK    1  A    between atoms: C_3  and  N_4 
REMARK    2  A    between atoms: N_4  and  C_5 
REMARK    3  A    between atoms: C_5  and  C_6 
REMARK    4  A    between atoms: C_8  and  N_9 
REMARK    5  A    between atoms: C_18  and  C_19 
ROOT
HETATM    1  C   UNL     1      -4.600   6.782 -28.855  1.00  0.00     0.053 C 
HETATM    2  C   UNL     1      -3.861   6.721 -30.163  1.00  0.00    -0.005 A 
HETATM    3  C   UNL     1      -3.915   5.397 -30.914  1.00  0.00     0.151 A 
HETATM    4  N   UNL     1      -3.363   5.221 -32.087  1.00  0.00    -0.146 NA
HETATM    5  N   UNL     1      -2.719   6.303 -32.578  1.00  0.00    -0.187 N 
HETATM    6  C   UNL     1      -2.589   7.538 -31.990  1.00  0.00     0.181 A 
HETATM    7  C   UNL     1      -3.194   7.760 -30.721  1.00  0.00    -0.003 A 
HETATM    8  C   UNL     1      -3.087   9.099 -30.028  1.00  0.00     0.053 C 
HETATM    9  C   UNL     1      -2.043   6.391 -33.762  1.00  0.00     0.258 A 
HETATM   10  N   UNL     1      -1.537   7.605 -33.893  1.00  0.00    -0.123 NA
HETATM   11  N   UNL     1      -1.883   8.326 -32.775  1.00  0.00    -0.128 NA
ENDROOT
BRANCH   3  12
HETATM   12  N   UNL     1      -4.569   4.323 -30.362  1.00  0.00    -0.366 N 
HETATM   13  H   UNL     1      -4.065   3.696 -29.739  1.00  0.00     0.161 HD
BRANCH  12  14
HETATM   14  C   UNL     1      -5.679   3.642 -31.027  1.00  0.00     0.201 C 
BRANCH  14  15
HETATM   15  C   UNL     1      -5.374   2.167 -31.238  1.00  0.00     0.144 A 
HETATM   16  N   UNL     1      -4.109   1.748 -31.022  1.00  0.00    -0.220 NA
HETATM   17  C   UNL     1      -3.867   0.444 -31.187  1.00  0.00     0.104 A 
HETATM   18  C   UNL     1      -4.839  -0.455 -31.563  1.00  0.00     0.063 A 
HETATM   19  C   UNL     1      -6.099   0.059 -31.750  1.00  0.00     0.122 A 
HETATM   20  N   UNL     1      -6.401   1.359 -31.592  1.00  0.00    -0.244 NA
BRANCH  17  21
HETATM   21  N   UNL     1      -2.552   0.027 -31.003  1.00  0.00    -0.287 NA
HETATM   22  H   UNL     1      -1.988   0.450 -31.737  1.00  0.00     0.125 HD
HETATM   23  H   UNL     1      -2.201   0.262 -30.081  1.00  0.00     0.125 HD
ENDBRANCH  17  21
ENDBRANCH  14  15
ENDBRANCH  12  14
ENDBRANCH   3  12
BRANCH   9  24
HETATM   24  C   UNL     1      -1.955   5.244 -34.675  1.00  0.00     0.454 C 
HETATM   25  F   UNL     1      -3.014   5.168 -35.527  1.00  0.00    -0.163 F 
HETATM   26  F   UNL     1      -0.834   5.276 -35.446  1.00  0.00    -0.163 F 
HETATM   27  F   UNL     1      -1.923   4.055 -34.013  1.00  0.00    -0.163 F 
ENDBRANCH   9  24
TORSDOF 5
ENDMDL
MODEL 5
REMARK VINA RESULT:      -7.8      1.687      2.165
REMARK  5 active torsions:
REMARK  status: ('A' for Active; 'I' for Inactive)
REMARK    1  A    between atoms: C_3  and  N_4 
REMARK    2  A    between atoms: N_4  and  C_5 
REMARK    3  A    between atoms: C_5  and  C_6 
REMARK    4  A    between atoms: C_8  and  N_9 
REMARK    5  A    between atoms: C_18  and  C_19 
ROOT
HETATM    1  C   UNL     1      -7.915   2.715 -30.489  1.00  0.00     0.053 C 
HETATM    2  C   UNL     1      -7.227   1.683 -31.340  1.00  0.00    -0.005 A 
HETATM    3  C   UNL     1      -8.128   0.760 -32.149  1.00  0.00     0.151 A 
HETATM    4  N   UNL     1      -7.664  -0.145 -32.972  1.00  0.00    -0.146 NA
HETATM    5  N   UNL     1      -6.316  -0.216 -33.035  1.00  0.00    -0.187 N 
HETATM    6  C   UNL     1      -5.405   0.547 -32.345  1.00  0.00     0.181 A 
HETATM    7  C   UNL     1      -5.884   1.549 -31.456  1.00  0.00    -0.003 A 
HETATM    8  C   UNL     1      -4.929   2.421 -30.674  1.00  0.00     0.053 C 
HETATM    9  C   UNL     1      -5.572  -1.078 -33.790  1.00  0.00     0.258 A 
HETATM   10  N   UNL     1      -4.286  -0.852 -33.580  1.00  0.00    -0.123 NA
HETATM   11  N   UNL     1      -4.184   0.173 -32.670  1.00  0.00    -0.128 NA
ENDROOT
BRANCH   3  12
HETATM   12  N   UNL     1      -9.493   0.861 -32.036  1.00  0.00    -0.366 N 
HETATM   13  H   UNL     1      -9.899   1.208 -31.169  1.00  0.00     0.161 HD
BRANCH  12  14
HETATM   14  C   UNL     1     -10.417  -0.019 -32.748  1.00  0.00     0.201 C 
BRANCH  14  15
HETATM   15  C   UNL     1     -11.413   0.779 -33.575  1.00  0.00     0.144 A 
HETATM   16  N   UNL     1     -12.663   0.289 -33.700  1.00  0.00    -0.220 NA
HETATM   17  C   UNL     1     -13.532   1.018 -34.408  1.00  0.00     0.104 A 
HETATM   18  C   UNL     1     -13.196   2.216 -34.998  1.00  0.00     0.063 A 
HETATM   19  C   UNL     1     -11.904   2.642 -34.809  1.00  0.00     0.122 A 
HETATM   20  N   UNL     1     -10.991   1.953 -34.102  1.00  0.00    -0.244 NA
BRANCH  17  21
HETATM   21  N   UNL     1     -14.808   0.486 -34.567  1.00  0.00    -0.287 NA
HETATM   22  H   UNL     1     -15.269   0.515 -33.660  1.00  0.00     0.125 HD
HETATM   23  H   UNL     1     -15.343   0.977 -35.274  1.00  0.00     0.125 HD
ENDBRANCH  17  21
ENDBRANCH  14  15
ENDBRANCH  12  14
ENDBRANCH   3  12
BRANCH   9  24
HETATM   24  C   UNL     1      -6.210  -2.068 -34.667  1.00  0.00     0.454 C 
HETATM   25  F   UNL     1      -7.121  -1.511 -35.512  1.00  0.00    -0.163 F 
HETATM   26  F   UNL     1      -5.312  -2.734 -35.443  1.00  0.00    -0.163 F 
HETATM   27  F   UNL     1      -6.885  -3.021 -33.969  1.00  0.00    -0.163 F 
ENDBRANCH   9  24
TORSDOF 5
ENDMDL
MODEL 6
REMARK VINA RESULT:      -7.8      1.955      2.343
REMARK  5 active torsions:
REMARK  status: ('A' for Active; 'I' for Inactive)
REMARK    1  A    between atoms: C_3  and  N_4 
REMARK    2  A    between atoms: N_4  and  C_5 
REMARK    3  A    between atoms: C_5  and  C_6 
REMARK    4  A    between atoms: C_8  and  N_9 
REMARK    5  A    between atoms: C_18  and  C_19 
ROOT
HETATM    1  C   UNL     1      -5.228   2.090 -32.773  1.00  0.00     0.053 C 
HETATM    2  C   UNL     1      -5.056   0.614 -32.999  1.00  0.00    -0.005 A 
HETATM    3  C   UNL     1      -5.976  -0.027 -34.030  1.00  0.00     0.151 A 
HETATM    4  N   UNL     1      -5.899  -1.289 -34.365  1.00  0.00    -0.146 NA
HETATM    5  N   UNL     1      -4.950  -1.993 -33.709  1.00  0.00    -0.187 N 
HETATM    6  C   UNL     1      -4.077  -1.531 -32.753  1.00  0.00     0.181 A 
HETATM    7  C   UNL     1      -4.130  -0.159 -32.382  1.00  0.00    -0.003 A 
HETATM    8  C   UNL     1      -3.193   0.406 -31.340  1.00  0.00     0.053 C 
HETATM    9  C   UNL     1      -4.668  -3.323 -33.847  1.00  0.00     0.258 A 
HETATM   10  N   UNL     1      -3.681  -3.653 -33.031  1.00  0.00    -0.123 NA
HETATM   11  N   UNL     1      -3.311  -2.522 -32.343  1.00  0.00    -0.128 NA
ENDROOT
BRANCH   3  12
HETATM   12  N   UNL     1      -6.936   0.729 -34.657  1.00  0.00    -0.366 N 
HETATM   13  H   UNL     1      -6.802   1.733 -34.747  1.00  0.00     0.161 HD
BRANCH  12  14
HETATM   14  C   UNL     1      -8.354   0.373 -34.653  1.00  0.00     0.201 C 
BRANCH  14  15
HETATM   15  C   UNL     1      -9.167   1.357 -33.826  1.00  0.00     0.144 A 
HETATM   16  N   UNL     1      -8.921   1.419 -32.501  1.00  0.00    -0.220 NA
HETATM   17  C   UNL     1      -9.627   2.308 -31.795  1.00  0.00     0.104 A 
HETATM   18  C   UNL     1     -10.570   3.134 -32.363  1.00  0.00     0.063 A 
HETATM   19  C   UNL     1     -10.747   3.008 -33.719  1.00  0.00     0.122 A 
HETATM   20  N   UNL     1     -10.061   2.136 -34.479  1.00  0.00    -0.244 NA
BRANCH  17  21
HETATM   21  N   UNL     1      -9.396   2.338 -30.422  1.00  0.00    -0.287 NA
HETATM   22  H   UNL     1      -8.425   2.076 -30.267  1.00  0.00     0.125 HD
HETATM   23  H   UNL     1      -9.609   3.242 -30.018  1.00  0.00     0.125 HD
ENDBRANCH  17  21
ENDBRANCH  14  15
ENDBRANCH  12  14
ENDBRANCH   3  12
BRANCH   9  24
HETATM   24  C   UNL     1      -5.415  -4.165 -34.789  1.00  0.00     0.454 C 
HETATM   25  F   UNL     1      -4.881  -5.410 -34.920  1.00  0.00    -0.163 F 
HETATM   26  F   UNL     1      -6.714  -4.334 -34.421  1.00  0.00    -0.163 F 
HETATM   27  F   UNL     1      -5.446  -3.639 -36.044  1.00  0.00    -0.163 F 
ENDBRANCH   9  24
TORSDOF 5
ENDMDL
MODEL 7
REMARK VINA RESULT:      -7.8      3.358      4.233
REMARK  5 active torsions:
REMARK  status: ('A' for Active; 'I' for Inactive)
REMARK    1  A    between atoms: C_3  and  N_4 
REMARK    2  A    between atoms: N_4  and  C_5 
REMARK    3  A    between atoms: C_5  and  C_6 
REMARK    4  A    between atoms: C_8  and  N_9 
REMARK    5  A    between atoms: C_18  and  C_19 
ROOT
HETATM    1  C   UNL     1      -7.046  -2.585 -34.507  1.00  0.00     0.053 C 
HETATM    2  C   UNL     1      -6.223  -1.540 -33.805  1.00  0.00    -0.005 A 
HETATM    3  C   UNL     1      -6.950  -0.267 -33.391  1.00  0.00     0.151 A 
HETATM    4  N   UNL     1      -6.369   0.699 -32.727  1.00  0.00    -0.146 NA
HETATM    5  N   UNL     1      -5.063   0.492 -32.451  1.00  0.00    -0.187 N 
HETATM    6  C   UNL     1      -4.300  -0.601 -32.785  1.00  0.00     0.181 A 
HETATM    7  C   UNL     1      -4.911  -1.672 -33.494  1.00  0.00    -0.003 A 
HETATM    8  C   UNL     1      -4.122  -2.901 -33.884  1.00  0.00     0.053 C 
HETATM    9  C   UNL     1      -4.216   1.340 -31.794  1.00  0.00     0.258 A 
HETATM   10  N   UNL     1      -3.012   0.797 -31.724  1.00  0.00    -0.123 NA
HETATM   11  N   UNL     1      -3.068  -0.426 -32.349  1.00  0.00    -0.128 NA
ENDROOT
BRANCH   3  12
HETATM   12  N   UNL     1      -8.275  -0.100 -33.711  1.00  0.00    -0.366 N 
HETATM   13  H   UNL     1      -8.538   0.074 -34.677  1.00  0.00     0.161 HD
BRANCH  12  14
HETATM   14  C   UNL     1      -9.251   0.459 -32.778  1.00  0.00     0.201 C 
BRANCH  14  15
HETATM   15  C   UNL     1     -10.606   0.645 -33.444  1.00  0.00     0.144 A 
HETATM   16  N   UNL     1     -11.597  -0.205 -33.105  1.00  0.00    -0.220 NA
HETATM   17  C   UNL     1     -12.787  -0.010 -33.681  1.00  0.00     0.104 A 
HETATM   18  C   UNL     1     -13.022   1.001 -34.585  1.00  0.00     0.063 A 
HETATM   19  C   UNL     1     -11.958   1.825 -34.863  1.00  0.00     0.122 A 
HETATM   20  N   UNL     1     -10.742   1.678 -34.309  1.00  0.00    -0.244 NA
BRANCH  17  21
HETATM   21  N   UNL     1     -13.793  -0.915 -33.356  1.00  0.00    -0.287 NA
HETATM   22  H   UNL     1     -14.024  -1.435 -34.200  1.00  0.00     0.125 HD
HETATM   23  H   UNL     1     -13.523  -1.533 -32.599  1.00  0.00     0.125 HD
ENDBRANCH  17  21
ENDBRANCH  14  15
ENDBRANCH  12  14
ENDBRANCH   3  12
BRANCH   9  24
HETATM   24  C   UNL     1      -4.681   2.636 -31.285  1.00  0.00     0.454 C 
HETATM   25  F   UNL     1      -5.537   2.512 -30.234  1.00  0.00    -0.163 F 
HETATM   26  F   UNL     1      -3.658   3.429 -30.864  1.00  0.00    -0.163 F 
HETATM   27  F   UNL     1      -5.351   3.355 -32.228  1.00  0.00    -0.163 F 
ENDBRANCH   9  24
TORSDOF 5
ENDMDL
MODEL 8
REMARK VINA RESULT:      -7.8      4.735      7.807
REMARK  5 active torsions:
REMARK  status: ('A' for Active; 'I' for Inactive)
REMARK    1  A    between atoms: C_3  and  N_4 
REMARK    2  A    between atoms: N_4  and  C_5 
REMARK    3  A    between atoms: C_5  and  C_6 
REMARK    4  A    between atoms: C_8  and  N_9 
REMARK    5  A    between atoms: C_18  and  C_19 
ROOT
HETATM    1  C   UNL     1      -3.941  -0.766 -33.555  1.00  0.00     0.053 C 
HETATM    2  C   UNL     1      -5.199  -0.143 -33.016  1.00  0.00    -0.005 A 
HETATM    3  C   UNL     1      -5.031   1.132 -32.200  1.00  0.00     0.151 A 
HETATM    4  N   UNL     1      -6.042   1.807 -31.718  1.00  0.00    -0.146 NA
HETATM    5  N   UNL     1      -7.256   1.275 -31.981  1.00  0.00    -0.187 N 
HETATM    6  C   UNL     1      -7.532   0.129 -32.688  1.00  0.00     0.181 A 
HETATM    7  C   UNL     1      -6.450  -0.615 -33.236  1.00  0.00    -0.003 A 
HETATM    8  C   UNL     1      -6.693  -1.881 -34.024  1.00  0.00     0.053 C 
HETATM    9  C   UNL     1      -8.471   1.758 -31.583  1.00  0.00     0.258 A 
HETATM   10  N   UNL     1      -9.429   0.961 -32.024  1.00  0.00    -0.123 NA
HETATM   11  N   UNL     1      -8.835  -0.064 -32.719  1.00  0.00    -0.128 NA
ENDROOT
BRANCH   3  12
HETATM   12  N   UNL     1      -3.773   1.622 -31.946  1.00  0.00    -0.366 N 
HETATM   13  H   UNL     1      -3.009   0.974 -31.773  1.00  0.00     0.161 HD
BRANCH  12  14
HETATM   14  C   UNL     1      -3.540   2.914 -31.303  1.00  0.00     0.201 C 
BRANCH  14  15
HETATM   15  C   UNL     1      -2.864   3.889 -32.255  1.00  0.00     0.144 A 
HETATM   16  N   UNL     1      -3.547   4.273 -33.353  1.00  0.00    -0.220 NA
HETATM   17  C   UNL     1      -2.948   5.150 -34.164  1.00  0.00     0.104 A 
HETATM   18  C   UNL     1      -1.691   5.656 -33.920  1.00  0.00     0.063 A 
HETATM   19  C   UNL     1      -1.074   5.217 -32.773  1.00  0.00     0.122 A 
HETATM   20  N   UNL     1      -1.632   4.341 -31.919  1.00  0.00    -0.244 NA
BRANCH  17  21
HETATM   21  N   UNL     1      -3.642   5.509 -35.315  1.00  0.00    -0.287 NA
HETATM   22  H   UNL     1      -4.634   5.385 -35.129  1.00  0.00     0.125 HD
HETATM   23  H   UNL     1      -3.433   6.457 -35.609  1.00  0.00     0.125 HD
ENDBRANCH  17  21
ENDBRANCH  14  15
ENDBRANCH  12  14
ENDBRANCH   3  12
BRANCH   9  24
HETATM   24  C   UNL     1      -8.577   2.987 -30.786  1.00  0.00     0.454 C 
HETATM   25  F   UNL     1      -9.856   3.261 -30.410  1.00  0.00    -0.163 F 
HETATM   26  F   UNL     1      -7.836   2.935 -29.646  1.00  0.00    -0.163 F 
HETATM   27  F   UNL     1      -8.146   4.085 -31.465  1.00  0.00    -0.163 F 
ENDBRANCH   9  24
TORSDOF 5
ENDMDL
MODEL 9
REMARK VINA RESULT:      -7.8      4.274      7.300
REMARK  5 active torsions:
REMARK  status: ('A' for Active; 'I' for Inactive)
REMARK    1  A    between atoms: C_3  and  N_4 
REMARK    2  A    between atoms: N_4  and  C_5 
REMARK    3  A    between atoms: C_5  and  C_6 
REMARK    4  A    between atoms: C_8  and  N_9 
REMARK    5  A    between atoms: C_18  and  C_19 
ROOT
HETATM    1  C   UNL     1      -2.854  -0.947 -32.329  1.00  0.00     0.053 C 
HETATM    2  C   UNL     1      -4.171  -0.435 -32.843  1.00  0.00    -0.005 A 
HETATM    3  C   UNL     1      -4.580   0.961 -32.392  1.00  0.00     0.151 A 
HETATM    4  N   UNL     1      -5.673   1.550 -32.805  1.00  0.00    -0.146 NA
HETATM    5  N   UNL     1      -6.428   0.815 -33.651  1.00  0.00    -0.187 N 
HETATM    6  C   UNL     1      -6.173  -0.454 -34.114  1.00  0.00     0.181 A 
HETATM    7  C   UNL     1      -4.983  -1.110 -33.692  1.00  0.00    -0.003 A 
HETATM    8  C   UNL     1      -4.649  -2.504 -34.170  1.00  0.00     0.053 C 
HETATM    9  C   UNL     1      -7.621   1.175 -34.214  1.00  0.00     0.258 A 
HETATM   10  N   UNL     1      -8.063   0.190 -34.978  1.00  0.00    -0.123 NA
HETATM   11  N   UNL     1      -7.149  -0.834 -34.912  1.00  0.00    -0.128 NA
ENDROOT
BRANCH   3  12
HETATM   12  N   UNL     1      -3.785   1.660 -31.518  1.00  0.00    -0.366 N 
HETATM   13  H   UNL     1      -3.353   1.173 -30.736  1.00  0.00     0.161 HD
BRANCH  12  14
HETATM   14  C   UNL     1      -3.982   3.079 -31.226  1.00  0.00     0.201 C 
BRANCH  14  15
HETATM   15  C   UNL     1      -3.125   3.951 -32.130  1.00  0.00     0.144 A 
HETATM   16  N   UNL     1      -3.683   4.422 -33.264  1.00  0.00    -0.220 NA
HETATM   17  C   UNL     1      -2.923   5.209 -34.033  1.00  0.00     0.104 A 
HETATM   18  C   UNL     1      -1.626   5.538 -33.712  1.00  0.00     0.063 A 
HETATM   19  C   UNL     1      -1.143   5.022 -32.534  1.00  0.00     0.122 A 
HETATM   20  N   UNL     1      -1.865   4.231 -31.720  1.00  0.00    -0.244 NA
BRANCH  17  21
HETATM   21  N   UNL     1      -3.493   5.657 -35.221  1.00  0.00    -0.287 NA
HETATM   22  H   UNL     1      -4.483   5.421 -35.197  1.00  0.00     0.125 HD
HETATM   23  H   UNL     1      -3.349   6.650 -35.364  1.00  0.00     0.125 HD
ENDBRANCH  17  21
ENDBRANCH  14  15
ENDBRANCH  12  14
ENDBRANCH   3  12
BRANCH   9  24
HETATM   24  C   UNL     1      -8.227   2.483 -33.940  1.00  0.00     0.454 C 
HETATM   25  F   UNL     1      -7.397   3.520 -34.238  1.00  0.00    -0.163 F 
HETATM   26  F   UNL     1      -9.373   2.685 -34.646  1.00  0.00    -0.163 F 
HETATM   27  F   UNL     1      -8.560   2.637 -32.629  1.00  0.00    -0.163 F 
ENDBRANCH   9  24
TORSDOF 5
ENDMDL
MODEL 10
REMARK VINA RESULT:      -7.6      6.629      8.334
REMARK  5 active torsions:
REMARK  status: ('A' for Active; 'I' for Inactive)
REMARK    1  A    between atoms: C_3  and  N_4 
REMARK    2  A    between atoms: N_4  and  C_5 
REMARK    3  A    between atoms: C_5  and  C_6 
REMARK    4  A    between atoms: C_8  and  N_9 
REMARK    5  A    between atoms: C_18  and  C_19 
ROOT
HETATM    1  C   UNL     1      -4.663   7.103 -28.924  1.00  0.00     0.053 C 
HETATM    2  C   UNL     1      -3.910   6.958 -30.217  1.00  0.00    -0.005 A 
HETATM    3  C   UNL     1      -4.034   5.617 -30.929  1.00  0.00     0.151 A 
HETATM    4  N   UNL     1      -3.476   5.373 -32.087  1.00  0.00    -0.146 NA
HETATM    5  N   UNL     1      -2.759   6.398 -32.598  1.00  0.00    -0.187 N 
HETATM    6  C   UNL     1      -2.562   7.640 -32.044  1.00  0.00     0.181 A 
HETATM    7  C   UNL     1      -3.171   7.936 -30.793  1.00  0.00    -0.003 A 
HETATM    8  C   UNL     1      -2.992   9.286 -30.138  1.00  0.00     0.053 C 
HETATM    9  C   UNL     1      -2.060   6.409 -33.773  1.00  0.00     0.258 A 
HETATM   10  N   UNL     1      -1.478   7.586 -33.930  1.00  0.00    -0.123 NA
HETATM   11  N   UNL     1      -1.796   8.359 -32.840  1.00  0.00    -0.128 NA
ENDROOT
BRANCH   3  12
HETATM   12  N   UNL     1      -4.761   4.602 -30.358  1.00  0.00    -0.366 N 
HETATM   13  H   UNL     1      -4.287   3.753 -30.061  1.00  0.00     0.161 HD
BRANCH  12  14
HETATM   14  C   UNL     1      -6.164   4.350 -30.683  1.00  0.00     0.201 C 
BRANCH  14  15
HETATM   15  C   UNL     1      -6.401   2.881 -30.999  1.00  0.00     0.144 A 
HETATM   16  N   UNL     1      -7.671   2.428 -30.967  1.00  0.00    -0.220 NA
HETATM   17  C   UNL     1      -7.863   1.141 -31.273  1.00  0.00     0.104 A 
HETATM   18  C   UNL     1      -6.833   0.290 -31.604  1.00  0.00     0.063 A 
HETATM   19  C   UNL     1      -5.574   0.841 -31.620  1.00  0.00     0.122 A 
HETATM   20  N   UNL     1      -5.324   2.129 -31.328  1.00  0.00    -0.244 NA
BRANCH  17  21
HETATM   21  N   UNL     1      -9.171   0.671 -31.199  1.00  0.00    -0.287 NA
HETATM   22  H   UNL     1      -9.652   1.208 -30.481  1.00  0.00     0.125 HD
HETATM   23  H   UNL     1      -9.649   0.728 -32.091  1.00  0.00     0.125 HD
ENDBRANCH  17  21
ENDBRANCH  14  15
ENDBRANCH  12  14
ENDBRANCH   3  12
BRANCH   9  24
HETATM   24  C   UNL     1      -2.030   5.232 -34.651  1.00  0.00     0.454 C 
HETATM   25  F   UNL     1      -1.995   4.061 -33.958  1.00  0.00    -0.163 F 
HETATM   26  F   UNL     1      -3.111   5.167 -35.474  1.00  0.00    -0.163 F 
HETATM   27  F   UNL     1      -0.937   5.217 -35.462  1.00  0.00    -0.163 F 
ENDBRANCH   9  24
TORSDOF 5
ENDMDL
