MODEL 1
REMARK VINA RESULT:      -9.5      0.000      0.000
REMARK  6 active torsions:
REMARK  status: ('A' for Active; 'I' for Inactive)
REMARK    1  A    between atoms: C_4  and  C_5 
REMARK    2  A    between atoms: C_5  and  N_6 
REMARK    3  A    between atoms: C_10  and  C_11 
REMARK    4  A    between atoms: C_11  and  C_12 
REMARK    5  A    between atoms: N_21  and  C_22 
REMARK    6  A    between atoms: C_22  and  C_23 
ROOT
HETATM    1  C   UNL     1      -6.890   2.005 -32.449  1.00  0.00     0.164 C 
HETATM    2  N   UNL     1      -7.410   3.027 -33.352  1.00  0.00    -0.319 N 
HETATM    3  C   UNL     1      -6.514   4.048 -33.565  1.00  0.00     0.326 C 
HETATM    4  O   UNL     1      -6.630   4.898 -34.428  1.00  0.00    -0.247 OA
HETATM    5  N   UNL     1      -5.515   3.935 -32.654  1.00  0.00    -0.265 N 
HETATM    6  C   UNL     1      -5.647   2.770 -31.955  1.00  0.00     0.263 C 
HETATM    7  O   UNL     1      -4.919   2.401 -31.041  1.00  0.00    -0.270 OA
HETATM    8  H   UNL     1      -8.074   2.803 -34.088  1.00  0.00     0.166 HD
ENDROOT
BRANCH   1   9
HETATM    9  C   UNL     1      -7.955   1.694 -31.334  1.00  0.00     0.033 C 
HETATM   10  C   UNL     1      -8.930   0.546 -31.641  1.00  0.00     0.036 C 
HETATM   11  C   UNL     1     -10.068   0.904 -32.582  1.00  0.00     0.235 C 
HETATM   12  N   UNL     1     -10.775   2.176 -32.187  1.00  0.00    -0.067 N 
HETATM   13  H   UNL     1     -11.388   1.923 -31.403  1.00  0.00     0.280 HD
HETATM   14  C   UNL     1      -9.913   3.327 -31.727  1.00  0.00     0.235 C 
HETATM   15  C   UNL     1      -8.786   2.880 -30.816  1.00  0.00     0.036 C 
BRANCH  12  16
HETATM   16  C   UNL     1     -11.700   2.676 -33.302  1.00  0.00     0.274 C 
BRANCH  16  17
HETATM   17  C   UNL     1     -13.169   2.654 -32.960  1.00  0.00    -0.026 A 
HETATM   18  C   UNL     1     -13.728   3.794 -32.342  1.00  0.00     0.016 A 
HETATM   19  C   UNL     1     -15.092   3.873 -32.050  1.00  0.00    -0.061 A 
HETATM   20  C   UNL     1     -15.682   5.094 -31.406  1.00  0.00     0.048 C 
HETATM   21  C   UNL     1     -15.906   2.783 -32.354  1.00  0.00     0.007 A 
HETATM   22  C   UNL     1     -15.367   1.637 -32.943  1.00  0.00     0.008 A 
HETATM   23  C   UNL     1     -14.002   1.558 -33.262  1.00  0.00    -0.054 A 
HETATM   24  C   UNL     1     -13.473   0.274 -33.839  1.00  0.00     0.049 C 
ENDBRANCH  16  17
ENDBRANCH  12  16
ENDBRANCH   1   9
BRANCH   1  25
HETATM   25  C   UNL     1      -6.557   0.767 -33.284  1.00  0.00     0.072 A 
HETATM   26  N   UNL     1      -5.775  -0.154 -32.654  1.00  0.00    -0.262 NA
HETATM   27  C   UNL     1      -5.479  -1.297 -33.314  1.00  0.00     0.117 A 
HETATM   28  C   UNL     1      -5.913  -1.575 -34.595  1.00  0.00     0.019 A 
HETATM   29  C   UNL     1      -6.703  -0.629 -35.235  1.00  0.00     0.003 A 
HETATM   30  C   UNL     1      -7.034   0.555 -34.577  1.00  0.00     0.030 A 
ENDBRANCH   1  25
BRANCH   5  31
HETATM   31  C   UNL     1      -4.398   4.854 -32.529  1.00  0.00     0.168 C 
BRANCH  31  32
HETATM   32  C   UNL     1      -3.190   4.426 -33.370  1.00  0.00     0.140 C 
HETATM   33  O   UNL     1      -1.968   4.626 -32.626  1.00  0.00    -0.384 OA
HETATM   34  C   UNL     1      -1.085   5.444 -33.403  1.00  0.00     0.168 C 
HETATM   35  C   UNL     1      -1.568   5.344 -34.830  1.00  0.00     0.029 C 
HETATM   36  C   UNL     1      -3.062   5.252 -34.645  1.00  0.00     0.036 C 
ENDBRANCH  31  32
ENDBRANCH   5  31
TORSDOF 6
ENDMDL
MODEL 2
REMARK VINA RESULT:      -9.5      2.175      6.869
REMARK  6 active torsions:
REMARK  status: ('A' for Active; 'I' for Inactive)
REMARK    1  A    between atoms: C_4  and  C_5 
REMARK    2  A    between atoms: C_5  and  N_6 
REMARK    3  A    between atoms: C_10  and  C_11 
REMARK    4  A    between atoms: C_11  and  C_12 
REMARK    5  A    between atoms: N_21  and  C_22 
REMARK    6  A    between atoms: C_22  and  C_23 
ROOT
HETATM    1  C   UNL     1      -7.830   3.113 -32.279  1.00  0.00     0.164 C 
HETATM    2  N   UNL     1      -7.633   4.392 -31.603  1.00  0.00    -0.319 N 
HETATM    3  C   UNL     1      -6.816   5.241 -32.311  1.00  0.00     0.326 C 
HETATM    4  O   UNL     1      -6.672   6.424 -32.062  1.00  0.00    -0.247 OA
HETATM    5  N   UNL     1      -6.216   4.532 -33.298  1.00  0.00    -0.265 N 
HETATM    6  C   UNL     1      -6.744   3.275 -33.360  1.00  0.00     0.263 C 
HETATM    7  O   UNL     1      -6.385   2.388 -34.126  1.00  0.00    -0.270 OA
HETATM    8  H   UNL     1      -8.346   4.793 -31.001  1.00  0.00     0.166 HD
ENDROOT
BRANCH   1   9
HETATM    9  C   UNL     1      -7.576   1.936 -31.266  1.00  0.00     0.033 C 
HETATM   10  C   UNL     1      -6.147   1.830 -30.707  1.00  0.00     0.036 C 
HETATM   11  C   UNL     1      -5.135   1.196 -31.647  1.00  0.00     0.235 C 
HETATM   12  N   UNL     1      -5.624  -0.101 -32.243  1.00  0.00    -0.067 N 
HETATM   13  H   UNL     1      -5.511  -0.807 -31.506  1.00  0.00     0.280 HD
HETATM   14  C   UNL     1      -7.064  -0.150 -32.693  1.00  0.00     0.235 C 
HETATM   15  C   UNL     1      -8.002   0.528 -31.714  1.00  0.00     0.036 C 
BRANCH  12  16
HETATM   16  C   UNL     1      -4.735  -0.557 -33.405  1.00  0.00     0.274 C 
BRANCH  16  17
HETATM   17  C   UNL     1      -4.634  -2.053 -33.572  1.00  0.00    -0.026 A 
HETATM   18  C   UNL     1      -5.518  -2.685 -34.474  1.00  0.00     0.016 A 
HETATM   19  C   UNL     1      -5.447  -4.057 -34.728  1.00  0.00    -0.061 A 
HETATM   20  C   UNL     1      -6.380  -4.720 -35.698  1.00  0.00     0.048 C 
HETATM   21  C   UNL     1      -4.494  -4.816 -34.047  1.00  0.00     0.007 A 
HETATM   22  C   UNL     1      -3.629  -4.212 -33.133  1.00  0.00     0.008 A 
HETATM   23  C   UNL     1      -3.677  -2.830 -32.890  1.00  0.00    -0.054 A 
HETATM   24  C   UNL     1      -2.757  -2.253 -31.850  1.00  0.00     0.049 C 
ENDBRANCH  16  17
ENDBRANCH  12  16
ENDBRANCH   1   9
BRANCH   1  25
HETATM   25  C   UNL     1      -9.253   3.091 -32.837  1.00  0.00     0.072 A 
HETATM   26  N   UNL     1     -10.222   3.450 -31.949  1.00  0.00    -0.262 NA
HETATM   27  C   UNL     1     -11.502   3.499 -32.386  1.00  0.00     0.117 A 
HETATM   28  C   UNL     1     -11.881   3.194 -33.678  1.00  0.00     0.019 A 
HETATM   29  C   UNL     1     -10.890   2.821 -34.577  1.00  0.00     0.003 A 
HETATM   30  C   UNL     1      -9.561   2.770 -34.160  1.00  0.00     0.030 A 
ENDBRANCH   1  25
BRANCH   5  31
HETATM   31  C   UNL     1      -5.246   5.070 -34.235  1.00  0.00     0.168 C 
BRANCH  31  32
HETATM   32  C   UNL     1      -3.937   5.483 -33.551  1.00  0.00     0.140 C 
HETATM   33  O   UNL     1      -3.133   6.276 -34.452  1.00  0.00    -0.384 OA
HETATM   34  C   UNL     1      -1.838   5.674 -34.563  1.00  0.00     0.168 C 
HETATM   35  C   UNL     1      -1.684   4.783 -33.353  1.00  0.00     0.029 C 
HETATM   36  C   UNL     1      -3.091   4.275 -33.164  1.00  0.00     0.036 C 
ENDBRANCH  31  32
ENDBRANCH   5  31
TORSDOF 6
ENDMDL
MODEL 3
REMARK VINA RESULT:      -9.5      0.611      1.575
REMARK  6 active torsions:
REMARK  status: ('A' for Active; 'I' for Inactive)
REMARK    1  A    between atoms: C_4  and  C_5 
REMARK    2  A    between atoms: C_5  and  N_6 
REMARK    3  A    between atoms: C_10  and  C_11 
REMARK    4  A    between atoms: C_11  and  C_12 
REMARK    5  A    between atoms: N_21  and  C_22 
REMARK    6  A    between atoms: C_22  and  C_23 
ROOT
HETATM    1  C   UNL     1      -6.797   2.048 -32.356  1.00  0.00     0.164 C 
HETATM    2  N   UNL     1      -7.333   3.097 -33.218  1.00  0.00    -0.319 N 
HETATM    3  C   UNL     1      -6.431   4.111 -33.436  1.00  0.00     0.326 C 
HETATM    4  O   UNL     1      -6.564   4.982 -34.276  1.00  0.00    -0.247 OA
HETATM    5  N   UNL     1      -5.405   3.965 -32.561  1.00  0.00    -0.265 N 
HETATM    6  C   UNL     1      -5.530   2.786 -31.885  1.00  0.00     0.263 C 
HETATM    7  O   UNL     1      -4.778   2.387 -31.003  1.00  0.00    -0.270 OA
HETATM    8  H   UNL     1      -8.022   2.897 -33.937  1.00  0.00     0.166 HD
ENDROOT
BRANCH   1   9
HETATM    9  C   UNL     1      -7.830   1.724 -31.214  1.00  0.00     0.033 C 
HETATM   10  C   UNL     1      -8.950   0.738 -31.584  1.00  0.00     0.036 C 
HETATM   11  C   UNL     1     -10.087   1.333 -32.399  1.00  0.00     0.235 C 
HETATM   12  N   UNL     1     -10.615   2.619 -31.813  1.00  0.00    -0.067 N 
HETATM   13  H   UNL     1     -11.211   2.342 -31.024  1.00  0.00     0.280 HD
HETATM   14  C   UNL     1      -9.598   3.601 -31.284  1.00  0.00     0.235 C 
HETATM   15  C   UNL     1      -8.485   2.923 -30.508  1.00  0.00     0.036 C 
BRANCH  12  16
HETATM   16  C   UNL     1     -11.532   3.352 -32.799  1.00  0.00     0.274 C 
BRANCH  16  17
HETATM   17  C   UNL     1     -12.987   2.965 -32.711  1.00  0.00    -0.026 A 
HETATM   18  C   UNL     1     -13.475   1.991 -33.611  1.00  0.00     0.016 A 
HETATM   19  C   UNL     1     -14.795   1.538 -33.553  1.00  0.00    -0.061 A 
HETATM   20  C   UNL     1     -15.302   0.492 -34.502  1.00  0.00     0.048 C 
HETATM   21  C   UNL     1     -15.651   2.087 -32.598  1.00  0.00     0.007 A 
HETATM   22  C   UNL     1     -15.193   3.068 -31.717  1.00  0.00     0.008 A 
HETATM   23  C   UNL     1     -13.862   3.513 -31.752  1.00  0.00    -0.054 A 
HETATM   24  C   UNL     1     -13.449   4.615 -30.816  1.00  0.00     0.049 C 
ENDBRANCH  16  17
ENDBRANCH  12  16
ENDBRANCH   1   9
BRANCH   1  25
HETATM   25  C   UNL     1      -6.506   0.825 -33.228  1.00  0.00     0.072 A 
HETATM   26  N   UNL     1      -5.752  -0.138 -32.630  1.00  0.00    -0.262 NA
HETATM   27  C   UNL     1      -5.494  -1.270 -33.325  1.00  0.00     0.117 A 
HETATM   28  C   UNL     1      -5.942  -1.496 -34.611  1.00  0.00     0.019 A 
HETATM   29  C   UNL     1      -6.705  -0.507 -35.219  1.00  0.00     0.003 A 
HETATM   30  C   UNL     1      -6.996   0.666 -34.525  1.00  0.00     0.030 A 
ENDBRANCH   1  25
BRANCH   5  31
HETATM   31  C   UNL     1      -4.273   4.868 -32.451  1.00  0.00     0.168 C 
BRANCH  31  32
HETATM   32  C   UNL     1      -3.086   4.427 -33.315  1.00  0.00     0.140 C 
HETATM   33  O   UNL     1      -1.844   4.689 -32.627  1.00  0.00    -0.384 OA
HETATM   34  C   UNL     1      -1.009   5.488 -33.474  1.00  0.00     0.168 C 
HETATM   35  C   UNL     1      -1.540   5.310 -34.876  1.00  0.00     0.029 C 
HETATM   36  C   UNL     1      -3.024   5.194 -34.631  1.00  0.00     0.036 C 
ENDBRANCH  31  32
ENDBRANCH   5  31
TORSDOF 6
ENDMDL
MODEL 4
REMARK VINA RESULT:      -9.1      2.954      8.650
REMARK  6 active torsions:
REMARK  status: ('A' for Active; 'I' for Inactive)
REMARK    1  A    between atoms: C_4  and  C_5 
REMARK    2  A    between atoms: C_5  and  N_6 
REMARK    3  A    between atoms: C_10  and  C_11 
REMARK    4  A    between atoms: C_11  and  C_12 
REMARK    5  A    between atoms: N_21  and  C_22 
REMARK    6  A    between atoms: C_22  and  C_23 
ROOT
HETATM    1  C   UNL     1      -9.450   3.195 -32.031  1.00  0.00     0.164 C 
HETATM    2  N   UNL     1      -9.783   2.711 -33.367  1.00  0.00    -0.319 N 
HETATM    3  C   UNL     1     -11.034   3.111 -33.775  1.00  0.00     0.326 C 
HETATM    4  O   UNL     1     -11.451   3.013 -34.914  1.00  0.00    -0.247 OA
HETATM    5  N   UNL     1     -11.694   3.608 -32.700  1.00  0.00    -0.265 N 
HETATM    6  C   UNL     1     -10.850   3.699 -31.631  1.00  0.00     0.263 C 
HETATM    7  O   UNL     1     -11.160   4.079 -30.508  1.00  0.00    -0.270 OA
HETATM    8  H   UNL     1      -9.070   2.556 -34.073  1.00  0.00     0.166 HD
ENDROOT
BRANCH   1   9
HETATM    9  C   UNL     1      -8.909   2.003 -31.158  1.00  0.00     0.033 C 
HETATM   10  C   UNL     1      -7.411   2.051 -30.814  1.00  0.00     0.036 C 
HETATM   11  C   UNL     1      -6.480   1.612 -31.933  1.00  0.00     0.235 C 
HETATM   12  N   UNL     1      -6.892   0.300 -32.554  1.00  0.00    -0.067 N 
HETATM   13  H   UNL     1      -6.586  -0.427 -31.897  1.00  0.00     0.280 HD
HETATM   14  C   UNL     1      -8.366   0.090 -32.801  1.00  0.00     0.235 C 
HETATM   15  C   UNL     1      -9.224   0.581 -31.650  1.00  0.00     0.036 C 
BRANCH  12  16
HETATM   16  C   UNL     1      -6.137   0.035 -33.861  1.00  0.00     0.274 C 
BRANCH  16  17
HETATM   17  C   UNL     1      -5.563  -1.355 -33.986  1.00  0.00    -0.026 A 
HETATM   18  C   UNL     1      -6.336  -2.339 -34.642  1.00  0.00     0.016 A 
HETATM   19  C   UNL     1      -5.849  -3.632 -34.850  1.00  0.00    -0.061 A 
HETATM   20  C   UNL     1      -6.669  -4.669 -35.560  1.00  0.00     0.048 C 
HETATM   21  C   UNL     1      -4.580  -3.956 -34.370  1.00  0.00     0.007 A 
HETATM   22  C   UNL     1      -3.813  -3.003 -33.697  1.00  0.00     0.008 A 
HETATM   23  C   UNL     1      -4.283  -1.695 -33.504  1.00  0.00    -0.054 A 
HETATM   24  C   UNL     1      -3.433  -0.735 -32.719  1.00  0.00     0.049 C 
ENDBRANCH  16  17
ENDBRANCH  12  16
ENDBRANCH   1   9
BRANCH   1  25
HETATM   25  C   UNL     1      -8.415   4.311 -32.180  1.00  0.00     0.072 A 
HETATM   26  N   UNL     1      -7.763   4.331 -33.376  1.00  0.00    -0.262 NA
HETATM   27  C   UNL     1      -6.867   5.319 -33.599  1.00  0.00     0.117 A 
HETATM   28  C   UNL     1      -6.568   6.302 -32.676  1.00  0.00     0.019 A 
HETATM   29  C   UNL     1      -7.230   6.274 -31.455  1.00  0.00     0.003 A 
HETATM   30  C   UNL     1      -8.167   5.272 -31.200  1.00  0.00     0.030 A 
ENDBRANCH   1  25
BRANCH   5  31
HETATM   31  C   UNL     1     -13.063   4.095 -32.718  1.00  0.00     0.168 C 
BRANCH  31  32
HETATM   32  C   UNL     1     -14.039   3.122 -32.047  1.00  0.00     0.140 C 
HETATM   33  O   UNL     1     -14.077   1.874 -32.774  1.00  0.00    -0.384 OA
HETATM   34  C   UNL     1     -15.436   1.588 -33.125  1.00  0.00     0.168 C 
HETATM   35  C   UNL     1     -16.293   2.411 -32.193  1.00  0.00     0.029 C 
HETATM   36  C   UNL     1     -15.465   3.662 -32.037  1.00  0.00     0.036 C 
ENDBRANCH  31  32
ENDBRANCH   5  31
TORSDOF 6
ENDMDL
MODEL 5
REMARK VINA RESULT:      -9.1      2.379      7.002
REMARK  6 active torsions:
REMARK  status: ('A' for Active; 'I' for Inactive)
REMARK    1  A    between atoms: C_4  and  C_5 
REMARK    2  A    between atoms: C_5  and  N_6 
REMARK    3  A    between atoms: C_10  and  C_11 
REMARK    4  A    between atoms: C_11  and  C_12 
REMARK    5  A    between atoms: N_21  and  C_22 
REMARK    6  A    between atoms: C_22  and  C_23 
ROOT
HETATM    1  C   UNL     1      -9.424   3.191 -32.732  1.00  0.00     0.164 C 
HETATM    2  N   UNL     1      -9.443   3.767 -31.390  1.00  0.00    -0.319 N 
HETATM    3  C   UNL     1      -8.321   4.515 -31.122  1.00  0.00     0.326 C 
HETATM    4  O   UNL     1      -8.200   5.257 -30.165  1.00  0.00    -0.247 OA
HETATM    5  N   UNL     1      -7.403   4.269 -32.090  1.00  0.00    -0.265 N 
HETATM    6  C   UNL     1      -7.955   3.506 -33.077  1.00  0.00     0.263 C 
HETATM    7  O   UNL     1      -7.368   3.090 -34.069  1.00  0.00    -0.270 OA
HETATM    8  H   UNL     1     -10.313   4.013 -30.927  1.00  0.00     0.166 HD
ENDROOT
BRANCH   1   9
HETATM    9  C   UNL     1      -9.765   1.658 -32.652  1.00  0.00     0.033 C 
HETATM   10  C   UNL     1      -8.973   0.848 -31.613  1.00  0.00     0.036 C 
HETATM   11  C   UNL     1      -7.558   0.479 -32.028  1.00  0.00     0.235 C 
HETATM   12  N   UNL     1      -7.494  -0.128 -33.407  1.00  0.00    -0.067 N 
HETATM   13  H   UNL     1      -7.809  -1.099 -33.300  1.00  0.00     0.280 HD
HETATM   14  C   UNL     1      -8.351   0.506 -34.476  1.00  0.00     0.235 C 
HETATM   15  C   UNL     1      -9.735   0.869 -33.972  1.00  0.00     0.036 C 
BRANCH  12  16
HETATM   16  C   UNL     1      -6.052  -0.204 -33.922  1.00  0.00     0.274 C 
BRANCH  16  17
HETATM   17  C   UNL     1      -5.477  -1.598 -33.977  1.00  0.00    -0.026 A 
HETATM   18  C   UNL     1      -6.163  -2.574 -34.732  1.00  0.00     0.016 A 
HETATM   19  C   UNL     1      -5.661  -3.870 -34.881  1.00  0.00    -0.061 A 
HETATM   20  C   UNL     1      -6.388  -4.899 -35.697  1.00  0.00     0.048 C 
HETATM   21  C   UNL     1      -4.468  -4.204 -34.241  1.00  0.00     0.007 A 
HETATM   22  C   UNL     1      -3.789  -3.258 -33.469  1.00  0.00     0.008 A 
HETATM   23  C   UNL     1      -4.273  -1.948 -33.334  1.00  0.00    -0.054 A 
HETATM   24  C   UNL     1      -3.525  -0.996 -32.441  1.00  0.00     0.049 C 
ENDBRANCH  16  17
ENDBRANCH  12  16
ENDBRANCH   1   9
BRANCH   1  25
HETATM   25  C   UNL     1     -10.433   3.959 -33.587  1.00  0.00     0.072 A 
HETATM   26  N   UNL     1      -9.882   4.769 -34.534  1.00  0.00    -0.262 NA
HETATM   27  C   UNL     1     -10.714   5.444 -35.360  1.00  0.00     0.117 A 
HETATM   28  C   UNL     1     -12.090   5.367 -35.287  1.00  0.00     0.019 A 
HETATM   29  C   UNL     1     -12.648   4.547 -34.314  1.00  0.00     0.003 A 
HETATM   30  C   UNL     1     -11.816   3.831 -33.454  1.00  0.00     0.030 A 
ENDBRANCH   1  25
BRANCH   5  31
HETATM   31  C   UNL     1      -6.069   4.842 -32.133  1.00  0.00     0.168 C 
BRANCH  31  32
HETATM   32  C   UNL     1      -5.079   4.087 -31.239  1.00  0.00     0.140 C 
HETATM   33  O   UNL     1      -3.851   4.838 -31.111  1.00  0.00    -0.384 OA
HETATM   34  C   UNL     1      -2.756   3.999 -31.499  1.00  0.00     0.168 C 
HETATM   35  C   UNL     1      -3.260   2.579 -31.401  1.00  0.00     0.029 C 
HETATM   36  C   UNL     1      -4.699   2.732 -31.827  1.00  0.00     0.036 C 
ENDBRANCH  31  32
ENDBRANCH   5  31
TORSDOF 6
ENDMDL
MODEL 6
REMARK VINA RESULT:      -9.0      2.772      8.577
REMARK  6 active torsions:
REMARK  status: ('A' for Active; 'I' for Inactive)
REMARK    1  A    between atoms: C_4  and  C_5 
REMARK    2  A    between atoms: C_5  and  N_6 
REMARK    3  A    between atoms: C_10  and  C_11 
REMARK    4  A    between atoms: C_11  and  C_12 
REMARK    5  A    between atoms: N_21  and  C_22 
REMARK    6  A    between atoms: C_22  and  C_23 
ROOT
HETATM    1  C   UNL     1      -7.537   2.584 -31.634  1.00  0.00     0.164 C 
HETATM    2  N   UNL     1      -6.859   2.951 -32.874  1.00  0.00    -0.319 N 
HETATM    3  C   UNL     1      -6.880   1.940 -33.804  1.00  0.00     0.326 C 
HETATM    4  O   UNL     1      -6.569   2.074 -34.974  1.00  0.00    -0.247 OA
HETATM    5  N   UNL     1      -7.290   0.803 -33.190  1.00  0.00    -0.265 N 
HETATM    6  C   UNL     1      -7.698   1.078 -31.917  1.00  0.00     0.263 C 
HETATM    7  O   UNL     1      -8.091   0.253 -31.100  1.00  0.00    -0.270 OA
HETATM    8  H   UNL     1      -6.827   3.912 -33.201  1.00  0.00     0.166 HD
ENDROOT
BRANCH   1   9
HETATM    9  C   UNL     1      -6.616   2.926 -30.407  1.00  0.00     0.033 C 
HETATM   10  C   UNL     1      -6.023   4.345 -30.389  1.00  0.00     0.036 C 
HETATM   11  C   UNL     1      -4.826   4.553 -31.303  1.00  0.00     0.235 C 
HETATM   12  N   UNL     1      -3.776   3.482 -31.143  1.00  0.00    -0.067 N 
HETATM   13  H   UNL     1      -3.268   3.716 -30.283  1.00  0.00     0.280 HD
HETATM   14  C   UNL     1      -4.261   2.059 -31.005  1.00  0.00     0.235 C 
HETATM   15  C   UNL     1      -5.473   1.944 -30.099  1.00  0.00     0.036 C 
BRANCH  12  16
HETATM   16  C   UNL     1      -2.742   3.535 -32.273  1.00  0.00     0.274 C 
BRANCH  16  17
HETATM   17  C   UNL     1      -1.974   4.831 -32.364  1.00  0.00    -0.026 A 
HETATM   18  C   UNL     1      -1.239   5.252 -31.234  1.00  0.00     0.016 A 
HETATM   19  C   UNL     1      -0.455   6.409 -31.261  1.00  0.00    -0.061 A 
HETATM   20  C   UNL     1       0.335   6.843 -30.062  1.00  0.00     0.048 C 
HETATM   21  C   UNL     1      -0.429   7.173 -32.428  1.00  0.00     0.007 A 
HETATM   22  C   UNL     1      -1.170   6.785 -33.546  1.00  0.00     0.008 A 
HETATM   23  C   UNL     1      -1.940   5.612 -33.536  1.00  0.00    -0.054 A 
HETATM   24  C   UNL     1      -2.761   5.283 -34.753  1.00  0.00     0.049 C 
ENDBRANCH  16  17
ENDBRANCH  12  16
ENDBRANCH   1   9
BRANCH   1  25
HETATM   25  C   UNL     1      -8.864   3.344 -31.583  1.00  0.00     0.072 A 
HETATM   26  N   UNL     1      -9.186   4.012 -32.726  1.00  0.00    -0.262 NA
HETATM   27  C   UNL     1     -10.368   4.667 -32.772  1.00  0.00     0.117 A 
HETATM   28  C   UNL     1     -11.261   4.707 -31.719  1.00  0.00     0.019 A 
HETATM   29  C   UNL     1     -10.925   4.031 -30.553  1.00  0.00     0.003 A 
HETATM   30  C   UNL     1      -9.718   3.338 -30.479  1.00  0.00     0.030 A 
ENDBRANCH   1  25
BRANCH   5  31
HETATM   31  C   UNL     1      -7.402  -0.495 -33.833  1.00  0.00     0.168 C 
BRANCH  31  32
HETATM   32  C   UNL     1      -6.055  -1.007 -34.356  1.00  0.00     0.140 C 
HETATM   33  O   UNL     1      -6.241  -2.237 -35.091  1.00  0.00    -0.384 OA
HETATM   34  C   UNL     1      -5.388  -3.241 -34.530  1.00  0.00     0.168 C 
HETATM   35  C   UNL     1      -4.318  -2.503 -33.762  1.00  0.00     0.029 C 
HETATM   36  C   UNL     1      -5.086  -1.322 -33.222  1.00  0.00     0.036 C 
ENDBRANCH  31  32
ENDBRANCH   5  31
TORSDOF 6
ENDMDL
MODEL 7
REMARK VINA RESULT:      -8.9      2.154      3.117
REMARK  6 active torsions:
REMARK  status: ('A' for Active; 'I' for Inactive)
REMARK    1  A    between atoms: C_4  and  C_5 
REMARK    2  A    between atoms: C_5  and  N_6 
REMARK    3  A    between atoms: C_10  and  C_11 
REMARK    4  A    between atoms: C_11  and  C_12 
REMARK    5  A    between atoms: N_21  and  C_22 
REMARK    6  A    between atoms: C_22  and  C_23 
ROOT
HETATM    1  C   UNL     1      -5.766   2.147 -32.518  1.00  0.00     0.164 C 
HETATM    2  N   UNL     1      -6.412   3.366 -32.996  1.00  0.00    -0.319 N 
HETATM    3  C   UNL     1      -5.517   4.258 -33.538  1.00  0.00     0.326 C 
HETATM    4  O   UNL     1      -5.831   5.241 -34.184  1.00  0.00    -0.247 OA
HETATM    5  N   UNL     1      -4.263   3.851 -33.220  1.00  0.00    -0.265 N 
HETATM    6  C   UNL     1      -4.305   2.625 -32.623  1.00  0.00     0.263 C 
HETATM    7  O   UNL     1      -3.338   2.009 -32.190  1.00  0.00    -0.270 OA
HETATM    8  H   UNL     1      -7.367   3.365 -33.341  1.00  0.00     0.166 HD
ENDROOT
BRANCH   1   9
HETATM    9  C   UNL     1      -6.250   1.831 -31.056  1.00  0.00     0.033 C 
HETATM   10  C   UNL     1      -7.495   0.937 -30.940  1.00  0.00     0.036 C 
HETATM   11  C   UNL     1      -8.818   1.642 -31.191  1.00  0.00     0.235 C 
HETATM   12  N   UNL     1      -8.952   2.927 -30.412  1.00  0.00    -0.067 N 
HETATM   13  H   UNL     1      -9.184   2.648 -29.451  1.00  0.00     0.280 HD
HETATM   14  C   UNL     1      -7.734   3.815 -30.339  1.00  0.00     0.235 C 
HETATM   15  C   UNL     1      -6.455   3.031 -30.116  1.00  0.00     0.036 C 
BRANCH  12  16
HETATM   16  C   UNL     1     -10.136   3.764 -30.906  1.00  0.00     0.274 C 
BRANCH  16  17
HETATM   17  C   UNL     1     -10.308   3.789 -32.405  1.00  0.00    -0.026 A 
HETATM   18  C   UNL     1     -11.028   2.736 -33.012  1.00  0.00     0.016 A 
HETATM   19  C   UNL     1     -11.281   2.720 -34.386  1.00  0.00    -0.061 A 
HETATM   20  C   UNL     1     -12.059   1.606 -35.023  1.00  0.00     0.048 C 
HETATM   21  C   UNL     1     -10.781   3.759 -35.171  1.00  0.00     0.007 A 
HETATM   22  C   UNL     1     -10.045   4.795 -34.592  1.00  0.00     0.008 A 
HETATM   23  C   UNL     1      -9.807   4.832 -33.209  1.00  0.00    -0.054 A 
HETATM   24  C   UNL     1      -8.958   5.943 -32.657  1.00  0.00     0.049 C 
ENDBRANCH  16  17
ENDBRANCH  12  16
ENDBRANCH   1   9
BRANCH   1  25
HETATM   25  C   UNL     1      -6.113   1.020 -33.492  1.00  0.00     0.072 A 
HETATM   26  N   UNL     1      -5.426  -0.140 -33.294  1.00  0.00    -0.262 NA
HETATM   27  C   UNL     1      -5.715  -1.196 -34.088  1.00  0.00     0.117 A 
HETATM   28  C   UNL     1      -6.658  -1.160 -35.096  1.00  0.00     0.019 A 
HETATM   29  C   UNL     1      -7.351   0.027 -35.299  1.00  0.00     0.003 A 
HETATM   30  C   UNL     1      -7.082   1.130 -34.490  1.00  0.00     0.030 A 
ENDBRANCH   1  25
BRANCH   5  31
HETATM   31  C   UNL     1      -3.046   4.558 -33.578  1.00  0.00     0.168 C 
BRANCH  31  32
HETATM   32  C   UNL     1      -2.590   5.531 -32.485  1.00  0.00     0.140 C 
HETATM   33  O   UNL     1      -3.016   6.874 -32.805  1.00  0.00    -0.384 OA
HETATM   34  C   UNL     1      -1.870   7.734 -32.795  1.00  0.00     0.168 C 
HETATM   35  C   UNL     1      -0.813   7.016 -31.992  1.00  0.00     0.029 C 
HETATM   36  C   UNL     1      -1.071   5.576 -32.359  1.00  0.00     0.036 C 
ENDBRANCH  31  32
ENDBRANCH   5  31
TORSDOF 6
ENDMDL
MODEL 8
REMARK VINA RESULT:      -8.8      3.166      8.064
REMARK  6 active torsions:
REMARK  status: ('A' for Active; 'I' for Inactive)
REMARK    1  A    between atoms: C_4  and  C_5 
REMARK    2  A    between atoms: C_5  and  N_6 
REMARK    3  A    between atoms: C_10  and  C_11 
REMARK    4  A    between atoms: C_11  and  C_12 
REMARK    5  A    between atoms: N_21  and  C_22 
REMARK    6  A    between atoms: C_22  and  C_23 
ROOT
HETATM    1  C   UNL     1      -8.732   4.035 -31.457  1.00  0.00     0.164 C 
HETATM    2  N   UNL     1      -8.340   3.943 -32.860  1.00  0.00    -0.319 N 
HETATM    3  C   UNL     1      -9.338   4.346 -33.715  1.00  0.00     0.326 C 
HETATM    4  O   UNL     1      -9.184   4.556 -34.904  1.00  0.00    -0.247 OA
HETATM    5  N   UNL     1     -10.489   4.453 -33.005  1.00  0.00    -0.265 N 
HETATM    6  C   UNL     1     -10.236   4.290 -31.674  1.00  0.00     0.263 C 
HETATM    7  O   UNL     1     -11.078   4.297 -30.783  1.00  0.00    -0.270 OA
HETATM    8  H   UNL     1      -7.374   4.057 -33.154  1.00  0.00     0.166 HD
ENDROOT
BRANCH   1   9
HETATM    9  C   UNL     1      -8.395   2.685 -30.725  1.00  0.00     0.033 C 
HETATM   10  C   UNL     1      -6.901   2.402 -30.496  1.00  0.00     0.036 C 
HETATM   11  C   UNL     1      -6.150   1.891 -31.715  1.00  0.00     0.235 C 
HETATM   12  N   UNL     1      -6.858   0.750 -32.401  1.00  0.00    -0.067 N 
HETATM   13  H   UNL     1      -6.669  -0.081 -31.828  1.00  0.00     0.280 HD
HETATM   14  C   UNL     1      -8.356   0.861 -32.548  1.00  0.00     0.235 C 
HETATM   15  C   UNL     1      -9.024   1.405 -31.299  1.00  0.00     0.036 C 
BRANCH  12  16
HETATM   16  C   UNL     1      -6.254   0.460 -33.779  1.00  0.00     0.274 C 
BRANCH  16  17
HETATM   17  C   UNL     1      -5.668  -0.921 -33.932  1.00  0.00    -0.026 A 
HETATM   18  C   UNL     1      -6.480  -1.934 -34.490  1.00  0.00     0.016 A 
HETATM   19  C   UNL     1      -5.989  -3.222 -34.719  1.00  0.00    -0.061 A 
HETATM   20  C   UNL     1      -6.853  -4.288 -35.325  1.00  0.00     0.048 C 
HETATM   21  C   UNL     1      -4.673  -3.511 -34.359  1.00  0.00     0.007 A 
HETATM   22  C   UNL     1      -3.864  -2.530 -33.783  1.00  0.00     0.008 A 
HETATM   23  C   UNL     1      -4.340  -1.227 -33.571  1.00  0.00    -0.054 A 
HETATM   24  C   UNL     1      -3.437  -0.234 -32.893  1.00  0.00     0.049 C 
ENDBRANCH  16  17
ENDBRANCH  12  16
ENDBRANCH   1   9
BRANCH   1  25
HETATM   25  C   UNL     1      -7.992   5.223 -30.840  1.00  0.00     0.072 A 
HETATM   26  N   UNL     1      -7.051   5.792 -31.645  1.00  0.00    -0.262 NA
HETATM   27  C   UNL     1      -6.389   6.878 -31.185  1.00  0.00     0.117 A 
HETATM   28  C   UNL     1      -6.605   7.432 -29.939  1.00  0.00     0.019 A 
HETATM   29  C   UNL     1      -7.559   6.844 -29.119  1.00  0.00     0.003 A 
HETATM   30  C   UNL     1      -8.265   5.729 -29.569  1.00  0.00     0.030 A 
ENDBRANCH   1  25
BRANCH   5  31
HETATM   31  C   UNL     1     -11.779   4.816 -33.566  1.00  0.00     0.168 C 
BRANCH  31  32
HETATM   32  C   UNL     1     -12.593   3.592 -34.002  1.00  0.00     0.140 C 
HETATM   33  O   UNL     1     -12.213   2.437 -33.222  1.00  0.00    -0.384 OA
HETATM   34  C   UNL     1     -11.834   1.384 -34.116  1.00  0.00     0.168 C 
HETATM   35  C   UNL     1     -12.444   1.727 -35.453  1.00  0.00     0.029 C 
HETATM   36  C   UNL     1     -12.341   3.232 -35.462  1.00  0.00     0.036 C 
ENDBRANCH  31  32
ENDBRANCH   5  31
TORSDOF 6
ENDMDL
MODEL 9
REMARK VINA RESULT:      -8.6      3.680      6.860
REMARK  6 active torsions:
REMARK  status: ('A' for Active; 'I' for Inactive)
REMARK    1  A    between atoms: C_4  and  C_5 
REMARK    2  A    between atoms: C_5  and  N_6 
REMARK    3  A    between atoms: C_10  and  C_11 
REMARK    4  A    between atoms: C_11  and  C_12 
REMARK    5  A    between atoms: N_21  and  C_22 
REMARK    6  A    between atoms: C_22  and  C_23 
ROOT
HETATM    1  C   UNL     1      -5.609   4.465 -32.165  1.00  0.00     0.164 C 
HETATM    2  N   UNL     1      -4.860   3.307 -31.686  1.00  0.00    -0.319 N 
HETATM    3  C   UNL     1      -3.500   3.501 -31.738  1.00  0.00     0.326 C 
HETATM    4  O   UNL     1      -2.680   2.775 -31.208  1.00  0.00    -0.247 OA
HETATM    5  N   UNL     1      -3.256   4.612 -32.477  1.00  0.00    -0.265 N 
HETATM    6  C   UNL     1      -4.428   5.246 -32.773  1.00  0.00     0.263 C 
HETATM    7  O   UNL     1      -4.539   6.258 -33.455  1.00  0.00    -0.270 OA
HETATM    8  H   UNL     1      -5.235   2.685 -30.976  1.00  0.00     0.166 HD
ENDROOT
BRANCH   1   9
HETATM    9  C   UNL     1      -6.692   3.999 -33.206  1.00  0.00     0.033 C 
HETATM   10  C   UNL     1      -8.045   3.567 -32.617  1.00  0.00     0.036 C 
HETATM   11  C   UNL     1      -8.069   2.171 -32.017  1.00  0.00     0.235 C 
HETATM   12  N   UNL     1      -7.476   1.131 -32.935  1.00  0.00    -0.067 N 
HETATM   13  H   UNL     1      -8.199   0.935 -33.637  1.00  0.00     0.280 HD
HETATM   14  C   UNL     1      -6.218   1.508 -33.679  1.00  0.00     0.235 C 
HETATM   15  C   UNL     1      -6.266   2.924 -34.220  1.00  0.00     0.036 C 
BRANCH  12  16
HETATM   16  C   UNL     1      -7.229  -0.192 -32.201  1.00  0.00     0.274 C 
BRANCH  16  17
HETATM   17  C   UNL     1      -6.287  -1.136 -32.905  1.00  0.00    -0.026 A 
HETATM   18  C   UNL     1      -6.818  -1.997 -33.891  1.00  0.00     0.016 A 
HETATM   19  C   UNL     1      -6.000  -2.857 -34.628  1.00  0.00    -0.061 A 
HETATM   20  C   UNL     1      -6.568  -3.759 -35.684  1.00  0.00     0.048 C 
HETATM   21  C   UNL     1      -4.632  -2.878 -34.356  1.00  0.00     0.007 A 
HETATM   22  C   UNL     1      -4.093  -2.051 -33.368  1.00  0.00     0.008 A 
HETATM   23  C   UNL     1      -4.904  -1.167 -32.639  1.00  0.00    -0.054 A 
HETATM   24  C   UNL     1      -4.271  -0.348 -31.548  1.00  0.00     0.049 C 
ENDBRANCH  16  17
ENDBRANCH  12  16
ENDBRANCH   1   9
BRANCH   1  25
HETATM   25  C   UNL     1      -6.239   5.151 -30.951  1.00  0.00     0.072 A 
HETATM   26  N   UNL     1      -6.806   6.363 -31.210  1.00  0.00    -0.262 NA
HETATM   27  C   UNL     1      -7.424   7.008 -30.194  1.00  0.00     0.117 A 
HETATM   28  C   UNL     1      -7.501   6.512 -28.908  1.00  0.00     0.019 A 
HETATM   29  C   UNL     1      -6.914   5.280 -28.648  1.00  0.00     0.003 A 
HETATM   30  C   UNL     1      -6.278   4.587 -29.676  1.00  0.00     0.030 A 
ENDBRANCH   1  25
BRANCH   5  31
HETATM   31  C   UNL     1      -1.935   5.122 -32.797  1.00  0.00     0.168 C 
BRANCH  31  32
HETATM   32  C   UNL     1      -1.548   6.328 -31.934  1.00  0.00     0.140 C 
HETATM   33  O   UNL     1      -0.284   6.872 -32.375  1.00  0.00    -0.384 OA
HETATM   34  C   UNL     1       0.611   6.921 -31.258  1.00  0.00     0.168 C 
HETATM   35  C   UNL     1      -0.255   6.862 -30.023  1.00  0.00     0.029 C 
HETATM   36  C   UNL     1      -1.367   5.945 -30.469  1.00  0.00     0.036 C 
ENDBRANCH  31  32
ENDBRANCH   5  31
TORSDOF 6
ENDMDL
MODEL 10
REMARK VINA RESULT:      -8.3      2.922      8.109
REMARK  6 active torsions:
REMARK  status: ('A' for Active; 'I' for Inactive)
REMARK    1  A    between atoms: C_4  and  C_5 
REMARK    2  A    between atoms: C_5  and  N_6 
REMARK    3  A    between atoms: C_10  and  C_11 
REMARK    4  A    between atoms: C_11  and  C_12 
REMARK    5  A    between atoms: N_21  and  C_22 
REMARK    6  A    between atoms: C_22  and  C_23 
ROOT
HETATM    1  C   UNL     1      -7.169   5.234 -32.127  1.00  0.00     0.164 C 
HETATM    2  N   UNL     1      -7.769   6.200 -33.042  1.00  0.00    -0.319 N 
HETATM    3  C   UNL     1      -9.096   5.938 -33.288  1.00  0.00     0.326 C 
HETATM    4  O   UNL     1      -9.858   6.707 -33.844  1.00  0.00    -0.247 OA
HETATM    5  N   UNL     1      -9.380   4.698 -32.819  1.00  0.00    -0.265 N 
HETATM    6  C   UNL     1      -8.315   4.204 -32.122  1.00  0.00     0.263 C 
HETATM    7  O   UNL     1      -8.253   3.094 -31.606  1.00  0.00    -0.270 OA
HETATM    8  H   UNL     1      -7.447   7.162 -33.090  1.00  0.00     0.166 HD
ENDROOT
BRANCH   1   9
HETATM    9  C   UNL     1      -5.816   4.706 -32.730  1.00  0.00     0.033 C 
HETATM   10  C   UNL     1      -5.931   3.920 -34.047  1.00  0.00     0.036 C 
HETATM   11  C   UNL     1      -6.389   2.478 -33.896  1.00  0.00     0.235 C 
HETATM   12  N   UNL     1      -5.619   1.728 -32.838  1.00  0.00    -0.067 N 
HETATM   13  H   UNL     1      -4.718   1.488 -33.266  1.00  0.00     0.280 HD
HETATM   14  C   UNL     1      -5.324   2.464 -31.553  1.00  0.00     0.235 C 
HETATM   15  C   UNL     1      -4.901   3.901 -31.791  1.00  0.00     0.036 C 
BRANCH  12  16
HETATM   16  C   UNL     1      -6.292   0.395 -32.491  1.00  0.00     0.274 C 
BRANCH  16  17
HETATM   17  C   UNL     1      -5.583  -0.825 -33.023  1.00  0.00    -0.026 A 
HETATM   18  C   UNL     1      -4.533  -1.376 -32.255  1.00  0.00     0.016 A 
HETATM   19  C   UNL     1      -3.869  -2.539 -32.651  1.00  0.00    -0.061 A 
HETATM   20  C   UNL     1      -2.764  -3.127 -31.823  1.00  0.00     0.048 C 
HETATM   21  C   UNL     1      -4.241  -3.148 -33.850  1.00  0.00     0.007 A 
HETATM   22  C   UNL     1      -5.259  -2.604 -34.635  1.00  0.00     0.008 A 
HETATM   23  C   UNL     1      -5.948  -1.449 -34.233  1.00  0.00    -0.054 A 
HETATM   24  C   UNL     1      -6.994  -0.881 -35.153  1.00  0.00     0.049 C 
ENDBRANCH  16  17
ENDBRANCH  12  16
ENDBRANCH   1   9
BRANCH   1  25
HETATM   25  C   UNL     1      -6.963   5.929 -30.780  1.00  0.00     0.072 A 
HETATM   26  N   UNL     1      -6.310   7.123 -30.846  1.00  0.00    -0.262 NA
HETATM   27  C   UNL     1      -6.134   7.818 -29.699  1.00  0.00     0.117 A 
HETATM   28  C   UNL     1      -6.567   7.378 -28.464  1.00  0.00     0.019 A 
HETATM   29  C   UNL     1      -7.225   6.157 -28.401  1.00  0.00     0.003 A 
HETATM   30  C   UNL     1      -7.431   5.421 -29.568  1.00  0.00     0.030 A 
ENDBRANCH   1  25
BRANCH   5  31
HETATM   31  C   UNL     1     -10.672   4.044 -32.930  1.00  0.00     0.168 C 
BRANCH  31  32
HETATM   32  C   UNL     1     -10.739   3.077 -34.118  1.00  0.00     0.140 C 
HETATM   33  O   UNL     1     -11.265   3.754 -35.281  1.00  0.00    -0.384 OA
HETATM   34  C   UNL     1     -12.392   3.016 -35.771  1.00  0.00     0.168 C 
HETATM   35  C   UNL     1     -12.263   1.624 -35.201  1.00  0.00     0.029 C 
HETATM   36  C   UNL     1     -11.669   1.901 -33.843  1.00  0.00     0.036 C 
ENDBRANCH  31  32
ENDBRANCH   5  31
TORSDOF 6
ENDMDL
