MODEL 1
REMARK VINA RESULT:      -9.3      0.000      0.000
REMARK  7 active torsions:
REMARK  status: ('A' for Active; 'I' for Inactive)
REMARK    1  A    between atoms: O_2  and  C_3 
REMARK    2  A    between atoms: C_6  and  C_7 
REMARK    3  A    between atoms: C_7  and  N_8 
REMARK    4  A    between atoms: C_7  and  C_25 
REMARK    5  A    between atoms: N_8  and  C_11 
REMARK    6  A    between atoms: C_11  and  C_12 
REMARK       I    between atoms: C_12  and  N_13 
REMARK    7  A    between atoms: N_13  and  C_14 
ROOT
HETATM    1  N   UNL     1      -7.584  -0.794 -34.892  1.00  0.00    -0.055 N 
HETATM    2  H   UNL     1      -7.697  -1.370 -35.741  1.00  0.00     0.278 HD
HETATM    3  H   UNL     1      -8.173  -1.273 -34.201  1.00  0.00     0.278 HD
ENDROOT
BRANCH   1   4
HETATM    4  C   UNL     1      -6.167  -0.832 -34.415  1.00  0.00     0.252 C 
BRANCH   4   5
HETATM    5  C   UNL     1      -5.871  -0.017 -33.157  1.00  0.00    -0.023 A 
HETATM    6  C   UNL     1      -5.236   1.238 -33.274  1.00  0.00     0.012 A 
HETATM    7  C   UNL     1      -4.982   2.043 -32.156  1.00  0.00     0.037 A 
HETATM    8  C   UNL     1      -5.382   1.627 -30.891  1.00  0.00     0.068 A 
HETATM    9  C   UNL     1      -6.036   0.403 -30.760  1.00  0.00     0.037 A 
HETATM   10  C   UNL     1      -6.289  -0.406 -31.873  1.00  0.00     0.012 A 
BRANCH   8  11
HETATM   11  O   UNL     1      -5.206   2.310 -29.722  1.00  0.00    -0.356 OA
HETATM   12  C   UNL     1      -5.643   3.664 -29.688  1.00  0.00     0.210 C 
ENDBRANCH   8  11
ENDBRANCH   4   5
BRANCH   4  13
HETATM   13  C   UNL     1      -5.674  -2.276 -34.414  1.00  0.00    -0.023 A 
HETATM   14  C   UNL     1      -6.544  -3.304 -34.825  1.00  0.00     0.009 A 
HETATM   15  C   UNL     1      -6.140  -4.638 -34.780  1.00  0.00     0.001 A 
HETATM   16  C   UNL     1      -4.868  -4.968 -34.319  1.00  0.00     0.000 A 
HETATM   17  C   UNL     1      -3.995  -3.965 -33.906  1.00  0.00     0.001 A 
HETATM   18  C   UNL     1      -4.394  -2.628 -33.949  1.00  0.00     0.009 A 
ENDBRANCH   4  13
ENDBRANCH   1   4
BRANCH   1  19
HETATM   19  C   UNL     1      -8.208   0.554 -35.169  1.00  0.00     0.336 C 
BRANCH  19  20
HETATM   20  C   UNL     1      -9.394   0.758 -34.226  1.00  0.00     0.248 C 
HETATM   21  N   UNL     1     -10.398   1.555 -34.731  1.00  0.00    -0.326 N 
HETATM   22  H   UNL     1     -10.293   1.934 -35.667  1.00  0.00     0.169 HD
HETATM   23  O   UNL     1      -9.345   0.208 -33.125  1.00  0.00    -0.271 OA
BRANCH  21  24
HETATM   24  C   UNL     1     -11.597   1.927 -34.077  1.00  0.00     0.037 A 
HETATM   25  C   UNL     1     -12.842   1.349 -34.353  1.00  0.00     0.061 A 
HETATM   26  C   UNL     1     -13.922   1.810 -33.632  1.00  0.00     0.065 A 
HETATM   27  C   UNL     1     -13.808   2.807 -32.666  1.00  0.00     0.063 A 
HETATM   28  N   UNL     1     -15.257   1.425 -33.691  1.00  0.00    -0.306 N 
HETATM   29  N   UNL     1     -15.070   3.035 -32.132  1.00  0.00    -0.307 N 
HETATM   30  C   UNL     1     -12.606   3.397 -32.371  1.00  0.00     0.034 A 
HETATM   31  C   UNL     1     -15.987   2.180 -32.761  1.00  0.00     0.325 A 
HETATM   32  H   UNL     1     -15.326   3.693 -31.414  1.00  0.00     0.170 HD
HETATM   33  O   UNL     1     -17.182   2.107 -32.543  1.00  0.00    -0.247 OA
HETATM   34  C   UNL     1     -11.492   2.946 -33.091  1.00  0.00     0.032 A 
HETATM   35  H   UNL     1     -15.675   0.729 -34.287  1.00  0.00     0.170 HD
ENDBRANCH  21  24
ENDBRANCH  19  20
ENDBRANCH   1  19
TORSDOF 7
ENDMDL
MODEL 2
REMARK VINA RESULT:      -9.1      2.603      5.138
REMARK  7 active torsions:
REMARK  status: ('A' for Active; 'I' for Inactive)
REMARK    1  A    between atoms: O_2  and  C_3 
REMARK    2  A    between atoms: C_6  and  C_7 
REMARK    3  A    between atoms: C_7  and  N_8 
REMARK    4  A    between atoms: C_7  and  C_25 
REMARK    5  A    between atoms: N_8  and  C_11 
REMARK    6  A    between atoms: C_11  and  C_12 
REMARK       I    between atoms: C_12  and  N_13 
REMARK    7  A    between atoms: N_13  and  C_14 
ROOT
HETATM    1  N   UNL     1      -7.031   4.100 -33.113  1.00  0.00    -0.055 N 
HETATM    2  H   UNL     1      -6.768   4.973 -33.597  1.00  0.00     0.278 HD
HETATM    3  H   UNL     1      -7.688   3.656 -33.766  1.00  0.00     0.278 HD
ENDROOT
BRANCH   1   4
HETATM    4  C   UNL     1      -5.841   3.207 -32.957  1.00  0.00     0.252 C 
BRANCH   4   5
HETATM    5  C   UNL     1      -6.030   1.765 -33.428  1.00  0.00    -0.023 A 
HETATM    6  C   UNL     1      -6.796   1.506 -34.584  1.00  0.00     0.012 A 
HETATM    7  C   UNL     1      -6.963   0.207 -35.082  1.00  0.00     0.037 A 
HETATM    8  C   UNL     1      -6.345  -0.867 -34.451  1.00  0.00     0.068 A 
HETATM    9  C   UNL     1      -5.561  -0.626 -33.324  1.00  0.00     0.037 A 
HETATM   10  C   UNL     1      -5.393   0.670 -32.821  1.00  0.00     0.012 A 
BRANCH   8  11
HETATM   11  O   UNL     1      -6.416  -2.176 -34.829  1.00  0.00    -0.356 OA
HETATM   12  C   UNL     1      -5.195  -2.908 -34.871  1.00  0.00     0.210 C 
ENDBRANCH   8  11
ENDBRANCH   4   5
BRANCH   4  13
HETATM   13  C   UNL     1      -4.599   3.927 -33.474  1.00  0.00    -0.023 A 
HETATM   14  C   UNL     1      -4.698   4.744 -34.616  1.00  0.00     0.009 A 
HETATM   15  C   UNL     1      -3.568   5.368 -35.144  1.00  0.00     0.001 A 
HETATM   16  C   UNL     1      -2.324   5.182 -34.548  1.00  0.00     0.000 A 
HETATM   17  C   UNL     1      -2.206   4.375 -33.420  1.00  0.00     0.001 A 
HETATM   18  C   UNL     1      -3.333   3.748 -32.886  1.00  0.00     0.009 A 
ENDBRANCH   4  13
ENDBRANCH   1   4
BRANCH   1  19
HETATM   19  C   UNL     1      -7.805   4.480 -31.873  1.00  0.00     0.336 C 
BRANCH  19  20
HETATM   20  C   UNL     1      -9.097   3.665 -31.823  1.00  0.00     0.248 C 
HETATM   21  N   UNL     1      -9.386   2.977 -32.981  1.00  0.00    -0.326 N 
HETATM   22  H   UNL     1      -8.741   3.045 -33.761  1.00  0.00     0.169 HD
HETATM   23  O   UNL     1      -9.750   3.700 -30.780  1.00  0.00    -0.271 OA
BRANCH  21  24
HETATM   24  C   UNL     1     -10.518   2.162 -33.225  1.00  0.00     0.037 A 
HETATM   25  C   UNL     1     -11.766   2.663 -33.614  1.00  0.00     0.061 A 
HETATM   26  C   UNL     1     -12.774   1.746 -33.821  1.00  0.00     0.065 A 
HETATM   27  C   UNL     1     -12.586   0.377 -33.659  1.00  0.00     0.063 A 
HETATM   28  N   UNL     1     -14.094   1.953 -34.208  1.00  0.00    -0.306 N 
HETATM   29  N   UNL     1     -13.787  -0.260 -33.944  1.00  0.00    -0.307 N 
HETATM   30  C   UNL     1     -11.379  -0.151 -33.278  1.00  0.00     0.034 A 
HETATM   31  C   UNL     1     -14.740   0.711 -34.289  1.00  0.00     0.325 A 
HETATM   32  H   UNL     1     -13.984  -1.247 -33.920  1.00  0.00     0.170 HD
HETATM   33  O   UNL     1     -15.901   0.514 -34.599  1.00  0.00    -0.247 OA
HETATM   34  C   UNL     1     -10.337   0.761 -33.059  1.00  0.00     0.032 A 
HETATM   35  H   UNL     1     -14.552   2.828 -34.404  1.00  0.00     0.170 HD
ENDBRANCH  21  24
ENDBRANCH  19  20
ENDBRANCH   1  19
TORSDOF 7
ENDMDL
MODEL 3
REMARK VINA RESULT:      -9.0      4.039      8.581
REMARK  7 active torsions:
REMARK  status: ('A' for Active; 'I' for Inactive)
REMARK    1  A    between atoms: O_2  and  C_3 
REMARK    2  A    between atoms: C_6  and  C_7 
REMARK    3  A    between atoms: C_7  and  N_8 
REMARK    4  A    between atoms: C_7  and  C_25 
REMARK    5  A    between atoms: N_8  and  C_11 
REMARK    6  A    between atoms: C_11  and  C_12 
REMARK       I    between atoms: C_12  and  N_13 
REMARK    7  A    between atoms: N_13  and  C_14 
ROOT
HETATM    1  N   UNL     1      -7.187   0.425 -30.751  1.00  0.00    -0.055 N 
HETATM    2  H   UNL     1      -8.113   0.797 -30.487  1.00  0.00     0.278 HD
HETATM    3  H   UNL     1      -7.234  -0.558 -30.458  1.00  0.00     0.278 HD
ENDROOT
BRANCH   1   4
HETATM    4  C   UNL     1      -7.009   0.468 -32.236  1.00  0.00     0.252 C 
BRANCH   4   5
HETATM    5  C   UNL     1      -6.200  -0.680 -32.838  1.00  0.00    -0.023 A 
HETATM    6  C   UNL     1      -6.749  -1.440 -33.892  1.00  0.00     0.012 A 
HETATM    7  C   UNL     1      -6.030  -2.473 -34.508  1.00  0.00     0.037 A 
HETATM    8  C   UNL     1      -4.731  -2.757 -34.104  1.00  0.00     0.068 A 
HETATM    9  C   UNL     1      -4.161  -1.997 -33.083  1.00  0.00     0.037 A 
HETATM   10  C   UNL     1      -4.876  -0.966 -32.463  1.00  0.00     0.012 A 
BRANCH   8  11
HETATM   11  O   UNL     1      -3.917  -3.725 -34.617  1.00  0.00    -0.356 OA
HETATM   12  C   UNL     1      -3.482  -4.748 -33.727  1.00  0.00     0.210 C 
ENDBRANCH   8  11
ENDBRANCH   4   5
BRANCH   4  13
HETATM   13  C   UNL     1      -8.352   0.766 -32.897  1.00  0.00    -0.023 A 
HETATM   14  C   UNL     1      -8.452   1.831 -33.810  1.00  0.00     0.009 A 
HETATM   15  C   UNL     1      -9.679   2.163 -34.385  1.00  0.00     0.001 A 
HETATM   16  C   UNL     1     -10.823   1.443 -34.053  1.00  0.00     0.000 A 
HETATM   17  C   UNL     1     -10.744   0.388 -33.148  1.00  0.00     0.001 A 
HETATM   18  C   UNL     1      -9.519   0.051 -32.570  1.00  0.00     0.009 A 
ENDBRANCH   4  13
ENDBRANCH   1   4
BRANCH   1  19
HETATM   19  C   UNL     1      -6.156   1.112 -29.888  1.00  0.00     0.336 C 
BRANCH  19  20
HETATM   20  C   UNL     1      -5.748   2.428 -30.550  1.00  0.00     0.248 C 
HETATM   21  N   UNL     1      -4.412   2.515 -30.878  1.00  0.00    -0.326 N 
HETATM   22  H   UNL     1      -3.809   1.724 -30.674  1.00  0.00     0.169 HD
HETATM   23  O   UNL     1      -6.626   3.272 -30.724  1.00  0.00    -0.271 OA
BRANCH  21  24
HETATM   24  C   UNL     1      -3.755   3.614 -31.480  1.00  0.00     0.037 A 
HETATM   25  C   UNL     1      -3.779   4.913 -30.959  1.00  0.00     0.061 A 
HETATM   26  C   UNL     1      -3.086   5.882 -31.653  1.00  0.00     0.065 A 
HETATM   27  C   UNL     1      -2.386   5.608 -32.824  1.00  0.00     0.063 A 
HETATM   28  N   UNL     1      -2.936   7.236 -31.374  1.00  0.00    -0.306 N 
HETATM   29  N   UNL     1      -1.805   6.790 -33.266  1.00  0.00    -0.307 N 
HETATM   30  C   UNL     1      -2.341   4.348 -33.365  1.00  0.00     0.034 A 
HETATM   31  C   UNL     1      -2.139   7.817 -32.371  1.00  0.00     0.325 A 
HETATM   32  H   UNL     1      -1.234   6.930 -34.083  1.00  0.00     0.170 HD
HETATM   33  O   UNL     1      -1.803   8.985 -32.444  1.00  0.00    -0.247 OA
HETATM   34  C   UNL     1      -3.038   3.345 -32.679  1.00  0.00     0.032 A 
HETATM   35  H   UNL     1      -3.319   7.755 -30.600  1.00  0.00     0.170 HD
ENDBRANCH  21  24
ENDBRANCH  19  20
ENDBRANCH   1  19
TORSDOF 7
ENDMDL
MODEL 4
REMARK VINA RESULT:      -8.9      3.721      8.567
REMARK  7 active torsions:
REMARK  status: ('A' for Active; 'I' for Inactive)
REMARK    1  A    between atoms: O_2  and  C_3 
REMARK    2  A    between atoms: C_6  and  C_7 
REMARK    3  A    between atoms: C_7  and  N_8 
REMARK    4  A    between atoms: C_7  and  C_25 
REMARK    5  A    between atoms: N_8  and  C_11 
REMARK    6  A    between atoms: C_11  and  C_12 
REMARK       I    between atoms: C_12  and  N_13 
REMARK    7  A    between atoms: N_13  and  C_14 
ROOT
HETATM    1  N   UNL     1      -9.249   3.316 -33.461  1.00  0.00    -0.055 N 
HETATM    2  H   UNL     1     -10.121   3.477 -32.933  1.00  0.00     0.278 HD
HETATM    3  H   UNL     1      -8.559   3.121 -32.725  1.00  0.00     0.278 HD
ENDROOT
BRANCH   1   4
HETATM    4  C   UNL     1      -9.375   2.102 -34.326  1.00  0.00     0.252 C 
BRANCH   4   5
HETATM    5  C   UNL     1      -8.282   1.049 -34.151  1.00  0.00    -0.023 A 
HETATM    6  C   UNL     1      -7.680   0.875 -32.887  1.00  0.00     0.012 A 
HETATM    7  C   UNL     1      -6.705  -0.106 -32.664  1.00  0.00     0.037 A 
HETATM    8  C   UNL     1      -6.324  -0.959 -33.694  1.00  0.00     0.068 A 
HETATM    9  C   UNL     1      -6.929  -0.820 -34.942  1.00  0.00     0.037 A 
HETATM   10  C   UNL     1      -7.901   0.160 -35.171  1.00  0.00     0.012 A 
BRANCH   8  11
HETATM   11  O   UNL     1      -5.397  -1.957 -33.616  1.00  0.00    -0.356 OA
HETATM   12  C   UNL     1      -4.081  -1.593 -33.211  1.00  0.00     0.210 C 
ENDBRANCH   8  11
ENDBRANCH   4   5
BRANCH   4  13
HETATM   13  C   UNL     1     -10.814   1.595 -34.277  1.00  0.00    -0.023 A 
HETATM   14  C   UNL     1     -11.123   0.468 -33.494  1.00  0.00     0.009 A 
HETATM   15  C   UNL     1     -12.418  -0.052 -33.476  1.00  0.00     0.001 A 
HETATM   16  C   UNL     1     -13.419   0.539 -34.241  1.00  0.00     0.000 A 
HETATM   17  C   UNL     1     -13.130   1.653 -35.025  1.00  0.00     0.001 A 
HETATM   18  C   UNL     1     -11.837   2.178 -35.047  1.00  0.00     0.009 A 
ENDBRANCH   4  13
ENDBRANCH   1   4
BRANCH   1  19
HETATM   19  C   UNL     1      -8.864   4.622 -34.115  1.00  0.00     0.336 C 
BRANCH  19  20
HETATM   20  C   UNL     1      -7.509   5.072 -33.569  1.00  0.00     0.248 C 
HETATM   21  N   UNL     1      -6.425   4.420 -34.115  1.00  0.00    -0.326 N 
HETATM   22  H   UNL     1      -6.590   3.714 -34.827  1.00  0.00     0.169 HD
HETATM   23  O   UNL     1      -7.507   5.952 -32.709  1.00  0.00    -0.271 OA
BRANCH  21  24
HETATM   24  C   UNL     1      -5.062   4.617 -33.790  1.00  0.00     0.037 A 
HETATM   25  C   UNL     1      -4.525   4.378 -32.519  1.00  0.00     0.061 A 
HETATM   26  C   UNL     1      -3.177   4.610 -32.353  1.00  0.00     0.065 A 
HETATM   27  C   UNL     1      -2.361   5.062 -33.386  1.00  0.00     0.063 A 
HETATM   28  N   UNL     1      -2.385   4.460 -31.219  1.00  0.00    -0.306 N 
HETATM   29  N   UNL     1      -1.070   5.190 -32.891  1.00  0.00    -0.307 N 
HETATM   30  C   UNL     1      -2.851   5.308 -34.643  1.00  0.00     0.034 A 
HETATM   31  C   UNL     1      -1.067   4.818 -31.538  1.00  0.00     0.325 A 
HETATM   32  H   UNL     1      -0.247   5.495 -33.384  1.00  0.00     0.170 HD
HETATM   33  O   UNL     1      -0.109   4.807 -30.788  1.00  0.00    -0.247 OA
HETATM   34  C   UNL     1      -4.221   5.081 -34.838  1.00  0.00     0.032 A 
HETATM   35  H   UNL     1      -2.668   4.151 -30.303  1.00  0.00     0.170 HD
ENDBRANCH  21  24
ENDBRANCH  19  20
ENDBRANCH   1  19
TORSDOF 7
ENDMDL
MODEL 5
REMARK VINA RESULT:      -8.8      3.745      8.301
REMARK  7 active torsions:
REMARK  status: ('A' for Active; 'I' for Inactive)
REMARK    1  A    between atoms: O_2  and  C_3 
REMARK    2  A    between atoms: C_6  and  C_7 
REMARK    3  A    between atoms: C_7  and  N_8 
REMARK    4  A    between atoms: C_7  and  C_25 
REMARK    5  A    between atoms: N_8  and  C_11 
REMARK    6  A    between atoms: C_11  and  C_12 
REMARK       I    between atoms: C_12  and  N_13 
REMARK    7  A    between atoms: N_13  and  C_14 
ROOT
HETATM    1  N   UNL     1      -9.461   1.721 -31.370  1.00  0.00    -0.055 N 
HETATM    2  H   UNL     1     -10.424   1.579 -31.025  1.00  0.00     0.278 HD
HETATM    3  H   UNL     1      -8.957   0.903 -31.005  1.00  0.00     0.278 HD
ENDROOT
BRANCH   1   4
HETATM    4  C   UNL     1      -9.426   1.670 -32.864  1.00  0.00     0.252 C 
BRANCH   4   5
HETATM    5  C   UNL     1      -8.449   0.663 -33.469  1.00  0.00    -0.023 A 
HETATM    6  C   UNL     1      -8.095   0.769 -34.831  1.00  0.00     0.012 A 
HETATM    7  C   UNL     1      -7.170  -0.103 -35.421  1.00  0.00     0.037 A 
HETATM    8  C   UNL     1      -6.554  -1.088 -34.658  1.00  0.00     0.068 A 
HETATM    9  C   UNL     1      -6.870  -1.189 -33.305  1.00  0.00     0.037 A 
HETATM   10  C   UNL     1      -7.795  -0.323 -32.711  1.00  0.00     0.012 A 
BRANCH   8  11
HETATM   11  O   UNL     1      -5.635  -1.996 -35.100  1.00  0.00    -0.356 OA
HETATM   12  C   UNL     1      -5.968  -3.374 -34.971  1.00  0.00     0.210 C 
ENDBRANCH   8  11
ENDBRANCH   4   5
BRANCH   4  13
HETATM   13  C   UNL     1     -10.854   1.632 -33.401  1.00  0.00    -0.023 A 
HETATM   14  C   UNL     1     -11.579   0.428 -33.352  1.00  0.00     0.009 A 
HETATM   15  C   UNL     1     -12.865   0.349 -33.888  1.00  0.00     0.001 A 
HETATM   16  C   UNL     1     -13.442   1.465 -34.486  1.00  0.00     0.000 A 
HETATM   17  C   UNL     1     -12.738   2.665 -34.548  1.00  0.00     0.001 A 
HETATM   18  C   UNL     1     -11.451   2.750 -34.013  1.00  0.00     0.009 A 
ENDBRANCH   4  13
ENDBRANCH   1   4
BRANCH   1  19
HETATM   19  C   UNL     1      -8.905   2.945 -30.683  1.00  0.00     0.336 C 
BRANCH  19  20
HETATM   20  C   UNL     1      -7.495   3.214 -31.208  1.00  0.00     0.248 C 
HETATM   21  N   UNL     1      -7.402   4.271 -32.086  1.00  0.00    -0.326 N 
HETATM   22  H   UNL     1      -8.244   4.791 -32.313  1.00  0.00     0.169 HD
HETATM   23  O   UNL     1      -6.592   2.477 -30.812  1.00  0.00    -0.271 OA
BRANCH  21  24
HETATM   24  C   UNL     1      -6.234   4.734 -32.739  1.00  0.00     0.037 A 
HETATM   25  C   UNL     1      -5.362   5.682 -32.190  1.00  0.00     0.061 A 
HETATM   26  C   UNL     1      -4.260   6.031 -32.941  1.00  0.00     0.065 A 
HETATM   27  C   UNL     1      -4.003   5.481 -34.194  1.00  0.00     0.063 A 
HETATM   28  N   UNL     1      -3.240   6.931 -32.653  1.00  0.00    -0.306 N 
HETATM   29  N   UNL     1      -2.826   6.041 -34.677  1.00  0.00    -0.307 N 
HETATM   30  C   UNL     1      -4.835   4.552 -34.764  1.00  0.00     0.034 A 
HETATM   31  C   UNL     1      -2.336   6.949 -33.725  1.00  0.00     0.325 A 
HETATM   32  H   UNL     1      -2.368   5.855 -35.554  1.00  0.00     0.170 HD
HETATM   33  O   UNL     1      -1.325   7.620 -33.813  1.00  0.00    -0.247 OA
HETATM   34  C   UNL     1      -5.963   4.180 -34.021  1.00  0.00     0.032 A 
HETATM   35  H   UNL     1      -3.129   7.497 -31.827  1.00  0.00     0.170 HD
ENDBRANCH  21  24
ENDBRANCH  19  20
ENDBRANCH   1  19
TORSDOF 7
ENDMDL
MODEL 6
REMARK VINA RESULT:      -8.8      4.039      8.186
REMARK  7 active torsions:
REMARK  status: ('A' for Active; 'I' for Inactive)
REMARK    1  A    between atoms: O_2  and  C_3 
REMARK    2  A    between atoms: C_6  and  C_7 
REMARK    3  A    between atoms: C_7  and  N_8 
REMARK    4  A    between atoms: C_7  and  C_25 
REMARK    5  A    between atoms: N_8  and  C_11 
REMARK    6  A    between atoms: C_11  and  C_12 
REMARK       I    between atoms: C_12  and  N_13 
REMARK    7  A    between atoms: N_13  and  C_14 
ROOT
HETATM    1  N   UNL     1      -5.231   0.198 -32.854  1.00  0.00    -0.055 N 
HETATM    2  H   UNL     1      -4.464  -0.146 -33.455  1.00  0.00     0.278 HD
HETATM    3  H   UNL     1      -5.453   1.116 -33.257  1.00  0.00     0.278 HD
ENDROOT
BRANCH   1   4
HETATM    4  C   UNL     1      -6.434  -0.681 -32.985  1.00  0.00     0.252 C 
BRANCH   4   5
HETATM    5  C   UNL     1      -7.724   0.023 -33.403  1.00  0.00    -0.023 A 
HETATM    6  C   UNL     1      -8.908  -0.200 -32.667  1.00  0.00     0.012 A 
HETATM    7  C   UNL     1     -10.106   0.455 -32.982  1.00  0.00     0.037 A 
HETATM    8  C   UNL     1     -10.146   1.373 -34.026  1.00  0.00     0.068 A 
HETATM    9  C   UNL     1      -8.979   1.626 -34.746  1.00  0.00     0.037 A 
HETATM   10  C   UNL     1      -7.781   0.973 -34.437  1.00  0.00     0.012 A 
BRANCH   8  11
HETATM   11  O   UNL     1     -11.236   2.084 -34.436  1.00  0.00    -0.356 OA
HETATM   12  C   UNL     1     -12.401   1.344 -34.786  1.00  0.00     0.210 C 
ENDBRANCH   8  11
ENDBRANCH   4   5
BRANCH   4  13
HETATM   13  C   UNL     1      -6.061  -1.932 -33.775  1.00  0.00    -0.023 A 
HETATM   14  C   UNL     1      -7.080  -2.727 -34.333  1.00  0.00     0.009 A 
HETATM   15  C   UNL     1      -6.771  -3.906 -35.011  1.00  0.00     0.001 A 
HETATM   16  C   UNL     1      -5.446  -4.314 -35.135  1.00  0.00     0.000 A 
HETATM   17  C   UNL     1      -4.425  -3.543 -34.586  1.00  0.00     0.001 A 
HETATM   18  C   UNL     1      -4.728  -2.361 -33.907  1.00  0.00     0.009 A 
ENDBRANCH   4  13
ENDBRANCH   1   4
BRANCH   1  19
HETATM   19  C   UNL     1      -4.661   0.429 -31.475  1.00  0.00     0.336 C 
BRANCH  19  20
HETATM   20  C   UNL     1      -3.710   1.625 -31.522  1.00  0.00     0.248 C 
HETATM   21  N   UNL     1      -4.200   2.720 -32.199  1.00  0.00    -0.326 N 
HETATM   22  H   UNL     1      -5.131   2.668 -32.600  1.00  0.00     0.169 HD
HETATM   23  O   UNL     1      -2.618   1.504 -30.968  1.00  0.00    -0.271 OA
BRANCH  21  24
HETATM   24  C   UNL     1      -3.537   3.952 -32.416  1.00  0.00     0.037 A 
HETATM   25  C   UNL     1      -3.803   5.116 -31.684  1.00  0.00     0.061 A 
HETATM   26  C   UNL     1      -3.072   6.240 -32.004  1.00  0.00     0.065 A 
HETATM   27  C   UNL     1      -2.107   6.246 -33.007  1.00  0.00     0.063 A 
HETATM   28  N   UNL     1      -3.121   7.515 -31.452  1.00  0.00    -0.306 N 
HETATM   29  N   UNL     1      -1.562   7.522 -33.073  1.00  0.00    -0.307 N 
HETATM   30  C   UNL     1      -1.821   5.126 -33.745  1.00  0.00     0.034 A 
HETATM   31  C   UNL     1      -2.185   8.328 -32.108  1.00  0.00     0.325 A 
HETATM   32  H   UNL     1      -0.842   7.854 -33.693  1.00  0.00     0.170 HD
HETATM   33  O   UNL     1      -1.957   9.502 -31.883  1.00  0.00    -0.247 OA
HETATM   34  C   UNL     1      -2.551   3.969 -33.440  1.00  0.00     0.032 A 
HETATM   35  H   UNL     1      -3.714   7.846 -30.708  1.00  0.00     0.170 HD
ENDBRANCH  21  24
ENDBRANCH  19  20
ENDBRANCH   1  19
TORSDOF 7
ENDMDL
MODEL 7
REMARK VINA RESULT:      -8.7      3.435      8.440
REMARK  7 active torsions:
REMARK  status: ('A' for Active; 'I' for Inactive)
REMARK    1  A    between atoms: O_2  and  C_3 
REMARK    2  A    between atoms: C_6  and  C_7 
REMARK    3  A    between atoms: C_7  and  N_8 
REMARK    4  A    between atoms: C_7  and  C_25 
REMARK    5  A    between atoms: N_8  and  C_11 
REMARK    6  A    between atoms: C_11  and  C_12 
REMARK       I    between atoms: C_12  and  N_13 
REMARK    7  A    between atoms: N_13  and  C_14 
ROOT
HETATM    1  N   UNL     1      -9.573   1.667 -31.393  1.00  0.00    -0.055 N 
HETATM    2  H   UNL     1     -10.513   1.369 -31.089  1.00  0.00     0.278 HD
HETATM    3  H   UNL     1      -8.947   1.027 -30.889  1.00  0.00     0.278 HD
ENDROOT
BRANCH   1   4
HETATM    4  C   UNL     1      -9.400   1.439 -32.862  1.00  0.00     0.252 C 
BRANCH   4   5
HETATM    5  C   UNL     1      -8.270   0.489 -33.255  1.00  0.00    -0.023 A 
HETATM    6  C   UNL     1      -8.103   0.129 -34.609  1.00  0.00     0.012 A 
HETATM    7  C   UNL     1      -7.056  -0.702 -35.027  1.00  0.00     0.037 A 
HETATM    8  C   UNL     1      -6.129  -1.175 -34.104  1.00  0.00     0.068 A 
HETATM    9  C   UNL     1      -6.261  -0.806 -32.767  1.00  0.00     0.037 A 
HETATM   10  C   UNL     1      -7.307   0.022 -32.344  1.00  0.00     0.012 A 
BRANCH   8  11
HETATM   11  O   UNL     1      -5.062  -1.983 -34.371  1.00  0.00    -0.356 OA
HETATM   12  C   UNL     1      -5.326  -3.210 -35.043  1.00  0.00     0.210 C 
ENDBRANCH   8  11
ENDBRANCH   4   5
BRANCH   4  13
HETATM   13  C   UNL     1     -10.762   1.164 -33.493  1.00  0.00    -0.023 A 
HETATM   14  C   UNL     1     -11.298   2.087 -34.410  1.00  0.00     0.009 A 
HETATM   15  C   UNL     1     -12.566   1.890 -34.959  1.00  0.00     0.001 A 
HETATM   16  C   UNL     1     -13.319   0.778 -34.595  1.00  0.00     0.000 A 
HETATM   17  C   UNL     1     -12.807  -0.144 -33.686  1.00  0.00     0.001 A 
HETATM   18  C   UNL     1     -11.539   0.047 -33.134  1.00  0.00     0.009 A 
ENDBRANCH   4  13
ENDBRANCH   1   4
BRANCH   1  19
HETATM   19  C   UNL     1      -9.337   3.058 -30.854  1.00  0.00     0.336 C 
BRANCH  19  20
HETATM   20  C   UNL     1      -7.847   3.231 -30.558  1.00  0.00     0.248 C 
HETATM   21  N   UNL     1      -7.100   3.683 -31.624  1.00  0.00    -0.326 N 
HETATM   22  H   UNL     1      -7.571   3.874 -32.502  1.00  0.00     0.169 HD
HETATM   23  O   UNL     1      -7.458   2.955 -29.424  1.00  0.00    -0.271 OA
BRANCH  21  24
HETATM   24  C   UNL     1      -5.703   3.916 -31.644  1.00  0.00     0.037 A 
HETATM   25  C   UNL     1      -5.080   4.955 -30.943  1.00  0.00     0.061 A 
HETATM   26  C   UNL     1      -3.710   5.054 -31.054  1.00  0.00     0.065 A 
HETATM   27  C   UNL     1      -2.955   4.174 -31.824  1.00  0.00     0.063 A 
HETATM   28  N   UNL     1      -2.838   5.971 -30.477  1.00  0.00    -0.306 N 
HETATM   29  N   UNL     1      -1.621   4.548 -31.722  1.00  0.00    -0.307 N 
HETATM   30  C   UNL     1      -3.531   3.146 -32.526  1.00  0.00     0.034 A 
HETATM   31  C   UNL     1      -1.530   5.669 -30.884  1.00  0.00     0.325 A 
HETATM   32  H   UNL     1      -0.823   4.115 -32.158  1.00  0.00     0.170 HD
HETATM   33  O   UNL     1      -0.516   6.263 -30.570  1.00  0.00    -0.247 OA
HETATM   34  C   UNL     1      -4.924   3.024 -32.430  1.00  0.00     0.032 A 
HETATM   35  H   UNL     1      -3.063   6.740 -29.866  1.00  0.00     0.170 HD
ENDBRANCH  21  24
ENDBRANCH  19  20
ENDBRANCH   1  19
TORSDOF 7
ENDMDL
MODEL 8
REMARK VINA RESULT:      -8.6      4.728      9.274
REMARK  7 active torsions:
REMARK  status: ('A' for Active; 'I' for Inactive)
REMARK    1  A    between atoms: O_2  and  C_3 
REMARK    2  A    between atoms: C_6  and  C_7 
REMARK    3  A    between atoms: C_7  and  N_8 
REMARK    4  A    between atoms: C_7  and  C_25 
REMARK    5  A    between atoms: N_8  and  C_11 
REMARK    6  A    between atoms: C_11  and  C_12 
REMARK       I    between atoms: C_12  and  N_13 
REMARK    7  A    between atoms: N_13  and  C_14 
ROOT
HETATM    1  N   UNL     1      -5.889   2.224 -33.418  1.00  0.00    -0.055 N 
HETATM    2  H   UNL     1      -6.235   2.339 -32.453  1.00  0.00     0.278 HD
HETATM    3  H   UNL     1      -4.873   2.128 -33.295  1.00  0.00     0.278 HD
ENDROOT
BRANCH   1   4
HETATM    4  C   UNL     1      -6.415   0.958 -34.017  1.00  0.00     0.252 C 
BRANCH   4   5
HETATM    5  C   UNL     1      -5.569  -0.291 -33.773  1.00  0.00    -0.023 A 
HETATM    6  C   UNL     1      -4.614  -0.291 -32.734  1.00  0.00     0.012 A 
HETATM    7  C   UNL     1      -3.845  -1.425 -32.441  1.00  0.00     0.037 A 
HETATM    8  C   UNL     1      -4.029  -2.600 -33.162  1.00  0.00     0.068 A 
HETATM    9  C   UNL     1      -4.989  -2.626 -34.173  1.00  0.00     0.037 A 
HETATM   10  C   UNL     1      -5.758  -1.496 -34.471  1.00  0.00     0.012 A 
BRANCH   8  11
HETATM   11  O   UNL     1      -3.358  -3.774 -32.980  1.00  0.00    -0.356 OA
HETATM   12  C   UNL     1      -3.767  -4.886 -33.771  1.00  0.00     0.210 C 
ENDBRANCH   8  11
ENDBRANCH   4   5
BRANCH   4  13
HETATM   13  C   UNL     1      -7.904   0.835 -33.707  1.00  0.00    -0.023 A 
HETATM   14  C   UNL     1      -8.313   0.209 -32.516  1.00  0.00     0.009 A 
HETATM   15  C   UNL     1      -9.668   0.031 -32.234  1.00  0.00     0.001 A 
HETATM   16  C   UNL     1     -10.633   0.468 -33.138  1.00  0.00     0.000 A 
HETATM   17  C   UNL     1     -10.247   1.086 -34.324  1.00  0.00     0.001 A 
HETATM   18  C   UNL     1      -8.892   1.268 -34.611  1.00  0.00     0.009 A 
ENDBRANCH   4  13
ENDBRANCH   1   4
BRANCH   1  19
HETATM   19  C   UNL     1      -6.140   3.520 -34.152  1.00  0.00     0.336 C 
BRANCH  19  20
HETATM   20  C   UNL     1      -5.106   4.554 -33.706  1.00  0.00     0.248 C 
HETATM   21  N   UNL     1      -3.973   4.021 -33.132  1.00  0.00    -0.326 N 
HETATM   22  H   UNL     1      -3.896   3.012 -33.055  1.00  0.00     0.169 HD
HETATM   23  O   UNL     1      -5.375   5.741 -33.891  1.00  0.00    -0.271 OA
BRANCH  21  24
HETATM   24  C   UNL     1      -2.866   4.736 -32.614  1.00  0.00     0.037 A 
HETATM   25  C   UNL     1      -2.694   5.021 -31.255  1.00  0.00     0.061 A 
HETATM   26  C   UNL     1      -1.562   5.722 -30.898  1.00  0.00     0.065 A 
HETATM   27  C   UNL     1      -0.615   6.140 -31.829  1.00  0.00     0.063 A 
HETATM   28  N   UNL     1      -1.136   6.138 -29.641  1.00  0.00    -0.306 N 
HETATM   29  N   UNL     1       0.392   6.811 -31.148  1.00  0.00    -0.307 N 
HETATM   30  C   UNL     1      -0.750   5.880 -33.169  1.00  0.00     0.034 A 
HETATM   31  C   UNL     1       0.082   6.819 -29.779  1.00  0.00     0.325 A 
HETATM   32  H   UNL     1       1.221   7.235 -31.531  1.00  0.00     0.170 HD
HETATM   33  O   UNL     1       0.740   7.319 -28.886  1.00  0.00    -0.247 OA
HETATM   34  C   UNL     1      -1.894   5.169 -33.558  1.00  0.00     0.032 A 
HETATM   35  H   UNL     1      -1.594   5.998 -28.755  1.00  0.00     0.170 HD
ENDBRANCH  21  24
ENDBRANCH  19  20
ENDBRANCH   1  19
TORSDOF 7
ENDMDL
MODEL 9
REMARK VINA RESULT:      -8.6      3.179      5.795
REMARK  7 active torsions:
REMARK  status: ('A' for Active; 'I' for Inactive)
REMARK    1  A    between atoms: O_2  and  C_3 
REMARK    2  A    between atoms: C_6  and  C_7 
REMARK    3  A    between atoms: C_7  and  N_8 
REMARK    4  A    between atoms: C_7  and  C_25 
REMARK    5  A    between atoms: N_8  and  C_11 
REMARK    6  A    between atoms: C_11  and  C_12 
REMARK       I    between atoms: C_12  and  N_13 
REMARK    7  A    between atoms: N_13  and  C_14 
ROOT
HETATM    1  N   UNL     1      -4.859   0.232 -33.450  1.00  0.00    -0.055 N 
HETATM    2  H   UNL     1      -4.121  -0.318 -33.917  1.00  0.00     0.278 HD
HETATM    3  H   UNL     1      -5.110   0.938 -34.153  1.00  0.00     0.278 HD
ENDROOT
BRANCH   1   4
HETATM    4  C   UNL     1      -6.060  -0.619 -33.183  1.00  0.00     0.252 C 
BRANCH   4   5
HETATM    5  C   UNL     1      -7.412   0.056 -33.410  1.00  0.00    -0.023 A 
HETATM    6  C   UNL     1      -8.483  -0.221 -32.533  1.00  0.00     0.012 A 
HETATM    7  C   UNL     1      -9.728   0.406 -32.670  1.00  0.00     0.037 A 
HETATM    8  C   UNL     1      -9.929   1.347 -33.674  1.00  0.00     0.068 A 
HETATM    9  C   UNL     1      -8.874   1.654 -34.531  1.00  0.00     0.037 A 
HETATM   10  C   UNL     1      -7.629   1.029 -34.399  1.00  0.00     0.012 A 
BRANCH   8  11
HETATM   11  O   UNL     1     -11.083   2.035 -33.918  1.00  0.00    -0.356 OA
HETATM   12  C   UNL     1     -11.997   1.464 -34.848  1.00  0.00     0.210 C 
ENDBRANCH   8  11
ENDBRANCH   4   5
BRANCH   4  13
HETATM   13  C   UNL     1      -5.867  -1.982 -33.842  1.00  0.00    -0.023 A 
HETATM   14  C   UNL     1      -6.976  -2.642 -34.403  1.00  0.00     0.009 A 
HETATM   15  C   UNL     1      -6.840  -3.914 -34.960  1.00  0.00     0.001 A 
HETATM   16  C   UNL     1      -5.601  -4.548 -34.959  1.00  0.00     0.000 A 
HETATM   17  C   UNL     1      -4.494  -3.912 -34.405  1.00  0.00     0.001 A 
HETATM   18  C   UNL     1      -4.623  -2.639 -33.847  1.00  0.00     0.009 A 
ENDBRANCH   4  13
ENDBRANCH   1   4
BRANCH   1  19
HETATM   19  C   UNL     1      -4.223   0.954 -32.285  1.00  0.00     0.336 C 
BRANCH  19  20
HETATM   20  C   UNL     1      -5.013   2.230 -31.997  1.00  0.00     0.248 C 
HETATM   21  N   UNL     1      -5.892   2.134 -30.941  1.00  0.00    -0.326 N 
HETATM   22  H   UNL     1      -5.950   1.257 -30.434  1.00  0.00     0.169 HD
HETATM   23  O   UNL     1      -4.801   3.204 -32.720  1.00  0.00    -0.271 OA
BRANCH  21  24
HETATM   24  C   UNL     1      -6.761   3.146 -30.464  1.00  0.00     0.037 A 
HETATM   25  C   UNL     1      -6.419   4.044 -29.446  1.00  0.00     0.061 A 
HETATM   26  C   UNL     1      -7.367   4.979 -29.090  1.00  0.00     0.065 A 
HETATM   27  C   UNL     1      -8.617   5.049 -29.699  1.00  0.00     0.063 A 
HETATM   28  N   UNL     1      -7.305   5.982 -28.128  1.00  0.00    -0.306 N 
HETATM   29  N   UNL     1      -9.324   6.092 -29.114  1.00  0.00    -0.307 N 
HETATM   30  C   UNL     1      -8.987   4.185 -30.697  1.00  0.00     0.034 A 
HETATM   31  C   UNL     1      -8.518   6.686 -28.131  1.00  0.00     0.325 A 
HETATM   32  H   UNL     1     -10.257   6.403 -29.330  1.00  0.00     0.170 HD
HETATM   33  O   UNL     1      -8.814   7.628 -27.419  1.00  0.00    -0.247 OA
HETATM   34  C   UNL     1      -8.041   3.223 -31.078  1.00  0.00     0.032 A 
HETATM   35  H   UNL     1      -6.540   6.201 -27.510  1.00  0.00     0.170 HD
ENDBRANCH  21  24
ENDBRANCH  19  20
ENDBRANCH   1  19
TORSDOF 7
ENDMDL
MODEL 10
REMARK VINA RESULT:      -8.5     14.829     17.963
REMARK  7 active torsions:
REMARK  status: ('A' for Active; 'I' for Inactive)
REMARK    1  A    between atoms: O_2  and  C_3 
REMARK    2  A    between atoms: C_6  and  C_7 
REMARK    3  A    between atoms: C_7  and  N_8 
REMARK    4  A    between atoms: C_7  and  C_25 
REMARK    5  A    between atoms: N_8  and  C_11 
REMARK    6  A    between atoms: C_11  and  C_12 
REMARK       I    between atoms: C_12  and  N_13 
REMARK    7  A    between atoms: N_13  and  C_14 
ROOT
HETATM    1  N   UNL     1      -6.453 -12.158 -38.742  1.00  0.00    -0.055 N 
HETATM    2  H   UNL     1      -7.141 -11.390 -38.791  1.00  0.00     0.278 HD
HETATM    3  H   UNL     1      -5.887 -11.916 -37.920  1.00  0.00     0.278 HD
ENDROOT
BRANCH   1   4
HETATM    4  C   UNL     1      -7.138 -13.461 -38.478  1.00  0.00     0.252 C 
BRANCH   4   5
HETATM    5  C   UNL     1      -7.080 -13.958 -37.035  1.00  0.00    -0.023 A 
HETATM    6  C   UNL     1      -6.686 -15.287 -36.772  1.00  0.00     0.012 A 
HETATM    7  C   UNL     1      -6.573 -15.778 -35.465  1.00  0.00     0.037 A 
HETATM    8  C   UNL     1      -6.827 -14.944 -34.382  1.00  0.00     0.068 A 
HETATM    9  C   UNL     1      -7.191 -13.620 -34.622  1.00  0.00     0.037 A 
HETATM   10  C   UNL     1      -7.306 -13.125 -35.926  1.00  0.00     0.012 A 
BRANCH   8  11
HETATM   11  O   UNL     1      -6.751 -15.286 -33.063  1.00  0.00    -0.356 OA
HETATM   12  C   UNL     1      -5.839 -14.552 -32.252  1.00  0.00     0.210 C 
ENDBRANCH   8  11
ENDBRANCH   4   5
BRANCH   4  13
HETATM   13  C   UNL     1      -8.517 -13.446 -39.132  1.00  0.00    -0.023 A 
HETATM   14  C   UNL     1      -9.106 -14.660 -39.532  1.00  0.00     0.009 A 
HETATM   15  C   UNL     1     -10.339 -14.672 -40.184  1.00  0.00     0.001 A 
HETATM   16  C   UNL     1     -10.999 -13.476 -40.453  1.00  0.00     0.000 A 
HETATM   17  C   UNL     1     -10.430 -12.265 -40.069  1.00  0.00     0.001 A 
HETATM   18  C   UNL     1      -9.196 -12.247 -39.415  1.00  0.00     0.009 A 
ENDBRANCH   4  13
ENDBRANCH   1   4
BRANCH   1  19
HETATM   19  C   UNL     1      -5.562 -12.052 -39.957  1.00  0.00     0.336 C 
BRANCH  19  20
HETATM   20  C   UNL     1      -4.430 -13.072 -39.836  1.00  0.00     0.248 C 
HETATM   21  N   UNL     1      -3.355 -12.649 -39.087  1.00  0.00    -0.326 N 
HETATM   22  H   UNL     1      -3.386 -11.723 -38.671  1.00  0.00     0.169 HD
HETATM   23  O   UNL     1      -4.576 -14.153 -40.408  1.00  0.00    -0.271 OA
BRANCH  21  24
HETATM   24  C   UNL     1      -2.166 -13.371 -38.823  1.00  0.00     0.037 A 
HETATM   25  C   UNL     1      -1.204 -13.666 -39.797  1.00  0.00     0.061 A 
HETATM   26  C   UNL     1      -0.094 -14.373 -39.389  1.00  0.00     0.065 A 
HETATM   27  C   UNL     1       0.089 -14.788 -38.073  1.00  0.00     0.063 A 
HETATM   28  N   UNL     1       1.006 -14.799 -40.126  1.00  0.00    -0.306 N 
HETATM   29  N   UNL     1       1.298 -15.468 -37.999  1.00  0.00    -0.307 N 
HETATM   30  C   UNL     1      -0.832 -14.519 -37.092  1.00  0.00     0.034 A 
HETATM   31  C   UNL     1       1.884 -15.483 -39.274  1.00  0.00     0.325 A 
HETATM   32  H   UNL     1       1.719 -15.892 -37.189  1.00  0.00     0.170 HD
HETATM   33  O   UNL     1       2.946 -15.992 -39.580  1.00  0.00    -0.247 OA
HETATM   34  C   UNL     1      -1.971 -13.801 -37.482  1.00  0.00     0.032 A 
HETATM   35  H   UNL     1       1.183 -14.663 -41.108  1.00  0.00     0.170 HD
ENDBRANCH  21  24
ENDBRANCH  19  20
ENDBRANCH   1  19
TORSDOF 7
ENDMDL
