MODEL 1
REMARK VINA RESULT:      -8.4      0.000      0.000
REMARK  4 active torsions:
REMARK  status: ('A' for Active; 'I' for Inactive)
REMARK    1  A    between atoms: C_5  and  C_6 
REMARK    2  A    between atoms: C_6  and  N_7 
REMARK    3  A    between atoms: C_6  and  C_18 
REMARK    4  A    between atoms: N_7  and  C_8 
ROOT
HETATM    1  C   UNL     1      -7.139   0.797 -33.154  1.00  0.00     0.288 C 
ENDROOT
BRANCH   1   2
HETATM    2  C   UNL     1      -6.296   1.716 -32.286  1.00  0.00    -0.003 A 
HETATM    3  C   UNL     1      -5.484   2.723 -32.801  1.00  0.00     0.126 A 
HETATM    4  N   UNL     1      -4.711   3.544 -32.055  1.00  0.00    -0.272 NA
HETATM    5  C   UNL     1      -4.780   3.396 -30.716  1.00  0.00     0.116 A 
HETATM    6  C   UNL     1      -5.574   2.451 -30.092  1.00  0.00     0.020 A 
HETATM    7  C   UNL     1      -6.339   1.601 -30.888  1.00  0.00     0.012 A 
ENDBRANCH   1   2
BRANCH   1   8
HETATM    8  N   UNL     1      -8.455   0.425 -32.596  1.00  0.00     0.101 N 
HETATM    9  H   UNL     1      -8.431   0.572 -31.586  1.00  0.00     0.317 HD
BRANCH   8  10
HETATM   10  C   UNL     1      -9.641   1.021 -33.213  1.00  0.00     0.225 C 
HETATM   11  C   UNL     1     -10.850   0.063 -33.219  1.00  0.00     0.069 C 
HETATM   12  C   UNL     1     -12.077   0.789 -33.741  1.00  0.00     0.190 C 
HETATM   13  N   UNL     1     -12.345   1.977 -32.860  1.00  0.00    -0.067 N 
HETATM   14  C   UNL     1     -13.400   0.057 -33.662  1.00  0.00     0.035 C 
HETATM   15  H   UNL     1     -12.401   1.645 -31.886  1.00  0.00     0.280 HD
HETATM   16  C   UNL     1     -11.248   2.989 -32.920  1.00  0.00     0.237 C 
HETATM   17  C   UNL     1     -13.731   2.443 -33.223  1.00  0.00     0.235 C 
HETATM   18  C   UNL     1      -9.966   2.318 -32.436  1.00  0.00     0.063 C 
HETATM   19  C   UNL     1     -14.422   1.189 -33.760  1.00  0.00     0.030 C 
ENDBRANCH   8  10
ENDBRANCH   1   8
BRANCH   1  20
HETATM   20  C   UNL     1      -6.410  -0.476 -33.588  1.00  0.00    -0.021 A 
HETATM   21  C   UNL     1      -7.123  -1.475 -34.278  1.00  0.00     0.012 A 
HETATM   22  C   UNL     1      -6.496  -2.662 -34.667  1.00  0.00     0.043 A 
HETATM   23  C   UNL     1      -5.159  -2.863 -34.360  1.00  0.00     0.116 A 
HETATM   24  F   UNL     1      -4.560  -4.001 -34.730  1.00  0.00    -0.206 F 
HETATM   25  C   UNL     1      -4.434  -1.901 -33.668  1.00  0.00     0.043 A 
HETATM   26  C   UNL     1      -5.057  -0.714 -33.277  1.00  0.00     0.012 A 
ENDBRANCH   1  20
TORSDOF 4
ENDMDL
MODEL 2
REMARK VINA RESULT:      -8.3      0.544      1.393
REMARK  4 active torsions:
REMARK  status: ('A' for Active; 'I' for Inactive)
REMARK    1  A    between atoms: C_5  and  C_6 
REMARK    2  A    between atoms: C_6  and  N_7 
REMARK    3  A    between atoms: C_6  and  C_18 
REMARK    4  A    between atoms: N_7  and  C_8 
ROOT
HETATM    1  C   UNL     1      -7.131   0.759 -33.216  1.00  0.00     0.288 C 
ENDROOT
BRANCH   1   2
HETATM    2  C   UNL     1      -6.228   1.681 -32.412  1.00  0.00    -0.003 A 
HETATM    3  C   UNL     1      -6.059   1.576 -31.034  1.00  0.00     0.126 A 
HETATM    4  N   UNL     1      -5.277   2.390 -30.291  1.00  0.00    -0.272 NA
HETATM    5  C   UNL     1      -4.579   3.336 -30.954  1.00  0.00     0.116 A 
HETATM    6  C   UNL     1      -4.646   3.514 -32.325  1.00  0.00     0.020 A 
HETATM    7  C   UNL     1      -5.481   2.676 -33.059  1.00  0.00     0.012 A 
ENDBRANCH   1   2
BRANCH   1   8
HETATM    8  N   UNL     1      -8.436   0.451 -32.599  1.00  0.00     0.101 N 
HETATM    9  H   UNL     1      -8.379   0.657 -31.602  1.00  0.00     0.317 HD
BRANCH   8  10
HETATM   10  C   UNL     1      -9.628   1.036 -33.217  1.00  0.00     0.225 C 
HETATM   11  C   UNL     1     -10.834   0.074 -33.204  1.00  0.00     0.069 C 
HETATM   12  C   UNL     1     -12.065   0.791 -33.729  1.00  0.00     0.190 C 
HETATM   13  N   UNL     1     -12.332   1.989 -32.862  1.00  0.00    -0.067 N 
HETATM   14  C   UNL     1     -13.387   0.056 -33.632  1.00  0.00     0.035 C 
HETATM   15  H   UNL     1     -12.382   1.669 -31.883  1.00  0.00     0.280 HD
HETATM   16  C   UNL     1     -11.239   3.003 -32.941  1.00  0.00     0.237 C 
HETATM   17  C   UNL     1     -13.722   2.447 -33.223  1.00  0.00     0.235 C 
HETATM   18  C   UNL     1      -9.952   2.342 -32.455  1.00  0.00     0.063 C 
HETATM   19  C   UNL     1     -14.412   1.183 -33.740  1.00  0.00     0.030 C 
ENDBRANCH   8  10
ENDBRANCH   1   8
BRANCH   1  20
HETATM   20  C   UNL     1      -6.458  -0.552 -33.626  1.00  0.00    -0.021 A 
HETATM   21  C   UNL     1      -5.064  -0.687 -33.474  1.00  0.00     0.012 A 
HETATM   22  C   UNL     1      -4.411  -1.859 -33.863  1.00  0.00     0.043 A 
HETATM   23  C   UNL     1      -5.143  -2.899 -34.415  1.00  0.00     0.116 A 
HETATM   24  F   UNL     1      -4.518  -4.022 -34.791  1.00  0.00    -0.206 F 
HETATM   25  C   UNL     1      -6.517  -2.790 -34.590  1.00  0.00     0.043 A 
HETATM   26  C   UNL     1      -7.173  -1.619 -34.203  1.00  0.00     0.012 A 
ENDBRANCH   1  20
TORSDOF 4
ENDMDL
MODEL 3
REMARK VINA RESULT:      -8.3      2.923      6.869
REMARK  4 active torsions:
REMARK  status: ('A' for Active; 'I' for Inactive)
REMARK    1  A    between atoms: C_5  and  C_6 
REMARK    2  A    between atoms: C_6  and  N_7 
REMARK    3  A    between atoms: C_6  and  C_18 
REMARK    4  A    between atoms: N_7  and  C_8 
ROOT
HETATM    1  C   UNL     1      -6.248  -0.392 -33.080  1.00  0.00     0.288 C 
ENDROOT
BRANCH   1   2
HETATM    2  C   UNL     1      -5.929  -1.722 -33.743  1.00  0.00    -0.003 A 
HETATM    3  C   UNL     1      -4.643  -2.252 -33.815  1.00  0.00     0.126 A 
HETATM    4  N   UNL     1      -4.328  -3.423 -34.411  1.00  0.00    -0.272 NA
HETATM    5  C   UNL     1      -5.348  -4.140 -34.926  1.00  0.00     0.116 A 
HETATM    6  C   UNL     1      -6.668  -3.727 -34.886  1.00  0.00     0.020 A 
HETATM    7  C   UNL     1      -6.959  -2.503 -34.288  1.00  0.00     0.012 A 
ENDBRANCH   1   2
BRANCH   1   8
HETATM    8  N   UNL     1      -5.980  -0.323 -31.630  1.00  0.00     0.101 N 
HETATM    9  H   UNL     1      -5.611  -1.224 -31.326  1.00  0.00     0.317 HD
BRANCH   8  10
HETATM   10  C   UNL     1      -5.167   0.797 -31.149  1.00  0.00     0.225 C 
HETATM   11  C   UNL     1      -4.332   1.447 -32.272  1.00  0.00     0.069 C 
HETATM   12  C   UNL     1      -3.627   2.680 -31.737  1.00  0.00     0.190 C 
HETATM   13  N   UNL     1      -4.662   3.641 -31.220  1.00  0.00    -0.067 N 
HETATM   14  C   UNL     1      -2.893   3.546 -32.739  1.00  0.00     0.035 C 
HETATM   15  H   UNL     1      -5.347   3.806 -31.974  1.00  0.00     0.280 HD
HETATM   16  C   UNL     1      -5.413   3.094 -30.051  1.00  0.00     0.237 C 
HETATM   17  C   UNL     1      -3.936   4.946 -31.022  1.00  0.00     0.235 C 
HETATM   18  C   UNL     1      -6.128   1.825 -30.507  1.00  0.00     0.063 C 
HETATM   19  C   UNL     1      -2.769   4.882 -32.008  1.00  0.00     0.030 C 
ENDBRANCH   8  10
ENDBRANCH   1   8
BRANCH   1  20
HETATM   20  C   UNL     1      -7.675   0.095 -33.341  1.00  0.00    -0.021 A 
HETATM   21  C   UNL     1      -7.923   0.943 -34.438  1.00  0.00     0.012 A 
HETATM   22  C   UNL     1      -9.208   1.429 -34.692  1.00  0.00     0.043 A 
HETATM   23  C   UNL     1     -10.251   1.081 -33.847  1.00  0.00     0.116 A 
HETATM   24  F   UNL     1     -11.481   1.549 -34.088  1.00  0.00    -0.206 F 
HETATM   25  C   UNL     1     -10.035   0.257 -32.749  1.00  0.00     0.043 A 
HETATM   26  C   UNL     1      -8.751  -0.230 -32.492  1.00  0.00     0.012 A 
ENDBRANCH   1  20
TORSDOF 4
ENDMDL
MODEL 4
REMARK VINA RESULT:      -8.1      3.434      6.664
REMARK  4 active torsions:
REMARK  status: ('A' for Active; 'I' for Inactive)
REMARK    1  A    between atoms: C_5  and  C_6 
REMARK    2  A    between atoms: C_6  and  N_7 
REMARK    3  A    between atoms: C_6  and  C_18 
REMARK    4  A    between atoms: N_7  and  C_8 
ROOT
HETATM    1  C   UNL     1      -4.642  -0.137 -33.021  1.00  0.00     0.288 C 
ENDROOT
BRANCH   1   2
HETATM    2  C   UNL     1      -4.211  -1.594 -33.032  1.00  0.00    -0.003 A 
HETATM    3  C   UNL     1      -4.519  -2.476 -34.064  1.00  0.00     0.126 A 
HETATM    4  N   UNL     1      -4.164  -3.780 -34.093  1.00  0.00    -0.272 NA
HETATM    5  C   UNL     1      -3.416  -4.231 -33.065  1.00  0.00     0.116 A 
HETATM    6  C   UNL     1      -3.025  -3.439 -31.999  1.00  0.00     0.020 A 
HETATM    7  C   UNL     1      -3.429  -2.106 -31.985  1.00  0.00     0.012 A 
ENDBRANCH   1   2
BRANCH   1   8
HETATM    8  N   UNL     1      -4.319   0.614 -31.791  1.00  0.00     0.101 N 
HETATM    9  H   UNL     1      -3.366   0.382 -31.512  1.00  0.00     0.317 HD
BRANCH   8  10
HETATM   10  C   UNL     1      -4.555   2.059 -31.804  1.00  0.00     0.225 C 
HETATM   11  C   UNL     1      -5.210   2.563 -30.501  1.00  0.00     0.069 C 
HETATM   12  C   UNL     1      -5.296   4.078 -30.524  1.00  0.00     0.190 C 
HETATM   13  N   UNL     1      -3.909   4.638 -30.671  1.00  0.00    -0.067 N 
HETATM   14  C   UNL     1      -5.759   4.764 -29.255  1.00  0.00     0.035 C 
HETATM   15  H   UNL     1      -3.322   4.232 -29.927  1.00  0.00     0.280 HD
HETATM   16  C   UNL     1      -3.283   4.271 -31.977  1.00  0.00     0.237 C 
HETATM   17  C   UNL     1      -4.031   6.106 -30.355  1.00  0.00     0.235 C 
HETATM   18  C   UNL     1      -3.192   2.750 -32.041  1.00  0.00     0.063 C 
HETATM   19  C   UNL     1      -5.250   6.193 -29.436  1.00  0.00     0.030 C 
ENDBRANCH   8  10
ENDBRANCH   1   8
BRANCH   1  20
HETATM   20  C   UNL     1      -6.122   0.066 -33.349  1.00  0.00    -0.021 A 
HETATM   21  C   UNL     1      -6.485   0.548 -34.622  1.00  0.00     0.012 A 
HETATM   22  C   UNL     1      -7.825   0.770 -34.948  1.00  0.00     0.043 A 
HETATM   23  C   UNL     1      -8.810   0.525 -34.002  1.00  0.00     0.116 A 
HETATM   24  F   UNL     1     -10.093   0.741 -34.313  1.00  0.00    -0.206 F 
HETATM   25  C   UNL     1      -8.481   0.063 -32.735  1.00  0.00     0.043 A 
HETATM   26  C   UNL     1      -7.142  -0.161 -32.405  1.00  0.00     0.012 A 
ENDBRANCH   1  20
TORSDOF 4
ENDMDL
MODEL 5
REMARK VINA RESULT:      -8.1      1.238      2.042
REMARK  4 active torsions:
REMARK  status: ('A' for Active; 'I' for Inactive)
REMARK    1  A    between atoms: C_5  and  C_6 
REMARK    2  A    between atoms: C_6  and  N_7 
REMARK    3  A    between atoms: C_6  and  C_18 
REMARK    4  A    between atoms: N_7  and  C_8 
ROOT
HETATM    1  C   UNL     1      -7.068   0.990 -33.028  1.00  0.00     0.288 C 
ENDROOT
BRANCH   1   2
HETATM    2  C   UNL     1      -6.095   1.942 -32.354  1.00  0.00    -0.003 A 
HETATM    3  C   UNL     1      -5.837   1.931 -30.985  1.00  0.00     0.126 A 
HETATM    4  N   UNL     1      -4.990   2.776 -30.356  1.00  0.00    -0.272 NA
HETATM    5  C   UNL     1      -4.317   3.653 -31.129  1.00  0.00     0.116 A 
HETATM    6  C   UNL     1      -4.470   3.734 -32.502  1.00  0.00     0.020 A 
HETATM    7  C   UNL     1      -5.370   2.868 -33.119  1.00  0.00     0.012 A 
ENDBRANCH   1   2
BRANCH   1   8
HETATM    8  N   UNL     1      -8.263   0.634 -32.236  1.00  0.00     0.101 N 
HETATM    9  H   UNL     1      -8.038   0.742 -31.247  1.00  0.00     0.317 HD
BRANCH   8  10
HETATM   10  C   UNL     1      -9.524   1.287 -32.591  1.00  0.00     0.225 C 
HETATM   11  C   UNL     1      -9.343   2.382 -33.663  1.00  0.00     0.069 C 
HETATM   12  C   UNL     1     -10.700   2.917 -34.083  1.00  0.00     0.190 C 
HETATM   13  N   UNL     1     -11.521   1.779 -34.622  1.00  0.00    -0.067 N 
HETATM   14  C   UNL     1     -10.731   3.882 -35.251  1.00  0.00     0.035 C 
HETATM   15  H   UNL     1     -10.973   1.313 -35.361  1.00  0.00     0.280 HD
HETATM   16  C   UNL     1     -11.822   0.752 -33.580  1.00  0.00     0.237 C 
HETATM   17  C   UNL     1     -12.695   2.421 -35.314  1.00  0.00     0.235 C 
HETATM   18  C   UNL     1     -10.494   0.187 -33.083  1.00  0.00     0.063 C 
HETATM   19  C   UNL     1     -12.184   3.805 -35.717  1.00  0.00     0.030 C 
ENDBRANCH   8  10
ENDBRANCH   1   8
BRANCH   1  20
HETATM   20  C   UNL     1      -6.414  -0.296 -33.538  1.00  0.00    -0.021 A 
HETATM   21  C   UNL     1      -7.204  -1.252 -34.205  1.00  0.00     0.012 A 
HETATM   22  C   UNL     1      -6.647  -2.449 -34.661  1.00  0.00     0.043 A 
HETATM   23  C   UNL     1      -5.301  -2.704 -34.445  1.00  0.00     0.116 A 
HETATM   24  F   UNL     1      -4.768  -3.852 -34.879  1.00  0.00    -0.206 F 
HETATM   25  C   UNL     1      -4.500  -1.786 -33.778  1.00  0.00     0.043 A 
HETATM   26  C   UNL     1      -5.054  -0.588 -33.320  1.00  0.00     0.012 A 
ENDBRANCH   1  20
TORSDOF 4
ENDMDL
MODEL 6
REMARK VINA RESULT:      -8.0     14.678     16.834
REMARK  4 active torsions:
REMARK  status: ('A' for Active; 'I' for Inactive)
REMARK    1  A    between atoms: C_5  and  C_6 
REMARK    2  A    between atoms: C_6  and  N_7 
REMARK    3  A    between atoms: C_6  and  C_18 
REMARK    4  A    between atoms: N_7  and  C_8 
ROOT
HETATM    1  C   UNL     1      -6.788 -13.612 -37.991  1.00  0.00     0.288 C 
ENDROOT
BRANCH   1   2
HETATM    2  C   UNL     1      -6.886 -14.050 -36.539  1.00  0.00    -0.003 A 
HETATM    3  C   UNL     1      -7.347 -13.223 -35.519  1.00  0.00     0.126 A 
HETATM    4  N   UNL     1      -7.429 -13.580 -34.218  1.00  0.00    -0.272 NA
HETATM    5  C   UNL     1      -7.082 -14.846 -33.910  1.00  0.00     0.116 A 
HETATM    6  C   UNL     1      -6.639 -15.765 -34.845  1.00  0.00     0.020 A 
HETATM    7  C   UNL     1      -6.539 -15.359 -36.174  1.00  0.00     0.012 A 
ENDBRANCH   1   2
BRANCH   1   8
HETATM    8  N   UNL     1      -6.059 -12.350 -38.227  1.00  0.00     0.101 N 
HETATM    9  H   UNL     1      -6.018 -11.831 -37.349  1.00  0.00     0.317 HD
BRANCH   8  10
HETATM   10  C   UNL     1      -4.750 -12.440 -38.877  1.00  0.00     0.225 C 
HETATM   11  C   UNL     1      -3.609 -12.710 -37.874  1.00  0.00     0.069 C 
HETATM   12  C   UNL     1      -2.309 -12.931 -38.626  1.00  0.00     0.190 C 
HETATM   13  N   UNL     1      -2.483 -14.098 -39.558  1.00  0.00    -0.067 N 
HETATM   14  C   UNL     1      -1.109 -13.376 -37.815  1.00  0.00     0.035 C 
HETATM   15  H   UNL     1      -2.824 -14.899 -39.004  1.00  0.00     0.280 HD
HETATM   16  C   UNL     1      -3.497 -13.830 -40.621  1.00  0.00     0.237 C 
HETATM   17  C   UNL     1      -1.093 -14.464 -40.010  1.00  0.00     0.235 C 
HETATM   18  C   UNL     1      -4.834 -13.565 -39.935  1.00  0.00     0.063 C 
HETATM   19  C   UNL     1      -0.189 -13.981 -38.874  1.00  0.00     0.030 C 
ENDBRANCH   8  10
ENDBRANCH   1   8
BRANCH   1  20
HETATM   20  C   UNL     1      -8.142 -13.539 -38.701  1.00  0.00    -0.021 A 
HETATM   21  C   UNL     1      -8.831 -14.733 -38.993  1.00  0.00     0.012 A 
HETATM   22  C   UNL     1     -10.056 -14.707 -39.663  1.00  0.00     0.043 A 
HETATM   23  C   UNL     1     -10.596 -13.492 -40.056  1.00  0.00     0.116 A 
HETATM   24  F   UNL     1     -11.768 -13.467 -40.701  1.00  0.00    -0.206 F 
HETATM   25  C   UNL     1      -9.933 -12.299 -39.795  1.00  0.00     0.043 A 
HETATM   26  C   UNL     1      -8.707 -12.321 -39.125  1.00  0.00     0.012 A 
ENDBRANCH   1  20
TORSDOF 4
ENDMDL
MODEL 7
REMARK VINA RESULT:      -7.8      2.162      2.631
REMARK  4 active torsions:
REMARK  status: ('A' for Active; 'I' for Inactive)
REMARK    1  A    between atoms: C_5  and  C_6 
REMARK    2  A    between atoms: C_6  and  N_7 
REMARK    3  A    between atoms: C_6  and  C_18 
REMARK    4  A    between atoms: N_7  and  C_8 
ROOT
HETATM    1  C   UNL     1      -6.913  -0.452 -33.609  1.00  0.00     0.288 C 
ENDROOT
BRANCH   1   2
HETATM    2  C   UNL     1      -6.012   0.298 -32.642  1.00  0.00    -0.003 A 
HETATM    3  C   UNL     1      -5.354   1.481 -32.969  1.00  0.00     0.126 A 
HETATM    4  N   UNL     1      -4.535   2.160 -32.136  1.00  0.00    -0.272 NA
HETATM    5  C   UNL     1      -4.394   1.671 -30.887  1.00  0.00     0.116 A 
HETATM    6  C   UNL     1      -5.022   0.521 -30.441  1.00  0.00     0.020 A 
HETATM    7  C   UNL     1      -5.839  -0.172 -31.332  1.00  0.00     0.012 A 
ENDBRANCH   1   2
BRANCH   1   8
HETATM    8  N   UNL     1      -8.306  -0.647 -33.161  1.00  0.00     0.101 N 
HETATM    9  H   UNL     1      -8.292  -1.135 -32.265  1.00  0.00     0.317 HD
BRANCH   8  10
HETATM   10  C   UNL     1      -9.176   0.531 -33.135  1.00  0.00     0.225 C 
HETATM   11  C   UNL     1      -9.095   1.296 -31.797  1.00  0.00     0.069 C 
HETATM   12  C   UNL     1      -9.907   2.575 -31.889  1.00  0.00     0.190 C 
HETATM   13  N   UNL     1      -9.363   3.412 -33.013  1.00  0.00    -0.067 N 
HETATM   14  C   UNL     1      -9.810   3.541 -30.726  1.00  0.00     0.035 C 
HETATM   15  H   UNL     1      -8.351   3.533 -32.858  1.00  0.00     0.280 HD
HETATM   16  C   UNL     1      -9.532   2.756 -34.344  1.00  0.00     0.237 C 
HETATM   17  C   UNL     1      -9.980   4.775 -32.835  1.00  0.00     0.235 C 
HETATM   18  C   UNL     1      -8.764   1.438 -34.317  1.00  0.00     0.063 C 
HETATM   19  C   UNL     1     -10.284   4.858 -31.338  1.00  0.00     0.030 C 
ENDBRANCH   8  10
ENDBRANCH   1   8
BRANCH   1  20
HETATM   20  C   UNL     1      -6.345  -1.802 -34.054  1.00  0.00    -0.021 A 
HETATM   21  C   UNL     1      -7.231  -2.848 -34.379  1.00  0.00     0.012 A 
HETATM   22  C   UNL     1      -6.749  -4.101 -34.764  1.00  0.00     0.043 A 
HETATM   23  C   UNL     1      -5.381  -4.321 -34.817  1.00  0.00     0.116 A 
HETATM   24  F   UNL     1      -4.919  -5.523 -35.182  1.00  0.00    -0.206 F 
HETATM   25  C   UNL     1      -4.483  -3.314 -34.489  1.00  0.00     0.043 A 
HETATM   26  C   UNL     1      -4.961  -2.059 -34.103  1.00  0.00     0.012 A 
ENDBRANCH   1  20
TORSDOF 4
ENDMDL
MODEL 8
REMARK VINA RESULT:      -7.7      3.351      7.327
REMARK  4 active torsions:
REMARK  status: ('A' for Active; 'I' for Inactive)
REMARK    1  A    between atoms: C_5  and  C_6 
REMARK    2  A    between atoms: C_6  and  N_7 
REMARK    3  A    between atoms: C_6  and  C_18 
REMARK    4  A    between atoms: N_7  and  C_8 
ROOT
HETATM    1  C   UNL     1      -5.118   1.259 -32.435  1.00  0.00     0.288 C 
ENDROOT
BRANCH   1   2
HETATM    2  C   UNL     1      -4.597  -0.156 -32.627  1.00  0.00    -0.003 A 
HETATM    3  C   UNL     1      -3.719  -0.775 -31.741  1.00  0.00     0.126 A 
HETATM    4  N   UNL     1      -3.227  -2.024 -31.894  1.00  0.00    -0.272 NA
HETATM    5  C   UNL     1      -3.664  -2.726 -32.960  1.00  0.00     0.116 A 
HETATM    6  C   UNL     1      -4.558  -2.224 -33.890  1.00  0.00     0.020 A 
HETATM    7  C   UNL     1      -5.027  -0.923 -33.719  1.00  0.00     0.012 A 
ENDBRANCH   1   2
BRANCH   1   8
HETATM    8  N   UNL     1      -4.675   1.939 -31.202  1.00  0.00     0.101 N 
HETATM    9  H   UNL     1      -4.295   1.238 -30.565  1.00  0.00     0.317 HD
BRANCH   8  10
HETATM   10  C   UNL     1      -3.783   3.090 -31.352  1.00  0.00     0.225 C 
HETATM   11  C   UNL     1      -3.208   3.212 -32.779  1.00  0.00     0.069 C 
HETATM   12  C   UNL     1      -2.410   4.497 -32.901  1.00  0.00     0.190 C 
HETATM   13  N   UNL     1      -3.315   5.658 -32.593  1.00  0.00    -0.067 N 
HETATM   14  C   UNL     1      -1.909   4.871 -34.281  1.00  0.00     0.035 C 
HETATM   15  H   UNL     1      -4.144   5.584 -33.201  1.00  0.00     0.280 HD
HETATM   16  C   UNL     1      -3.798   5.642 -31.180  1.00  0.00     0.237 C 
HETATM   17  C   UNL     1      -2.568   6.883 -33.051  1.00  0.00     0.235 C 
HETATM   18  C   UNL     1      -4.589   4.354 -30.970  1.00  0.00     0.063 C 
HETATM   19  C   UNL     1      -1.637   6.368 -34.150  1.00  0.00     0.030 C 
ENDBRANCH   8  10
ENDBRANCH   1   8
BRANCH   1  20
HETATM   20  C   UNL     1      -6.640   1.370 -32.539  1.00  0.00    -0.021 A 
HETATM   21  C   UNL     1      -7.206   2.086 -33.612  1.00  0.00     0.012 A 
HETATM   22  C   UNL     1      -8.591   2.231 -33.725  1.00  0.00     0.043 A 
HETATM   23  C   UNL     1      -9.419   1.672 -32.764  1.00  0.00     0.116 A 
HETATM   24  F   UNL     1     -10.745   1.813 -32.870  1.00  0.00    -0.206 F 
HETATM   25  C   UNL     1      -8.890   0.971 -31.688  1.00  0.00     0.043 A 
HETATM   26  C   UNL     1      -7.505   0.825 -31.571  1.00  0.00     0.012 A 
ENDBRANCH   1  20
TORSDOF 4
ENDMDL
MODEL 9
REMARK VINA RESULT:      -7.6      2.962      6.457
REMARK  4 active torsions:
REMARK  status: ('A' for Active; 'I' for Inactive)
REMARK    1  A    between atoms: C_5  and  C_6 
REMARK    2  A    between atoms: C_6  and  N_7 
REMARK    3  A    between atoms: C_6  and  C_18 
REMARK    4  A    between atoms: N_7  and  C_8 
ROOT
HETATM    1  C   UNL     1      -8.336   1.444 -32.734  1.00  0.00     0.288 C 
ENDROOT
BRANCH   1   2
HETATM    2  C   UNL     1      -7.874   2.575 -31.829  1.00  0.00    -0.003 A 
HETATM    3  C   UNL     1      -8.551   2.956 -30.673  1.00  0.00     0.126 A 
HETATM    4  N   UNL     1      -8.172   3.966 -29.860  1.00  0.00    -0.272 NA
HETATM    5  C   UNL     1      -7.029   4.609 -30.176  1.00  0.00     0.116 A 
HETATM    6  C   UNL     1      -6.259   4.297 -31.283  1.00  0.00     0.020 A 
HETATM    7  C   UNL     1      -6.689   3.268 -32.118  1.00  0.00     0.012 A 
ENDBRANCH   1   2
BRANCH   1   8
HETATM    8  N   UNL     1      -7.327   0.934 -33.682  1.00  0.00     0.101 N 
HETATM    9  H   UNL     1      -6.619   1.656 -33.821  1.00  0.00     0.317 HD
BRANCH   8  10
HETATM   10  C   UNL     1      -6.733  -0.373 -33.394  1.00  0.00     0.225 C 
HETATM   11  C   UNL     1      -7.221  -1.471 -34.363  1.00  0.00     0.069 C 
HETATM   12  C   UNL     1      -6.464  -2.760 -34.098  1.00  0.00     0.190 C 
HETATM   13  N   UNL     1      -4.994  -2.503 -34.284  1.00  0.00    -0.067 N 
HETATM   14  C   UNL     1      -6.689  -3.905 -35.064  1.00  0.00     0.035 C 
HETATM   15  H   UNL     1      -4.860  -2.086 -35.218  1.00  0.00     0.280 HD
HETATM   16  C   UNL     1      -4.455  -1.532 -33.285  1.00  0.00     0.237 C 
HETATM   17  C   UNL     1      -4.351  -3.864 -34.337  1.00  0.00     0.235 C 
HETATM   18  C   UNL     1      -5.196  -0.212 -33.470  1.00  0.00     0.063 C 
HETATM   19  C   UNL     1      -5.463  -4.788 -34.837  1.00  0.00     0.030 C 
ENDBRANCH   8  10
ENDBRANCH   1   8
BRANCH   1  20
HETATM   20  C   UNL     1      -9.620   1.763 -33.504  1.00  0.00    -0.021 A 
HETATM   21  C   UNL     1      -9.702   2.962 -34.238  1.00  0.00     0.012 A 
HETATM   22  C   UNL     1     -10.867   3.298 -34.932  1.00  0.00     0.043 A 
HETATM   23  C   UNL     1     -11.959   2.445 -34.889  1.00  0.00     0.116 A 
HETATM   24  F   UNL     1     -13.077   2.769 -35.551  1.00  0.00    -0.206 F 
HETATM   25  C   UNL     1     -11.913   1.263 -34.163  1.00  0.00     0.043 A 
HETATM   26  C   UNL     1     -10.750   0.923 -33.467  1.00  0.00     0.012 A 
ENDBRANCH   1  20
TORSDOF 4
ENDMDL
MODEL 10
REMARK VINA RESULT:      -7.6      2.818      6.535
REMARK  4 active torsions:
REMARK  status: ('A' for Active; 'I' for Inactive)
REMARK    1  A    between atoms: C_5  and  C_6 
REMARK    2  A    between atoms: C_6  and  N_7 
REMARK    3  A    between atoms: C_6  and  C_18 
REMARK    4  A    between atoms: N_7  and  C_8 
ROOT
HETATM    1  C   UNL     1      -7.103   0.462 -33.072  1.00  0.00     0.288 C 
ENDROOT
BRANCH   1   2
HETATM    2  C   UNL     1      -6.452   1.375 -32.046  1.00  0.00    -0.003 A 
HETATM    3  C   UNL     1      -6.655   1.252 -30.674  1.00  0.00     0.126 A 
HETATM    4  N   UNL     1      -6.104   2.059 -29.741  1.00  0.00    -0.272 NA
HETATM    5  C   UNL     1      -5.261   3.016 -30.182  1.00  0.00     0.116 A 
HETATM    6  C   UNL     1      -4.962   3.212 -31.519  1.00  0.00     0.020 A 
HETATM    7  C   UNL     1      -5.566   2.381 -32.459  1.00  0.00     0.012 A 
ENDBRANCH   1   2
BRANCH   1   8
HETATM    8  N   UNL     1      -6.420   0.385 -34.379  1.00  0.00     0.101 N 
HETATM    9  H   UNL     1      -5.778   1.174 -34.455  1.00  0.00     0.317 HD
BRANCH   8  10
HETATM   10  C   UNL     1      -5.780  -0.885 -34.730  1.00  0.00     0.225 C 
HETATM   11  C   UNL     1      -4.799  -1.372 -33.643  1.00  0.00     0.069 C 
HETATM   12  C   UNL     1      -4.281  -2.753 -34.004  1.00  0.00     0.190 C 
HETATM   13  N   UNL     1      -5.450  -3.691 -34.123  1.00  0.00    -0.067 N 
HETATM   14  C   UNL     1      -3.434  -3.466 -32.970  1.00  0.00     0.035 C 
HETATM   15  H   UNL     1      -5.997  -3.629 -33.251  1.00  0.00     0.280 HD
HETATM   16  C   UNL     1      -6.364  -3.321 -35.245  1.00  0.00     0.237 C 
HETATM   17  C   UNL     1      -4.855  -5.075 -34.148  1.00  0.00     0.235 C 
HETATM   18  C   UNL     1      -6.903  -1.921 -34.967  1.00  0.00     0.063 C 
HETATM   19  C   UNL     1      -3.528  -4.928 -33.403  1.00  0.00     0.030 C 
ENDBRANCH   8  10
ENDBRANCH   1   8
BRANCH   1  20
HETATM   20  C   UNL     1      -8.584   0.761 -33.307  1.00  0.00    -0.021 A 
HETATM   21  C   UNL     1      -9.554  -0.136 -32.818  1.00  0.00     0.012 A 
HETATM   22  C   UNL     1     -10.915   0.091 -33.036  1.00  0.00     0.043 A 
HETATM   23  C   UNL     1     -11.316   1.208 -33.752  1.00  0.00     0.116 A 
HETATM   24  F   UNL     1     -12.620   1.424 -33.964  1.00  0.00    -0.206 F 
HETATM   25  C   UNL     1     -10.383   2.105 -34.257  1.00  0.00     0.043 A 
HETATM   26  C   UNL     1      -9.021   1.880 -34.042  1.00  0.00     0.012 A 
ENDBRANCH   1  20
TORSDOF 4
ENDMDL
