MODEL 1
REMARK VINA RESULT:      -9.6      0.000      0.000
REMARK  3 active torsions:
REMARK  status: ('A' for Active; 'I' for Inactive)
REMARK    1  A    between atoms: N_7  and  N_8 
REMARK       I    between atoms: N_8  and  C_9 
REMARK    2  A    between atoms: C_9  and  C_10 
REMARK    3  A    between atoms: C_14  and  C_15 
ROOT
HETATM    1  N   UNL     1      -6.111   0.175 -33.004  1.00  0.00    -0.241 N 
HETATM    2  C   UNL     1      -7.125   0.277 -32.061  1.00  0.00     0.289 C 
HETATM    3  O   UNL     1      -6.998   0.017 -30.868  1.00  0.00    -0.264 OA
HETATM    4  H   UNL     1      -6.358   0.190 -33.981  1.00  0.00     0.192 HD
ENDROOT
BRANCH   2   5
HETATM    5  C   UNL     1      -8.391   0.715 -32.593  1.00  0.00     0.121 A 
HETATM    6  N   UNL     1      -8.504   1.893 -33.277  1.00  0.00    -0.272 N 
HETATM    7  H   UNL     1      -7.757   2.556 -33.472  1.00  0.00     0.189 HD
HETATM    8  N   UNL     1      -9.746   2.164 -33.704  1.00  0.00    -0.174 NA
HETATM    9  C   UNL     1     -10.473   1.098 -33.335  1.00  0.00     0.089 A 
HETATM   10  C   UNL     1      -9.661   0.173 -32.619  1.00  0.00     0.071 A 
BRANCH   9  11
HETATM   11  C   UNL     1     -11.896   0.986 -33.668  1.00  0.00    -0.005 A 
HETATM   12  C   UNL     1     -12.610   2.086 -34.169  1.00  0.00     0.017 A 
HETATM   13  C   UNL     1     -13.969   1.969 -34.479  1.00  0.00     0.043 A 
HETATM   14  C   UNL     1     -14.616   0.753 -34.288  1.00  0.00     0.116 A 
HETATM   15  F   UNL     1     -15.917   0.645 -34.586  1.00  0.00    -0.206 F 
HETATM   16  C   UNL     1     -13.931  -0.348 -33.791  1.00  0.00     0.043 A 
HETATM   17  C   UNL     1     -12.575  -0.231 -33.479  1.00  0.00     0.017 A 
ENDBRANCH   9  11
ENDBRANCH   2   5
BRANCH   1  18
HETATM   18  N   UNL     1      -4.893  -0.309 -32.641  1.00  0.00    -0.165 NA
HETATM   19  C   UNL     1      -4.548  -1.518 -32.952  1.00  0.00     0.157 A 
HETATM   20  C   UNL     1      -5.169  -2.586 -33.753  1.00  0.00     0.027 A 
HETATM   21  C   UNL     1      -3.223  -2.115 -32.424  1.00  0.00     0.277 A 
HETATM   22  C   UNL     1      -6.301  -2.642 -34.547  1.00  0.00     0.016 A 
HETATM   23  C   UNL     1      -4.328  -3.697 -33.635  1.00  0.00     0.048 A 
HETATM   24  C   UNL     1      -6.598  -3.856 -35.179  1.00  0.00     0.001 A 
HETATM   25  C   UNL     1      -5.761  -4.976 -35.029  1.00  0.00     0.002 A 
HETATM   26  C   UNL     1      -4.601  -4.900 -34.255  1.00  0.00     0.030 A 
HETATM   27  N   UNL     1      -3.209  -3.417 -32.861  1.00  0.00    -0.321 N 
HETATM   28  H   UNL     1      -2.448  -4.048 -32.660  1.00  0.00     0.169 HD
HETATM   29  O   UNL     1      -2.388  -1.548 -31.756  1.00  0.00    -0.266 OA
ENDBRANCH   1  18
TORSDOF 3
ENDMDL
MODEL 2
REMARK VINA RESULT:      -9.4      5.620      8.177
REMARK  3 active torsions:
REMARK  status: ('A' for Active; 'I' for Inactive)
REMARK    1  A    between atoms: N_7  and  N_8 
REMARK       I    between atoms: N_8  and  C_9 
REMARK    2  A    between atoms: C_9  and  C_10 
REMARK    3  A    between atoms: C_14  and  C_15 
ROOT
HETATM    1  N   UNL     1      -4.777   3.196 -31.746  1.00  0.00    -0.241 N 
HETATM    2  C   UNL     1      -5.887   3.097 -32.574  1.00  0.00     0.289 C 
HETATM    3  O   UNL     1      -6.713   3.989 -32.747  1.00  0.00    -0.264 OA
HETATM    4  H   UNL     1      -4.287   2.354 -31.493  1.00  0.00     0.192 HD
ENDROOT
BRANCH   2   5
HETATM    5  C   UNL     1      -6.022   1.824 -33.238  1.00  0.00     0.121 A 
HETATM    6  N   UNL     1      -6.713   1.705 -34.411  1.00  0.00    -0.272 N 
HETATM    7  H   UNL     1      -7.185   2.451 -34.916  1.00  0.00     0.189 HD
HETATM    8  N   UNL     1      -6.753   0.458 -34.902  1.00  0.00    -0.174 NA
HETATM    9  C   UNL     1      -6.016  -0.268 -34.047  1.00  0.00     0.089 A 
HETATM   10  C   UNL     1      -5.553   0.552 -32.978  1.00  0.00     0.071 A 
BRANCH   9  11
HETATM   11  C   UNL     1      -5.772  -1.697 -34.264  1.00  0.00    -0.005 A 
HETATM   12  C   UNL     1      -6.805  -2.552 -34.682  1.00  0.00     0.017 A 
HETATM   13  C   UNL     1      -6.561  -3.914 -34.881  1.00  0.00     0.043 A 
HETATM   14  C   UNL     1      -5.287  -4.425 -34.664  1.00  0.00     0.116 A 
HETATM   15  F   UNL     1      -5.058  -5.730 -34.856  1.00  0.00    -0.206 F 
HETATM   16  C   UNL     1      -4.251  -3.600 -34.249  1.00  0.00     0.043 A 
HETATM   17  C   UNL     1      -4.493  -2.239 -34.046  1.00  0.00     0.017 A 
ENDBRANCH   9  11
ENDBRANCH   2   5
BRANCH   1  18
HETATM   18  N   UNL     1      -4.587   4.317 -30.999  1.00  0.00    -0.165 NA
HETATM   19  C   UNL     1      -3.716   5.206 -31.359  1.00  0.00     0.157 A 
HETATM   20  C   UNL     1      -2.849   5.370 -32.537  1.00  0.00     0.027 A 
HETATM   21  C   UNL     1      -3.401   6.410 -30.442  1.00  0.00     0.277 A 
HETATM   22  C   UNL     1      -2.729   4.683 -33.733  1.00  0.00     0.016 A 
HETATM   23  C   UNL     1      -2.069   6.504 -32.288  1.00  0.00     0.048 A 
HETATM   24  C   UNL     1      -1.771   5.129 -34.652  1.00  0.00     0.001 A 
HETATM   25  C   UNL     1      -0.972   6.254 -34.378  1.00  0.00     0.002 A 
HETATM   26  C   UNL     1      -1.124   6.962 -33.184  1.00  0.00     0.030 A 
HETATM   27  N   UNL     1      -2.392   7.095 -31.074  1.00  0.00    -0.321 N 
HETATM   28  H   UNL     1      -1.988   7.938 -30.692  1.00  0.00     0.169 HD
HETATM   29  O   UNL     1      -3.931   6.676 -29.387  1.00  0.00    -0.266 OA
ENDBRANCH   1  18
TORSDOF 3
ENDMDL
MODEL 3
REMARK VINA RESULT:      -9.0      1.974      2.348
REMARK  3 active torsions:
REMARK  status: ('A' for Active; 'I' for Inactive)
REMARK    1  A    between atoms: N_7  and  N_8 
REMARK       I    between atoms: N_8  and  C_9 
REMARK    2  A    between atoms: C_9  and  C_10 
REMARK    3  A    between atoms: C_14  and  C_15 
ROOT
HETATM    1  N   UNL     1      -7.466   1.304 -32.971  1.00  0.00    -0.241 N 
HETATM    2  C   UNL     1      -8.028   2.433 -33.552  1.00  0.00     0.289 C 
HETATM    3  O   UNL     1      -7.398   3.423 -33.908  1.00  0.00    -0.264 OA
HETATM    4  H   UNL     1      -8.072   0.644 -32.511  1.00  0.00     0.192 HD
ENDROOT
BRANCH   2   5
HETATM    5  C   UNL     1      -9.460   2.371 -33.706  1.00  0.00     0.121 A 
HETATM    6  N   UNL     1     -10.033   2.105 -34.918  1.00  0.00    -0.272 N 
HETATM    7  H   UNL     1      -9.546   1.935 -35.795  1.00  0.00     0.189 HD
HETATM    8  N   UNL     1     -11.373   2.086 -34.901  1.00  0.00    -0.174 NA
HETATM    9  C   UNL     1     -11.700   2.295 -33.616  1.00  0.00     0.089 A 
HETATM   10  C   UNL     1     -10.526   2.496 -32.837  1.00  0.00     0.071 A 
BRANCH   9  11
HETATM   11  C   UNL     1     -13.096   2.298 -33.169  1.00  0.00    -0.005 A 
HETATM   12  C   UNL     1     -13.548   3.223 -32.214  1.00  0.00     0.017 A 
HETATM   13  C   UNL     1     -14.881   3.213 -31.791  1.00  0.00     0.043 A 
HETATM   14  C   UNL     1     -15.764   2.279 -32.321  1.00  0.00     0.116 A 
HETATM   15  F   UNL     1     -17.039   2.273 -31.914  1.00  0.00    -0.206 F 
HETATM   16  C   UNL     1     -15.340   1.353 -33.265  1.00  0.00     0.043 A 
HETATM   17  C   UNL     1     -14.008   1.360 -33.685  1.00  0.00     0.017 A 
ENDBRANCH   9  11
ENDBRANCH   2   5
BRANCH   1  18
HETATM   18  N   UNL     1      -6.134   1.275 -32.694  1.00  0.00    -0.165 NA
HETATM   19  C   UNL     1      -5.428   0.226 -32.971  1.00  0.00     0.157 A 
HETATM   20  C   UNL     1      -5.711  -1.046 -33.656  1.00  0.00     0.027 A 
HETATM   21  C   UNL     1      -3.948   0.140 -32.534  1.00  0.00     0.277 A 
HETATM   22  C   UNL     1      -6.810  -1.533 -34.341  1.00  0.00     0.016 A 
HETATM   23  C   UNL     1      -4.542  -1.807 -33.557  1.00  0.00     0.048 A 
HETATM   24  C   UNL     1      -6.728  -2.823 -34.880  1.00  0.00     0.001 A 
HETATM   25  C   UNL     1      -5.558  -3.591 -34.749  1.00  0.00     0.002 A 
HETATM   26  C   UNL     1      -4.440  -3.078 -34.087  1.00  0.00     0.030 A 
HETATM   27  N   UNL     1      -3.530  -1.116 -32.903  1.00  0.00    -0.321 N 
HETATM   28  H   UNL     1      -2.591  -1.445 -32.738  1.00  0.00     0.169 HD
HETATM   29  O   UNL     1      -3.306   1.000 -31.974  1.00  0.00    -0.266 OA
ENDBRANCH   1  18
TORSDOF 3
ENDMDL
MODEL 4
REMARK VINA RESULT:      -8.9      5.712      8.263
REMARK  3 active torsions:
REMARK  status: ('A' for Active; 'I' for Inactive)
REMARK    1  A    between atoms: N_7  and  N_8 
REMARK       I    between atoms: N_8  and  C_9 
REMARK    2  A    between atoms: C_9  and  C_10 
REMARK    3  A    between atoms: C_14  and  C_15 
ROOT
HETATM    1  N   UNL     1      -5.636   4.377 -31.601  1.00  0.00    -0.241 N 
HETATM    2  C   UNL     1      -5.710   3.432 -30.586  1.00  0.00     0.289 C 
HETATM    3  O   UNL     1      -5.646   3.688 -29.388  1.00  0.00    -0.264 OA
HETATM    4  H   UNL     1      -5.473   4.060 -32.543  1.00  0.00     0.192 HD
ENDROOT
BRANCH   2   5
HETATM    5  C   UNL     1      -5.863   2.075 -31.047  1.00  0.00     0.121 A 
HETATM    6  N   UNL     1      -6.518   1.140 -30.296  1.00  0.00    -0.272 N 
HETATM    7  H   UNL     1      -6.941   1.283 -29.382  1.00  0.00     0.189 HD
HETATM    8  N   UNL     1      -6.572  -0.077 -30.857  1.00  0.00    -0.174 NA
HETATM    9  C   UNL     1      -5.976   0.072 -32.050  1.00  0.00     0.089 A 
HETATM   10  C   UNL     1      -5.501   1.406 -32.199  1.00  0.00     0.071 A 
BRANCH   9  11
HETATM   11  C   UNL     1      -5.875  -1.038 -33.002  1.00  0.00    -0.005 A 
HETATM   12  C   UNL     1      -4.645  -1.669 -33.250  1.00  0.00     0.017 A 
HETATM   13  C   UNL     1      -4.560  -2.724 -34.164  1.00  0.00     0.043 A 
HETATM   14  C   UNL     1      -5.703  -3.149 -34.832  1.00  0.00     0.116 A 
HETATM   15  F   UNL     1      -5.617  -4.159 -35.707  1.00  0.00    -0.206 F 
HETATM   16  C   UNL     1      -6.929  -2.539 -34.606  1.00  0.00     0.043 A 
HETATM   17  C   UNL     1      -7.014  -1.484 -33.695  1.00  0.00     0.017 A 
ENDBRANCH   9  11
ENDBRANCH   2   5
BRANCH   1  18
HETATM   18  N   UNL     1      -5.406   5.683 -31.297  1.00  0.00    -0.165 NA
HETATM   19  C   UNL     1      -4.380   6.300 -31.789  1.00  0.00     0.157 A 
HETATM   20  C   UNL     1      -3.334   5.937 -32.759  1.00  0.00     0.027 A 
HETATM   21  C   UNL     1      -4.042   7.740 -31.337  1.00  0.00     0.277 A 
HETATM   22  C   UNL     1      -3.135   4.835 -33.573  1.00  0.00     0.016 A 
HETATM   23  C   UNL     1      -2.453   7.021 -32.803  1.00  0.00     0.048 A 
HETATM   24  C   UNL     1      -2.000   4.824 -34.394  1.00  0.00     0.001 A 
HETATM   25  C   UNL     1      -1.104   5.908 -34.408  1.00  0.00     0.002 A 
HETATM   26  C   UNL     1      -1.333   7.031 -33.611  1.00  0.00     0.030 A 
HETATM   27  N   UNL     1      -2.867   8.056 -31.975  1.00  0.00    -0.321 N 
HETATM   28  H   UNL     1      -2.413   8.950 -31.862  1.00  0.00     0.169 HD
HETATM   29  O   UNL     1      -4.680   8.429 -30.574  1.00  0.00    -0.266 OA
ENDBRANCH   1  18
TORSDOF 3
ENDMDL
MODEL 5
REMARK VINA RESULT:      -8.9      6.051      8.790
REMARK  3 active torsions:
REMARK  status: ('A' for Active; 'I' for Inactive)
REMARK    1  A    between atoms: N_7  and  N_8 
REMARK       I    between atoms: N_8  and  C_9 
REMARK    2  A    between atoms: C_9  and  C_10 
REMARK    3  A    between atoms: C_14  and  C_15 
ROOT
HETATM    1  N   UNL     1      -4.637   4.351 -31.460  1.00  0.00    -0.241 N 
HETATM    2  C   UNL     1      -5.017   3.177 -30.823  1.00  0.00     0.289 C 
HETATM    3  O   UNL     1      -5.491   3.116 -29.693  1.00  0.00    -0.264 OA
HETATM    4  H   UNL     1      -4.058   4.289 -32.281  1.00  0.00     0.192 HD
ENDROOT
BRANCH   2   5
HETATM    5  C   UNL     1      -4.798   1.982 -31.600  1.00  0.00     0.121 A 
HETATM    6  N   UNL     1      -3.536   1.544 -31.888  1.00  0.00    -0.272 N 
HETATM    7  H   UNL     1      -2.662   1.985 -31.610  1.00  0.00     0.189 HD
HETATM    8  N   UNL     1      -3.497   0.423 -32.623  1.00  0.00    -0.174 NA
HETATM    9  C   UNL     1      -4.784   0.077 -32.782  1.00  0.00     0.089 A 
HETATM   10  C   UNL     1      -5.633   1.041 -32.169  1.00  0.00     0.071 A 
BRANCH   9  11
HETATM   11  C   UNL     1      -5.168  -1.143 -33.500  1.00  0.00    -0.005 A 
HETATM   12  C   UNL     1      -6.475  -1.315 -33.985  1.00  0.00     0.017 A 
HETATM   13  C   UNL     1      -6.831  -2.484 -34.665  1.00  0.00     0.043 A 
HETATM   14  C   UNL     1      -5.883  -3.483 -34.860  1.00  0.00     0.116 A 
HETATM   15  F   UNL     1      -6.229  -4.600 -35.511  1.00  0.00    -0.206 F 
HETATM   16  C   UNL     1      -4.586  -3.336 -34.388  1.00  0.00     0.043 A 
HETATM   17  C   UNL     1      -4.230  -2.170 -33.707  1.00  0.00     0.017 A 
ENDBRANCH   9  11
ENDBRANCH   2   5
BRANCH   1  18
HETATM   18  N   UNL     1      -4.715   5.537 -30.798  1.00  0.00    -0.165 NA
HETATM   19  C   UNL     1      -3.639   6.197 -30.505  1.00  0.00     0.157 A 
HETATM   20  C   UNL     1      -2.211   6.013 -30.809  1.00  0.00     0.027 A 
HETATM   21  C   UNL     1      -3.716   7.472 -29.635  1.00  0.00     0.277 A 
HETATM   22  C   UNL     1      -1.517   5.121 -31.608  1.00  0.00     0.016 A 
HETATM   23  C   UNL     1      -1.536   7.030 -30.128  1.00  0.00     0.048 A 
HETATM   24  C   UNL     1      -0.123   5.241 -31.665  1.00  0.00     0.001 A 
HETATM   25  C   UNL     1       0.549   6.249 -30.951  1.00  0.00     0.002 A 
HETATM   26  C   UNL     1      -0.163   7.167 -30.177  1.00  0.00     0.030 A 
HETATM   27  N   UNL     1      -2.412   7.865 -29.448  1.00  0.00    -0.321 N 
HETATM   28  H   UNL     1      -2.165   8.683 -28.911  1.00  0.00     0.169 HD
HETATM   29  O   UNL     1      -4.718   7.998 -29.205  1.00  0.00    -0.266 OA
ENDBRANCH   1  18
TORSDOF 3
ENDMDL
MODEL 6
REMARK VINA RESULT:      -8.6      1.877      2.348
REMARK  3 active torsions:
REMARK  status: ('A' for Active; 'I' for Inactive)
REMARK    1  A    between atoms: N_7  and  N_8 
REMARK       I    between atoms: N_8  and  C_9 
REMARK    2  A    between atoms: C_9  and  C_10 
REMARK    3  A    between atoms: C_14  and  C_15 
ROOT
HETATM    1  N   UNL     1      -6.056   0.203 -33.092  1.00  0.00    -0.241 N 
HETATM    2  C   UNL     1      -7.102   0.328 -32.186  1.00  0.00     0.289 C 
HETATM    3  O   UNL     1      -7.033   0.037 -30.996  1.00  0.00    -0.264 OA
HETATM    4  H   UNL     1      -6.263   0.250 -34.076  1.00  0.00     0.192 HD
ENDROOT
BRANCH   2   5
HETATM    5  C   UNL     1      -8.326   0.831 -32.757  1.00  0.00     0.121 A 
HETATM    6  N   UNL     1      -9.487   0.113 -32.690  1.00  0.00    -0.272 N 
HETATM    7  H   UNL     1      -9.612  -0.801 -32.262  1.00  0.00     0.189 HD
HETATM    8  N   UNL     1     -10.537   0.711 -33.271  1.00  0.00    -0.174 NA
HETATM    9  C   UNL     1     -10.065   1.895 -33.692  1.00  0.00     0.089 A 
HETATM   10  C   UNL     1      -8.675   2.000 -33.403  1.00  0.00     0.071 A 
BRANCH   9  11
HETATM   11  C   UNL     1     -10.932   2.880 -34.346  1.00  0.00    -0.005 A 
HETATM   12  C   UNL     1     -11.956   2.476 -35.219  1.00  0.00     0.017 A 
HETATM   13  C   UNL     1     -12.774   3.424 -35.841  1.00  0.00     0.043 A 
HETATM   14  C   UNL     1     -12.570   4.777 -35.592  1.00  0.00     0.116 A 
HETATM   15  F   UNL     1     -13.355   5.682 -36.190  1.00  0.00    -0.206 F 
HETATM   16  C   UNL     1     -11.563   5.200 -34.736  1.00  0.00     0.043 A 
HETATM   17  C   UNL     1     -10.743   4.254 -34.117  1.00  0.00     0.017 A 
ENDBRANCH   9  11
ENDBRANCH   2   5
BRANCH   1  18
HETATM   18  N   UNL     1      -4.875  -0.341 -32.693  1.00  0.00    -0.165 NA
HETATM   19  C   UNL     1      -4.577  -1.563 -33.003  1.00  0.00     0.157 A 
HETATM   20  C   UNL     1      -5.220  -2.594 -33.833  1.00  0.00     0.027 A 
HETATM   21  C   UNL     1      -3.300  -2.224 -32.436  1.00  0.00     0.277 A 
HETATM   22  C   UNL     1      -6.326  -2.591 -34.664  1.00  0.00     0.016 A 
HETATM   23  C   UNL     1      -4.436  -3.744 -33.697  1.00  0.00     0.048 A 
HETATM   24  C   UNL     1      -6.659  -3.785 -35.317  1.00  0.00     0.001 A 
HETATM   25  C   UNL     1      -5.880  -4.944 -35.149  1.00  0.00     0.002 A 
HETATM   26  C   UNL     1      -4.745  -4.928 -34.337  1.00  0.00     0.030 A 
HETATM   27  N   UNL     1      -3.332  -3.523 -32.885  1.00  0.00    -0.321 N 
HETATM   28  H   UNL     1      -2.608  -4.190 -32.664  1.00  0.00     0.169 HD
HETATM   29  O   UNL     1      -2.461  -1.702 -31.737  1.00  0.00    -0.266 OA
ENDBRANCH   1  18
TORSDOF 3
ENDMDL
MODEL 7
REMARK VINA RESULT:      -8.4      6.640      9.157
REMARK  3 active torsions:
REMARK  status: ('A' for Active; 'I' for Inactive)
REMARK    1  A    between atoms: N_7  and  N_8 
REMARK       I    between atoms: N_8  and  C_9 
REMARK    2  A    between atoms: C_9  and  C_10 
REMARK    3  A    between atoms: C_14  and  C_15 
ROOT
HETATM    1  N   UNL     1      -6.139   2.840 -32.138  1.00  0.00    -0.241 N 
HETATM    2  C   UNL     1      -5.720   3.757 -33.094  1.00  0.00     0.289 C 
HETATM    3  O   UNL     1      -6.335   4.024 -34.122  1.00  0.00    -0.264 OA
HETATM    4  H   UNL     1      -5.474   2.523 -31.451  1.00  0.00     0.192 HD
ENDROOT
BRANCH   2   5
HETATM    5  C   UNL     1      -4.461   4.392 -32.798  1.00  0.00     0.121 A 
HETATM    6  N   UNL     1      -3.555   4.666 -33.783  1.00  0.00    -0.272 N 
HETATM    7  H   UNL     1      -3.656   4.463 -34.775  1.00  0.00     0.189 HD
HETATM    8  N   UNL     1      -2.430   5.253 -33.349  1.00  0.00    -0.174 NA
HETATM    9  C   UNL     1      -2.622   5.422 -32.032  1.00  0.00     0.089 A 
HETATM   10  C   UNL     1      -3.879   4.878 -31.644  1.00  0.00     0.071 A 
BRANCH   9  11
HETATM   11  C   UNL     1      -1.623   6.087 -31.189  1.00  0.00    -0.005 A 
HETATM   12  C   UNL     1      -1.991   6.707 -29.983  1.00  0.00     0.017 A 
HETATM   13  C   UNL     1      -1.030   7.342 -29.190  1.00  0.00     0.043 A 
HETATM   14  C   UNL     1       0.298   7.359 -29.599  1.00  0.00     0.116 A 
HETATM   15  F   UNL     1       1.214   7.968 -28.836  1.00  0.00    -0.206 F 
HETATM   16  C   UNL     1       0.685   6.756 -30.788  1.00  0.00     0.043 A 
HETATM   17  C   UNL     1      -0.274   6.124 -31.582  1.00  0.00     0.017 A 
ENDBRANCH   9  11
ENDBRANCH   2   5
BRANCH   1  18
HETATM   18  N   UNL     1      -7.269   2.113 -32.345  1.00  0.00    -0.165 NA
HETATM   19  C   UNL     1      -7.198   0.913 -32.828  1.00  0.00     0.157 A 
HETATM   20  C   UNL     1      -6.086   0.011 -33.169  1.00  0.00     0.027 A 
HETATM   21  C   UNL     1      -8.486   0.139 -33.191  1.00  0.00     0.277 A 
HETATM   22  C   UNL     1      -4.715   0.085 -32.997  1.00  0.00     0.016 A 
HETATM   23  C   UNL     1      -6.671  -1.127 -33.734  1.00  0.00     0.048 A 
HETATM   24  C   UNL     1      -3.938  -0.987 -33.453  1.00  0.00     0.001 A 
HETATM   25  C   UNL     1      -4.535  -2.113 -34.048  1.00  0.00     0.002 A 
HETATM   26  C   UNL     1      -5.922  -2.196 -34.184  1.00  0.00     0.030 A 
HETATM   27  N   UNL     1      -8.057  -1.042 -33.748  1.00  0.00    -0.321 N 
HETATM   28  H   UNL     1      -8.696  -1.750 -34.077  1.00  0.00     0.169 HD
HETATM   29  O   UNL     1      -9.626   0.509 -33.027  1.00  0.00    -0.266 OA
ENDBRANCH   1  18
TORSDOF 3
ENDMDL
MODEL 8
REMARK VINA RESULT:      -8.4      3.780      8.414
REMARK  3 active torsions:
REMARK  status: ('A' for Active; 'I' for Inactive)
REMARK    1  A    between atoms: N_7  and  N_8 
REMARK       I    between atoms: N_8  and  C_9 
REMARK    2  A    between atoms: C_9  and  C_10 
REMARK    3  A    between atoms: C_14  and  C_15 
ROOT
HETATM    1  N   UNL     1      -7.900   3.503 -32.755  1.00  0.00    -0.241 N 
HETATM    2  C   UNL     1      -6.857   3.280 -33.645  1.00  0.00     0.289 C 
HETATM    3  O   UNL     1      -6.416   4.115 -34.428  1.00  0.00    -0.264 OA
HETATM    4  H   UNL     1      -8.338   2.709 -32.317  1.00  0.00     0.192 HD
ENDROOT
BRANCH   2   5
HETATM    5  C   UNL     1      -6.309   1.947 -33.596  1.00  0.00     0.121 A 
HETATM    6  N   UNL     1      -5.323   1.617 -32.710  1.00  0.00    -0.272 N 
HETATM    7  H   UNL     1      -4.887   2.234 -32.029  1.00  0.00     0.189 HD
HETATM    8  N   UNL     1      -4.915   0.342 -32.791  1.00  0.00    -0.174 NA
HETATM    9  C   UNL     1      -5.698  -0.207 -33.732  1.00  0.00     0.089 A 
HETATM   10  C   UNL     1      -6.576   0.774 -34.274  1.00  0.00     0.071 A 
BRANCH   9  11
HETATM   11  C   UNL     1      -5.597  -1.626 -34.084  1.00  0.00    -0.005 A 
HETATM   12  C   UNL     1      -6.721  -2.345 -34.524  1.00  0.00     0.017 A 
HETATM   13  C   UNL     1      -6.613  -3.699 -34.854  1.00  0.00     0.043 A 
HETATM   14  C   UNL     1      -5.383  -4.338 -34.744  1.00  0.00     0.116 A 
HETATM   15  F   UNL     1      -5.284  -5.636 -35.060  1.00  0.00    -0.206 F 
HETATM   16  C   UNL     1      -4.259  -3.650 -34.309  1.00  0.00     0.043 A 
HETATM   17  C   UNL     1      -4.366  -2.298 -33.977  1.00  0.00     0.017 A 
ENDBRANCH   9  11
ENDBRANCH   2   5
BRANCH   1  18
HETATM   18  N   UNL     1      -8.556   4.694 -32.764  1.00  0.00    -0.165 NA
HETATM   19  C   UNL     1      -9.702   4.808 -33.358  1.00  0.00     0.157 A 
HETATM   20  C   UNL     1     -10.609   3.858 -34.023  1.00  0.00     0.027 A 
HETATM   21  C   UNL     1     -10.382   6.190 -33.487  1.00  0.00     0.277 A 
HETATM   22  C   UNL     1     -10.607   2.481 -34.162  1.00  0.00     0.016 A 
HETATM   23  C   UNL     1     -11.658   4.624 -34.541  1.00  0.00     0.048 A 
HETATM   24  C   UNL     1     -11.658   1.894 -34.878  1.00  0.00     0.001 A 
HETATM   25  C   UNL     1     -12.692   2.677 -35.421  1.00  0.00     0.002 A 
HETATM   26  C   UNL     1     -12.704   4.062 -35.245  1.00  0.00     0.030 A 
HETATM   27  N   UNL     1     -11.516   5.970 -34.231  1.00  0.00    -0.321 N 
HETATM   28  H   UNL     1     -12.160   6.710 -34.469  1.00  0.00     0.169 HD
HETATM   29  O   UNL     1      -9.984   7.240 -33.034  1.00  0.00    -0.266 OA
ENDBRANCH   1  18
TORSDOF 3
ENDMDL
MODEL 9
REMARK VINA RESULT:      -8.1      4.484      8.291
REMARK  3 active torsions:
REMARK  status: ('A' for Active; 'I' for Inactive)
REMARK    1  A    between atoms: N_7  and  N_8 
REMARK       I    between atoms: N_8  and  C_9 
REMARK    2  A    between atoms: C_9  and  C_10 
REMARK    3  A    between atoms: C_14  and  C_15 
ROOT
HETATM    1  N   UNL     1      -5.069   3.109 -30.084  1.00  0.00    -0.241 N 
HETATM    2  C   UNL     1      -4.592   3.069 -31.388  1.00  0.00     0.289 C 
HETATM    3  O   UNL     1      -4.289   4.056 -32.051  1.00  0.00    -0.264 OA
HETATM    4  H   UNL     1      -5.499   2.282 -29.703  1.00  0.00     0.192 HD
ENDROOT
BRANCH   2   5
HETATM    5  C   UNL     1      -4.482   1.742 -31.941  1.00  0.00     0.121 A 
HETATM    6  N   UNL     1      -3.366   0.980 -31.738  1.00  0.00    -0.272 N 
HETATM    7  H   UNL     1      -2.537   1.245 -31.212  1.00  0.00     0.189 HD
HETATM    8  N   UNL     1      -3.412  -0.228 -32.319  1.00  0.00    -0.174 NA
HETATM    9  C   UNL     1      -4.628  -0.287 -32.885  1.00  0.00     0.089 A 
HETATM   10  C   UNL     1      -5.324   0.939 -32.684  1.00  0.00     0.071 A 
BRANCH   9  11
HETATM   11  C   UNL     1      -5.090  -1.487 -33.589  1.00  0.00    -0.005 A 
HETATM   12  C   UNL     1      -6.444  -1.649 -33.929  1.00  0.00     0.017 A 
HETATM   13  C   UNL     1      -6.874  -2.800 -34.597  1.00  0.00     0.043 A 
HETATM   14  C   UNL     1      -5.955  -3.790 -34.924  1.00  0.00     0.116 A 
HETATM   15  F   UNL     1      -6.372  -4.890 -35.563  1.00  0.00    -0.206 F 
HETATM   16  C   UNL     1      -4.613  -3.653 -34.596  1.00  0.00     0.043 A 
HETATM   17  C   UNL     1      -4.183  -2.505 -33.927  1.00  0.00     0.017 A 
ENDBRANCH   9  11
ENDBRANCH   2   5
BRANCH   1  18
HETATM   18  N   UNL     1      -5.298   4.307 -29.482  1.00  0.00    -0.165 NA
HETATM   19  C   UNL     1      -6.482   4.831 -29.492  1.00  0.00     0.157 A 
HETATM   20  C   UNL     1      -7.799   4.375 -29.966  1.00  0.00     0.027 A 
HETATM   21  C   UNL     1      -6.714   6.252 -28.929  1.00  0.00     0.277 A 
HETATM   22  C   UNL     1      -8.262   3.176 -30.480  1.00  0.00     0.016 A 
HETATM   23  C   UNL     1      -8.675   5.446 -29.764  1.00  0.00     0.048 A 
HETATM   24  C   UNL     1      -9.613   3.094 -30.836  1.00  0.00     0.001 A 
HETATM   25  C   UNL     1     -10.479   4.188 -30.656  1.00  0.00     0.002 A 
HETATM   26  C   UNL     1     -10.012   5.382 -30.103  1.00  0.00     0.030 A 
HETATM   27  N   UNL     1      -8.039   6.528 -29.170  1.00  0.00    -0.321 N 
HETATM   28  H   UNL     1      -8.468   7.400 -28.899  1.00  0.00     0.169 HD
HETATM   29  O   UNL     1      -5.892   6.966 -28.401  1.00  0.00    -0.266 OA
ENDBRANCH   1  18
TORSDOF 3
ENDMDL
MODEL 10
REMARK VINA RESULT:      -8.1      5.837      8.840
REMARK  3 active torsions:
REMARK  status: ('A' for Active; 'I' for Inactive)
REMARK    1  A    between atoms: N_7  and  N_8 
REMARK       I    between atoms: N_8  and  C_9 
REMARK    2  A    between atoms: C_9  and  C_10 
REMARK    3  A    between atoms: C_14  and  C_15 
ROOT
HETATM    1  N   UNL     1      -3.468   4.189 -33.020  1.00  0.00    -0.241 N 
HETATM    2  C   UNL     1      -3.252   3.117 -32.163  1.00  0.00     0.289 C 
HETATM    3  O   UNL     1      -2.453   3.117 -31.232  1.00  0.00    -0.264 OA
HETATM    4  H   UNL     1      -3.968   4.027 -33.878  1.00  0.00     0.192 HD
ENDROOT
BRANCH   2   5
HETATM    5  C   UNL     1      -4.049   1.952 -32.456  1.00  0.00     0.121 A 
HETATM    6  N   UNL     1      -5.376   1.900 -32.132  1.00  0.00    -0.272 N 
HETATM    7  H   UNL     1      -5.917   2.628 -31.672  1.00  0.00     0.189 HD
HETATM    8  N   UNL     1      -5.979   0.750 -32.463  1.00  0.00    -0.174 NA
HETATM    9  C   UNL     1      -5.026   0.032 -33.079  1.00  0.00     0.089 A 
HETATM   10  C   UNL     1      -3.795   0.747 -33.079  1.00  0.00     0.071 A 
BRANCH   9  11
HETATM   11  C   UNL     1      -5.306  -1.291 -33.644  1.00  0.00    -0.005 A 
HETATM   12  C   UNL     1      -4.290  -2.254 -33.770  1.00  0.00     0.017 A 
HETATM   13  C   UNL     1      -4.568  -3.512 -34.314  1.00  0.00     0.043 A 
HETATM   14  C   UNL     1      -5.859  -3.810 -34.735  1.00  0.00     0.116 A 
HETATM   15  F   UNL     1      -6.120  -5.015 -35.256  1.00  0.00    -0.206 F 
HETATM   16  C   UNL     1      -6.878  -2.874 -34.623  1.00  0.00     0.043 A 
HETATM   17  C   UNL     1      -6.602  -1.617 -34.082  1.00  0.00     0.017 A 
ENDBRANCH   9  11
ENDBRANCH   2   5
BRANCH   1  18
HETATM   18  N   UNL     1      -2.716   5.316 -32.899  1.00  0.00    -0.165 NA
HETATM   19  C   UNL     1      -3.171   6.344 -32.256  1.00  0.00     0.157 A 
HETATM   20  C   UNL     1      -4.388   6.603 -31.470  1.00  0.00     0.027 A 
HETATM   21  C   UNL     1      -2.376   7.669 -32.236  1.00  0.00     0.277 A 
HETATM   22  C   UNL     1      -5.437   5.802 -31.050  1.00  0.00     0.016 A 
HETATM   23  C   UNL     1      -4.331   7.950 -31.102  1.00  0.00     0.048 A 
HETATM   24  C   UNL     1      -6.454   6.398 -30.295  1.00  0.00     0.001 A 
HETATM   25  C   UNL     1      -6.402   7.762 -29.956  1.00  0.00     0.002 A 
HETATM   26  C   UNL     1      -5.322   8.554 -30.353  1.00  0.00     0.030 A 
HETATM   27  N   UNL     1      -3.168   8.560 -31.552  1.00  0.00    -0.321 N 
HETATM   28  H   UNL     1      -2.889   9.515 -31.385  1.00  0.00     0.169 HD
HETATM   29  O   UNL     1      -1.290   7.871 -32.731  1.00  0.00    -0.266 OA
ENDBRANCH   1  18
TORSDOF 3
ENDMDL
