MODEL 1
REMARK VINA RESULT:      -8.8      0.000      0.000
REMARK  3 active torsions:
REMARK  status: ('A' for Active; 'I' for Inactive)
REMARK    1  A    between atoms: C_5  and  N_6 
REMARK    2  A    between atoms: C_10  and  C_11 
REMARK    3  A    between atoms: C_21  and  O_22 
ROOT
HETATM    1  N   UNL     1      -4.992   0.664 -33.285  1.00  0.00    -0.231 N 
HETATM    2  N   UNL     1      -5.990   1.545 -32.891  1.00  0.00    -0.257 N 
HETATM    3  C   UNL     1      -5.378   2.623 -32.276  1.00  0.00     0.275 C 
HETATM    4  O   UNL     1      -5.885   3.696 -32.000  1.00  0.00    -0.266 OA
HETATM    5  C   UNL     1      -3.946   2.261 -32.060  1.00  0.00     0.087 C 
HETATM    6  C   UNL     1      -3.807   1.097 -32.723  1.00  0.00     0.178 C 
HETATM    7  H   UNL     1      -6.834   1.669 -33.429  1.00  0.00     0.191 HD
ENDROOT
BRANCH   5   8
HETATM    8  C   UNL     1      -2.977   3.102 -31.417  1.00  0.00     0.035 C 
HETATM    9  C   UNL     1      -2.283   4.088 -31.996  1.00  0.00    -0.005 A 
HETATM   10  C   UNL     1      -1.362   5.028 -31.372  1.00  0.00     0.004 A 
HETATM   11  C   UNL     1      -2.285   4.493 -33.429  1.00  0.00     0.129 A 
HETATM   12  C   UNL     1      -0.955   5.866 -32.424  1.00  0.00     0.067 A 
HETATM   13  C   UNL     1      -0.918   5.219 -30.075  1.00  0.00     0.014 A 
HETATM   14  C   UNL     1      -0.087   6.917 -32.193  1.00  0.00     0.032 A 
HETATM   15  N   UNL     1      -1.526   5.524 -33.673  1.00  0.00    -0.259 NA
HETATM   16  C   UNL     1       0.369   7.125 -30.888  1.00  0.00     0.002 A 
HETATM   17  C   UNL     1      -0.043   6.283 -29.839  1.00  0.00     0.001 A 
ENDBRANCH   5   8
BRANCH   6  18
HETATM   18  O   UNL     1      -2.626   0.429 -32.919  1.00  0.00    -0.344 OA
HETATM   19  H   UNL     1      -2.294   0.122 -32.060  1.00  0.00     0.219 HD
ENDBRANCH   6  18
BRANCH   1  20
HETATM   20  C   UNL     1      -5.389  -0.635 -33.687  1.00  0.00     0.059 A 
HETATM   21  C   UNL     1      -6.734  -0.923 -33.981  1.00  0.00     0.032 A 
HETATM   22  C   UNL     1      -7.134  -2.190 -34.428  1.00  0.00     0.009 A 
HETATM   23  C   UNL     1      -6.199  -3.214 -34.585  1.00  0.00    -0.062 A 
HETATM   24  C   UNL     1      -6.603  -4.561 -35.102  1.00  0.00     0.048 C 
HETATM   25  C   UNL     1      -4.860  -2.948 -34.294  1.00  0.00     0.009 A 
HETATM   26  C   UNL     1      -4.465  -1.678 -33.853  1.00  0.00     0.032 A 
ENDBRANCH   1  20
TORSDOF 3
ENDMDL
MODEL 2
REMARK VINA RESULT:      -8.7      2.269      8.679
REMARK  3 active torsions:
REMARK  status: ('A' for Active; 'I' for Inactive)
REMARK    1  A    between atoms: C_5  and  N_6 
REMARK    2  A    between atoms: C_10  and  C_11 
REMARK    3  A    between atoms: C_21  and  O_22 
ROOT
HETATM    1  N   UNL     1      -1.598   5.833 -31.389  1.00  0.00    -0.231 N 
HETATM    2  N   UNL     1      -0.963   5.628 -32.606  1.00  0.00    -0.257 N 
HETATM    3  C   UNL     1      -1.833   4.925 -33.421  1.00  0.00     0.275 C 
HETATM    4  O   UNL     1      -1.736   4.752 -34.623  1.00  0.00    -0.266 OA
HETATM    5  C   UNL     1      -2.965   4.457 -32.567  1.00  0.00     0.087 C 
HETATM    6  C   UNL     1      -2.754   5.074 -31.389  1.00  0.00     0.178 C 
HETATM    7  H   UNL     1      -0.327   6.308 -32.995  1.00  0.00     0.191 HD
ENDROOT
BRANCH   5   8
HETATM    8  C   UNL     1      -4.065   3.661 -33.031  1.00  0.00     0.035 C 
HETATM    9  C   UNL     1      -4.349   2.411 -32.648  1.00  0.00    -0.005 A 
HETATM   10  C   UNL     1      -5.498   1.595 -33.015  1.00  0.00     0.004 A 
HETATM   11  C   UNL     1      -3.570   1.533 -31.732  1.00  0.00     0.129 A 
HETATM   12  C   UNL     1      -5.317   0.398 -32.301  1.00  0.00     0.067 A 
HETATM   13  C   UNL     1      -6.607   1.805 -33.816  1.00  0.00     0.014 A 
HETATM   14  C   UNL     1      -6.250  -0.618 -32.381  1.00  0.00     0.032 A 
HETATM   15  N   UNL     1      -4.133   0.376 -31.525  1.00  0.00    -0.259 NA
HETATM   16  C   UNL     1      -7.376  -0.422 -33.185  1.00  0.00     0.002 A 
HETATM   17  C   UNL     1      -7.553   0.778 -33.896  1.00  0.00     0.001 A 
ENDBRANCH   5   8
BRANCH   6  18
HETATM   18  O   UNL     1      -3.606   5.054 -30.316  1.00  0.00    -0.344 OA
HETATM   19  H   UNL     1      -3.152   4.637 -29.564  1.00  0.00     0.219 HD
ENDBRANCH   6  18
BRANCH   1  20
HETATM   20  C   UNL     1      -0.806   6.286 -30.306  1.00  0.00     0.059 A 
HETATM   21  C   UNL     1      -0.867   7.622 -29.874  1.00  0.00     0.032 A 
HETATM   22  C   UNL     1      -0.127   8.074 -28.772  1.00  0.00     0.009 A 
HETATM   23  C   UNL     1       0.708   7.200 -28.074  1.00  0.00    -0.062 A 
HETATM   24  C   UNL     1       1.473   7.655 -26.868  1.00  0.00     0.048 C 
HETATM   25  C   UNL     1       0.785   5.870 -28.491  1.00  0.00     0.009 A 
HETATM   26  C   UNL     1       0.039   5.424 -29.590  1.00  0.00     0.032 A 
ENDBRANCH   1  20
TORSDOF 3
ENDMDL
MODEL 3
REMARK VINA RESULT:      -8.5      1.834      2.395
REMARK  3 active torsions:
REMARK  status: ('A' for Active; 'I' for Inactive)
REMARK    1  A    between atoms: C_5  and  N_6 
REMARK    2  A    between atoms: C_10  and  C_11 
REMARK    3  A    between atoms: C_21  and  O_22 
ROOT
HETATM    1  N   UNL     1      -6.075   0.368 -32.471  1.00  0.00    -0.231 N 
HETATM    2  N   UNL     1      -5.841   0.225 -31.110  1.00  0.00    -0.257 N 
HETATM    3  C   UNL     1      -5.598   1.485 -30.592  1.00  0.00     0.275 C 
HETATM    4  O   UNL     1      -5.575   1.804 -29.416  1.00  0.00    -0.266 OA
HETATM    5  C   UNL     1      -5.427   2.417 -31.746  1.00  0.00     0.087 C 
HETATM    6  C   UNL     1      -5.762   1.670 -32.814  1.00  0.00     0.178 C 
HETATM    7  H   UNL     1      -6.312  -0.477 -30.560  1.00  0.00     0.191 HD
ENDROOT
BRANCH   5   8
HETATM    8  C   UNL     1      -5.126   3.816 -31.630  1.00  0.00     0.035 C 
HETATM    9  C   UNL     1      -3.903   4.359 -31.609  1.00  0.00    -0.005 A 
HETATM   10  C   UNL     1      -3.544   5.770 -31.586  1.00  0.00     0.004 A 
HETATM   11  C   UNL     1      -2.588   3.660 -31.619  1.00  0.00     0.129 A 
HETATM   12  C   UNL     1      -2.139   5.772 -31.615  1.00  0.00     0.067 A 
HETATM   13  C   UNL     1      -4.274   6.946 -31.581  1.00  0.00     0.014 A 
HETATM   14  C   UNL     1      -1.436   6.962 -31.637  1.00  0.00     0.032 A 
HETATM   15  N   UNL     1      -1.572   4.475 -31.633  1.00  0.00    -0.259 NA
HETATM   16  C   UNL     1      -2.159   8.158 -31.633  1.00  0.00     0.002 A 
HETATM   17  C   UNL     1      -3.564   8.150 -31.606  1.00  0.00     0.001 A 
ENDBRANCH   5   8
BRANCH   6  18
HETATM   18  O   UNL     1      -5.880   2.128 -34.100  1.00  0.00    -0.344 OA
HETATM   19  H   UNL     1      -5.161   1.751 -34.634  1.00  0.00     0.219 HD
ENDBRANCH   6  18
BRANCH   1  20
HETATM   20  C   UNL     1      -6.074  -0.808 -33.261  1.00  0.00     0.059 A 
HETATM   21  C   UNL     1      -4.882  -1.511 -33.511  1.00  0.00     0.032 A 
HETATM   22  C   UNL     1      -4.872  -2.703 -34.249  1.00  0.00     0.009 A 
HETATM   23  C   UNL     1      -6.058  -3.223 -34.769  1.00  0.00    -0.062 A 
HETATM   24  C   UNL     1      -6.072  -4.519 -35.523  1.00  0.00     0.048 C 
HETATM   25  C   UNL     1      -7.251  -2.537 -34.535  1.00  0.00     0.009 A 
HETATM   26  C   UNL     1      -7.255  -1.349 -33.793  1.00  0.00     0.032 A 
ENDBRANCH   1  20
TORSDOF 3
ENDMDL
MODEL 4
REMARK VINA RESULT:      -8.5      5.758      9.178
REMARK  3 active torsions:
REMARK  status: ('A' for Active; 'I' for Inactive)
REMARK    1  A    between atoms: C_5  and  N_6 
REMARK    2  A    between atoms: C_10  and  C_11 
REMARK    3  A    between atoms: C_21  and  O_22 
ROOT
HETATM    1  N   UNL     1      -7.912   1.212 -33.247  1.00  0.00    -0.231 N 
HETATM    2  N   UNL     1      -7.718   2.332 -34.043  1.00  0.00    -0.257 N 
HETATM    3  C   UNL     1      -8.818   3.157 -33.883  1.00  0.00     0.275 C 
HETATM    4  O   UNL     1      -8.922   4.320 -34.231  1.00  0.00    -0.266 OA
HETATM    5  C   UNL     1      -9.855   2.378 -33.141  1.00  0.00     0.087 C 
HETATM    6  C   UNL     1      -9.212   1.253 -32.778  1.00  0.00     0.178 C 
HETATM    7  H   UNL     1      -6.801   2.721 -34.201  1.00  0.00     0.191 HD
ENDROOT
BRANCH   5   8
HETATM    8  C   UNL     1     -11.161   2.870 -32.804  1.00  0.00     0.035 C 
HETATM    9  C   UNL     1     -12.324   2.278 -33.098  1.00  0.00    -0.005 A 
HETATM   10  C   UNL     1     -13.666   2.683 -32.702  1.00  0.00     0.004 A 
HETATM   11  C   UNL     1     -12.549   1.041 -33.895  1.00  0.00     0.129 A 
HETATM   12  C   UNL     1     -14.502   1.691 -33.243  1.00  0.00     0.067 A 
HETATM   13  C   UNL     1     -14.169   3.728 -31.947  1.00  0.00     0.014 A 
HETATM   14  C   UNL     1     -15.868   1.732 -33.036  1.00  0.00     0.032 A 
HETATM   15  N   UNL     1     -13.804   0.698 -33.970  1.00  0.00    -0.259 NA
HETATM   16  C   UNL     1     -16.392   2.779 -32.275  1.00  0.00     0.002 A 
HETATM   17  C   UNL     1     -15.551   3.768 -31.735  1.00  0.00     0.001 A 
ENDBRANCH   5   8
BRANCH   6  18
HETATM   18  O   UNL     1      -9.719   0.274 -31.963  1.00  0.00    -0.344 OA
HETATM   19  H   UNL     1     -10.336  -0.272 -32.477  1.00  0.00     0.219 HD
ENDBRANCH   6  18
BRANCH   1  20
HETATM   20  C   UNL     1      -7.053   0.105 -33.456  1.00  0.00     0.059 A 
HETATM   21  C   UNL     1      -7.313  -0.831 -34.472  1.00  0.00     0.032 A 
HETATM   22  C   UNL     1      -6.446  -1.903 -34.724  1.00  0.00     0.009 A 
HETATM   23  C   UNL     1      -5.293  -2.077 -33.955  1.00  0.00    -0.062 A 
HETATM   24  C   UNL     1      -4.333  -3.193 -34.238  1.00  0.00     0.048 C 
HETATM   25  C   UNL     1      -5.021  -1.160 -32.938  1.00  0.00     0.009 A 
HETATM   26  C   UNL     1      -5.889  -0.088 -32.696  1.00  0.00     0.032 A 
ENDBRANCH   1  20
TORSDOF 3
ENDMDL
MODEL 5
REMARK VINA RESULT:      -8.5      5.655      7.442
REMARK  3 active torsions:
REMARK  status: ('A' for Active; 'I' for Inactive)
REMARK    1  A    between atoms: C_5  and  N_6 
REMARK    2  A    between atoms: C_10  and  C_11 
REMARK    3  A    between atoms: C_21  and  O_22 
ROOT
HETATM    1  N   UNL     1      -7.366  -0.341 -33.604  1.00  0.00    -0.231 N 
HETATM    2  N   UNL     1      -7.691   0.002 -32.299  1.00  0.00    -0.257 N 
HETATM    3  C   UNL     1      -8.378   1.202 -32.339  1.00  0.00     0.275 C 
HETATM    4  O   UNL     1      -9.020   1.711 -31.438  1.00  0.00    -0.266 OA
HETATM    5  C   UNL     1      -8.246   1.746 -33.724  1.00  0.00     0.087 C 
HETATM    6  C   UNL     1      -7.660   0.745 -34.407  1.00  0.00     0.178 C 
HETATM    7  H   UNL     1      -7.911  -0.696 -31.605  1.00  0.00     0.191 HD
ENDROOT
BRANCH   5   8
HETATM    8  C   UNL     1      -8.792   2.998 -34.166  1.00  0.00     0.035 C 
HETATM    9  C   UNL     1     -10.061   3.218 -34.528  1.00  0.00    -0.005 A 
HETATM   10  C   UNL     1     -10.686   4.481 -34.895  1.00  0.00     0.004 A 
HETATM   11  C   UNL     1     -11.169   2.230 -34.637  1.00  0.00     0.129 A 
HETATM   12  C   UNL     1     -12.029   4.146 -35.140  1.00  0.00     0.067 A 
HETATM   13  C   UNL     1     -10.233   5.785 -34.987  1.00  0.00     0.014 A 
HETATM   14  C   UNL     1     -12.947   5.119 -35.486  1.00  0.00     0.032 A 
HETATM   15  N   UNL     1     -12.306   2.767 -34.980  1.00  0.00    -0.259 NA
HETATM   16  C   UNL     1     -12.505   6.442 -35.583  1.00  0.00     0.002 A 
HETATM   17  C   UNL     1     -11.161   6.772 -35.335  1.00  0.00     0.001 A 
ENDBRANCH   5   8
BRANCH   6  18
HETATM   18  O   UNL     1      -7.443   0.725 -35.760  1.00  0.00    -0.344 OA
HETATM   19  H   UNL     1      -8.275   0.498 -36.207  1.00  0.00     0.219 HD
ENDBRANCH   6  18
BRANCH   1  20
HETATM   20  C   UNL     1      -6.425  -1.384 -33.791  1.00  0.00     0.059 A 
HETATM   21  C   UNL     1      -5.139  -1.308 -33.230  1.00  0.00     0.032 A 
HETATM   22  C   UNL     1      -4.214  -2.353 -33.364  1.00  0.00     0.009 A 
HETATM   23  C   UNL     1      -4.548  -3.507 -34.075  1.00  0.00    -0.062 A 
HETATM   24  C   UNL     1      -3.588  -4.652 -34.192  1.00  0.00     0.048 C 
HETATM   25  C   UNL     1      -5.820  -3.599 -34.643  1.00  0.00     0.009 A 
HETATM   26  C   UNL     1      -6.741  -2.553 -34.501  1.00  0.00     0.032 A 
ENDBRANCH   1  20
TORSDOF 3
ENDMDL
MODEL 6
REMARK VINA RESULT:      -8.4     17.225     19.071
REMARK  3 active torsions:
REMARK  status: ('A' for Active; 'I' for Inactive)
REMARK    1  A    between atoms: C_5  and  N_6 
REMARK    2  A    between atoms: C_10  and  C_11 
REMARK    3  A    between atoms: C_21  and  O_22 
ROOT
HETATM    1  N   UNL     1      -2.478 -13.789 -39.798  1.00  0.00    -0.231 N 
HETATM    2  N   UNL     1      -2.606 -14.187 -41.121  1.00  0.00    -0.257 N 
HETATM    3  C   UNL     1      -3.854 -13.783 -41.562  1.00  0.00     0.275 C 
HETATM    4  O   UNL     1      -4.250 -13.746 -42.714  1.00  0.00    -0.266 OA
HETATM    5  C   UNL     1      -4.627 -13.336 -40.365  1.00  0.00     0.087 C 
HETATM    6  C   UNL     1      -3.715 -13.343 -39.374  1.00  0.00     0.178 C 
HETATM    7  H   UNL     1      -1.818 -14.205 -41.751  1.00  0.00     0.191 HD
ENDROOT
BRANCH   5   8
HETATM    8  C   UNL     1      -5.985 -12.872 -40.394  1.00  0.00     0.035 C 
HETATM    9  C   UNL     1      -7.074 -13.636 -40.527  1.00  0.00    -0.005 A 
HETATM   10  C   UNL     1      -8.472 -13.229 -40.471  1.00  0.00     0.004 A 
HETATM   11  C   UNL     1      -7.143 -15.107 -40.751  1.00  0.00     0.129 A 
HETATM   12  C   UNL     1      -9.189 -14.428 -40.627  1.00  0.00     0.067 A 
HETATM   13  C   UNL     1      -9.112 -12.018 -40.275  1.00  0.00     0.014 A 
HETATM   14  C   UNL     1     -10.571 -14.433 -40.592  1.00  0.00     0.032 A 
HETATM   15  N   UNL     1      -8.362 -15.564 -40.799  1.00  0.00    -0.259 NA
HETATM   16  C   UNL     1     -11.233 -13.218 -40.394  1.00  0.00     0.002 A 
HETATM   17  C   UNL     1     -10.510 -12.022 -40.237  1.00  0.00     0.001 A 
ENDBRANCH   5   8
BRANCH   6  18
HETATM   18  O   UNL     1      -3.922 -12.885 -38.099  1.00  0.00    -0.344 OA
HETATM   19  H   UNL     1      -3.574 -11.980 -38.031  1.00  0.00     0.219 HD
ENDBRANCH   6  18
BRANCH   1  20
HETATM   20  C   UNL     1      -1.401 -14.330 -39.054  1.00  0.00     0.059 A 
HETATM   21  C   UNL     1      -1.627 -15.265 -38.028  1.00  0.00     0.032 A 
HETATM   22  C   UNL     1      -0.569 -15.847 -37.316  1.00  0.00     0.009 A 
HETATM   23  C   UNL     1       0.753 -15.502 -37.605  1.00  0.00    -0.062 A 
HETATM   24  C   UNL     1       1.898 -16.147 -36.884  1.00  0.00     0.048 C 
HETATM   25  C   UNL     1       0.997 -14.573 -38.618  1.00  0.00     0.009 A 
HETATM   26  C   UNL     1      -0.065 -13.999 -39.329  1.00  0.00     0.032 A 
ENDBRANCH   1  20
TORSDOF 3
ENDMDL
MODEL 7
REMARK VINA RESULT:      -8.1      2.750      3.562
REMARK  3 active torsions:
REMARK  status: ('A' for Active; 'I' for Inactive)
REMARK    1  A    between atoms: C_5  and  N_6 
REMARK    2  A    between atoms: C_10  and  C_11 
REMARK    3  A    between atoms: C_21  and  O_22 
ROOT
HETATM    1  N   UNL     1      -4.997   0.138 -32.754  1.00  0.00    -0.231 N 
HETATM    2  N   UNL     1      -3.767   0.125 -32.109  1.00  0.00    -0.257 N 
HETATM    3  C   UNL     1      -3.486   1.423 -31.718  1.00  0.00     0.275 C 
HETATM    4  O   UNL     1      -2.623   1.784 -30.938  1.00  0.00    -0.266 OA
HETATM    5  C   UNL     1      -4.483   2.315 -32.383  1.00  0.00     0.087 C 
HETATM    6  C   UNL     1      -5.355   1.459 -32.945  1.00  0.00     0.178 C 
HETATM    7  H   UNL     1      -3.467  -0.658 -31.550  1.00  0.00     0.191 HD
ENDROOT
BRANCH   5   8
HETATM    8  C   UNL     1      -4.510   3.745 -32.259  1.00  0.00     0.035 C 
HETATM    9  C   UNL     1      -4.945   4.435 -31.198  1.00  0.00    -0.005 A 
HETATM   10  C   UNL     1      -4.910   5.875 -30.984  1.00  0.00     0.004 A 
HETATM   11  C   UNL     1      -5.565   3.907 -29.951  1.00  0.00     0.129 A 
HETATM   12  C   UNL     1      -5.450   6.048 -29.698  1.00  0.00     0.067 A 
HETATM   13  C   UNL     1      -4.452   6.945 -31.733  1.00  0.00     0.014 A 
HETATM   14  C   UNL     1      -5.545   7.308 -29.138  1.00  0.00     0.032 A 
HETATM   15  N   UNL     1      -5.848   4.837 -29.083  1.00  0.00    -0.259 NA
HETATM   16  C   UNL     1      -5.087   8.400 -29.880  1.00  0.00     0.002 A 
HETATM   17  C   UNL     1      -4.545   8.220 -31.165  1.00  0.00     0.001 A 
ENDBRANCH   5   8
BRANCH   6  18
HETATM   18  O   UNL     1      -6.525   1.808 -33.568  1.00  0.00    -0.344 OA
HETATM   19  H   UNL     1      -6.691   1.185 -34.294  1.00  0.00     0.219 HD
ENDBRANCH   6  18
BRANCH   1  20
HETATM   20  C   UNL     1      -5.364  -1.021 -33.482  1.00  0.00     0.059 A 
HETATM   21  C   UNL     1      -4.388  -1.869 -34.033  1.00  0.00     0.032 A 
HETATM   22  C   UNL     1      -4.734  -3.045 -34.713  1.00  0.00     0.009 A 
HETATM   23  C   UNL     1      -6.074  -3.403 -34.871  1.00  0.00    -0.062 A 
HETATM   24  C   UNL     1      -6.460  -4.679 -35.557  1.00  0.00     0.048 C 
HETATM   25  C   UNL     1      -7.057  -2.571 -34.334  1.00  0.00     0.009 A 
HETATM   26  C   UNL     1      -6.705  -1.400 -33.651  1.00  0.00     0.032 A 
ENDBRANCH   1  20
TORSDOF 3
ENDMDL
MODEL 8
REMARK VINA RESULT:      -8.1      3.346      4.722
REMARK  3 active torsions:
REMARK  status: ('A' for Active; 'I' for Inactive)
REMARK    1  A    between atoms: C_5  and  N_6 
REMARK    2  A    between atoms: C_10  and  C_11 
REMARK    3  A    between atoms: C_21  and  O_22 
ROOT
HETATM    1  N   UNL     1      -4.859  -0.118 -32.291  1.00  0.00    -0.231 N 
HETATM    2  N   UNL     1      -3.770   0.642 -32.694  1.00  0.00    -0.257 N 
HETATM    3  C   UNL     1      -3.794   1.824 -31.974  1.00  0.00     0.275 C 
HETATM    4  O   UNL     1      -2.897   2.642 -31.877  1.00  0.00    -0.266 OA
HETATM    5  C   UNL     1      -5.111   1.893 -31.274  1.00  0.00     0.087 C 
HETATM    6  C   UNL     1      -5.656   0.683 -31.495  1.00  0.00     0.178 C 
HETATM    7  H   UNL     1      -2.895   0.218 -32.962  1.00  0.00     0.191 HD
ENDROOT
BRANCH   5   8
HETATM    8  C   UNL     1      -5.540   2.985 -30.447  1.00  0.00     0.035 C 
HETATM    9  C   UNL     1      -6.633   3.733 -30.636  1.00  0.00    -0.005 A 
HETATM   10  C   UNL     1      -7.163   4.787 -29.781  1.00  0.00     0.004 A 
HETATM   11  C   UNL     1      -7.603   3.673 -31.764  1.00  0.00     0.129 A 
HETATM   12  C   UNL     1      -8.338   5.202 -30.429  1.00  0.00     0.067 A 
HETATM   13  C   UNL     1      -6.762   5.337 -28.576  1.00  0.00     0.014 A 
HETATM   14  C   UNL     1      -9.138   6.186 -29.877  1.00  0.00     0.032 A 
HETATM   15  N   UNL     1      -8.591   4.513 -31.639  1.00  0.00    -0.259 NA
HETATM   16  C   UNL     1      -8.748   6.751 -28.660  1.00  0.00     0.002 A 
HETATM   17  C   UNL     1      -7.571   6.330 -28.015  1.00  0.00     0.001 A 
ENDBRANCH   5   8
BRANCH   6  18
HETATM   18  O   UNL     1      -6.822   0.222 -30.941  1.00  0.00    -0.344 OA
HETATM   19  H   UNL     1      -7.320   0.977 -30.586  1.00  0.00     0.219 HD
ENDBRANCH   6  18
BRANCH   1  20
HETATM   20  C   UNL     1      -5.199  -1.244 -33.081  1.00  0.00     0.059 A 
HETATM   21  C   UNL     1      -6.486  -1.379 -33.631  1.00  0.00     0.032 A 
HETATM   22  C   UNL     1      -6.823  -2.461 -34.457  1.00  0.00     0.009 A 
HETATM   23  C   UNL     1      -5.881  -3.449 -34.749  1.00  0.00    -0.062 A 
HETATM   24  C   UNL     1      -6.211  -4.590 -35.664  1.00  0.00     0.048 C 
HETATM   25  C   UNL     1      -4.599  -3.334 -34.208  1.00  0.00     0.009 A 
HETATM   26  C   UNL     1      -4.267  -2.247 -33.388  1.00  0.00     0.032 A 
ENDBRANCH   1  20
TORSDOF 3
ENDMDL
MODEL 9
REMARK VINA RESULT:      -8.0      2.692      8.769
REMARK  3 active torsions:
REMARK  status: ('A' for Active; 'I' for Inactive)
REMARK    1  A    between atoms: C_5  and  N_6 
REMARK    2  A    between atoms: C_10  and  C_11 
REMARK    3  A    between atoms: C_21  and  O_22 
ROOT
HETATM    1  N   UNL     1      -1.974   5.847 -31.545  1.00  0.00    -0.231 N 
HETATM    2  N   UNL     1      -1.379   5.727 -32.793  1.00  0.00    -0.257 N 
HETATM    3  C   UNL     1      -2.141   4.844 -33.538  1.00  0.00     0.275 C 
HETATM    4  O   UNL     1      -2.078   4.652 -34.739  1.00  0.00    -0.266 OA
HETATM    5  C   UNL     1      -3.113   4.198 -32.606  1.00  0.00     0.087 C 
HETATM    6  C   UNL     1      -2.960   4.883 -31.458  1.00  0.00     0.178 C 
HETATM    7  H   UNL     1      -0.907   6.501 -33.235  1.00  0.00     0.191 HD
ENDROOT
BRANCH   5   8
HETATM    8  C   UNL     1      -4.063   3.191 -32.985  1.00  0.00     0.035 C 
HETATM    9  C   UNL     1      -5.379   3.373 -33.149  1.00  0.00    -0.005 A 
HETATM   10  C   UNL     1      -6.369   2.414 -33.620  1.00  0.00     0.004 A 
HETATM   11  C   UNL     1      -6.172   4.610 -32.908  1.00  0.00     0.129 A 
HETATM   12  C   UNL     1      -7.573   3.139 -33.640  1.00  0.00     0.067 A 
HETATM   13  C   UNL     1      -6.306   1.094 -34.031  1.00  0.00     0.014 A 
HETATM   14  C   UNL     1      -8.744   2.548 -34.074  1.00  0.00     0.032 A 
HETATM   15  N   UNL     1      -7.435   4.478 -33.200  1.00  0.00    -0.259 NA
HETATM   16  C   UNL     1      -8.698   1.215 -34.493  1.00  0.00     0.002 A 
HETATM   17  C   UNL     1      -7.491   0.496 -34.472  1.00  0.00     0.001 A 
ENDBRANCH   5   8
BRANCH   6  18
HETATM   18  O   UNL     1      -3.732   4.737 -30.335  1.00  0.00    -0.344 OA
HETATM   19  H   UNL     1      -3.504   5.440 -29.705  1.00  0.00     0.219 HD
ENDBRANCH   6  18
BRANCH   1  20
HETATM   20  C   UNL     1      -1.225   6.480 -30.522  1.00  0.00     0.059 A 
HETATM   21  C   UNL     1      -0.095   5.858 -29.963  1.00  0.00     0.032 A 
HETATM   22  C   UNL     1       0.686   6.492 -28.985  1.00  0.00     0.009 A 
HETATM   23  C   UNL     1       0.351   7.768 -28.530  1.00  0.00    -0.062 A 
HETATM   24  C   UNL     1       1.198   8.478 -27.518  1.00  0.00     0.048 C 
HETATM   25  C   UNL     1      -0.770   8.400 -29.072  1.00  0.00     0.009 A 
HETATM   26  C   UNL     1      -1.543   7.763 -30.051  1.00  0.00     0.032 A 
ENDBRANCH   1  20
TORSDOF 3
ENDMDL
MODEL 10
REMARK VINA RESULT:      -7.9      1.954      2.385
REMARK  3 active torsions:
REMARK  status: ('A' for Active; 'I' for Inactive)
REMARK    1  A    between atoms: C_5  and  N_6 
REMARK    2  A    between atoms: C_10  and  C_11 
REMARK    3  A    between atoms: C_21  and  O_22 
ROOT
HETATM    1  N   UNL     1      -5.596   0.971 -33.701  1.00  0.00    -0.231 N 
HETATM    2  N   UNL     1      -6.391   1.871 -34.396  1.00  0.00    -0.257 N 
HETATM    3  C   UNL     1      -6.312   3.090 -33.744  1.00  0.00     0.275 C 
HETATM    4  O   UNL     1      -6.680   4.173 -34.164  1.00  0.00    -0.266 OA
HETATM    5  C   UNL     1      -5.630   2.854 -32.437  1.00  0.00     0.087 C 
HETATM    6  C   UNL     1      -5.213   1.577 -32.519  1.00  0.00     0.178 C 
HETATM    7  H   UNL     1      -6.494   1.828 -35.398  1.00  0.00     0.191 HD
ENDROOT
BRANCH   5   8
HETATM    8  C   UNL     1      -5.384   3.865 -31.448  1.00  0.00     0.035 C 
HETATM    9  C   UNL     1      -4.274   4.603 -31.337  1.00  0.00    -0.005 A 
HETATM   10  C   UNL     1      -4.010   5.700 -30.416  1.00  0.00     0.004 A 
HETATM   11  C   UNL     1      -3.021   4.504 -32.136  1.00  0.00     0.129 A 
HETATM   12  C   UNL     1      -2.719   6.138 -30.758  1.00  0.00     0.067 A 
HETATM   13  C   UNL     1      -4.748   6.316 -29.421  1.00  0.00     0.014 A 
HETATM   14  C   UNL     1      -2.141   7.208 -30.102  1.00  0.00     0.032 A 
HETATM   15  N   UNL     1      -2.129   5.395 -31.809  1.00  0.00    -0.259 NA
HETATM   16  C   UNL     1      -2.874   7.843 -29.095  1.00  0.00     0.002 A 
HETATM   17  C   UNL     1      -4.165   7.401 -28.758  1.00  0.00     0.001 A 
ENDBRANCH   5   8
BRANCH   6  18
HETATM   18  O   UNL     1      -4.421   0.938 -31.601  1.00  0.00    -0.344 OA
HETATM   19  H   UNL     1      -4.731   1.164 -30.709  1.00  0.00     0.219 HD
ENDBRANCH   6  18
BRANCH   1  20
HETATM   20  C   UNL     1      -5.735  -0.403 -34.016  1.00  0.00     0.059 A 
HETATM   21  C   UNL     1      -4.628  -1.269 -33.987  1.00  0.00     0.032 A 
HETATM   22  C   UNL     1      -4.758  -2.640 -34.248  1.00  0.00     0.009 A 
HETATM   23  C   UNL     1      -6.005  -3.186 -34.558  1.00  0.00    -0.062 A 
HETATM   24  C   UNL     1      -6.170  -4.657 -34.797  1.00  0.00     0.048 C 
HETATM   25  C   UNL     1      -7.116  -2.341 -34.595  1.00  0.00     0.009 A 
HETATM   26  C   UNL     1      -6.979  -0.973 -34.328  1.00  0.00     0.032 A 
ENDBRANCH   1  20
TORSDOF 3
ENDMDL
