MODEL 1
REMARK VINA RESULT:      -8.6      0.000      0.000
REMARK  4 active torsions:
REMARK  status: ('A' for Active; 'I' for Inactive)
REMARK    1  A    between atoms: C_9  and  C_10 
REMARK       I    between atoms: C_10  and  N_11 
REMARK    2  A    between atoms: N_11  and  C_12 
REMARK    3  A    between atoms: C_12  and  C_13 
REMARK    4  A    between atoms: C_14  and  O_15 
ROOT
HETATM    1  C   UNL     1      -5.440   3.016 -32.689  1.00  0.00     0.273 C 
HETATM    2  N   UNL     1      -5.814   1.903 -33.408  1.00  0.00    -0.347 N 
HETATM    3  O   UNL     1      -5.711   3.190 -31.505  1.00  0.00    -0.266 OA
HETATM    4  H   UNL     1      -5.367   1.828 -34.318  1.00  0.00     0.163 HD
ENDROOT
BRANCH   1   5
HETATM    5  C   UNL     1      -4.675   3.984 -33.493  1.00  0.00     0.157 A 
HETATM    6  C   UNL     1      -3.407   4.558 -33.179  1.00  0.00     0.029 A 
HETATM    7  C   UNL     1      -2.483   4.464 -32.120  1.00  0.00     0.023 A 
HETATM    8  C   UNL     1      -3.121   5.407 -34.242  1.00  0.00     0.063 A 
HETATM    9  C   UNL     1      -1.303   5.226 -32.158  1.00  0.00    -0.061 A 
HETATM   10  C   UNL     1      -0.312   5.152 -31.032  1.00  0.00     0.048 C 
HETATM   11  C   UNL     1      -1.055   6.069 -33.249  1.00  0.00     0.009 A 
HETATM   12  C   UNL     1      -1.957   6.175 -34.314  1.00  0.00     0.032 A 
HETATM   13  N   UNL     1      -4.185   5.289 -35.092  1.00  0.00    -0.277 N 
HETATM   14  H   UNL     1      -4.315   5.765 -35.978  1.00  0.00     0.189 HD
HETATM   15  N   UNL     1      -5.147   4.449 -34.672  1.00  0.00    -0.168 NA
ENDBRANCH   1   5
BRANCH   2  16
HETATM   16  C   UNL     1      -6.450   0.734 -32.820  1.00  0.00     0.116 C 
HETATM   17  C   UNL     1      -7.949   0.673 -33.132  1.00  0.00     0.037 C 
BRANCH  16  18
HETATM   18  C   UNL     1      -5.783  -0.549 -33.307  1.00  0.00    -0.002 A 
HETATM   19  C   UNL     1      -4.411  -0.785 -33.092  1.00  0.00     0.076 A 
HETATM   20  C   UNL     1      -3.841  -1.984 -33.534  1.00  0.00     0.038 A 
HETATM   21  C   UNL     1      -4.620  -2.955 -34.171  1.00  0.00     0.009 A 
HETATM   22  C   UNL     1      -5.985  -2.750 -34.369  1.00  0.00    -0.061 A 
HETATM   23  C   UNL     1      -6.835  -3.784 -35.044  1.00  0.00     0.048 C 
HETATM   24  C   UNL     1      -6.556  -1.550 -33.933  1.00  0.00     0.018 A 
BRANCH  19  25
HETATM   25  O   UNL     1      -3.722   0.203 -32.439  1.00  0.00    -0.355 OA
HETATM   26  C   UNL     1      -3.208  -0.094 -31.148  1.00  0.00     0.210 C 
ENDBRANCH  19  25
ENDBRANCH  16  18
ENDBRANCH   2  16
TORSDOF 4
ENDMDL
MODEL 2
REMARK VINA RESULT:      -8.4      2.084      7.586
REMARK  4 active torsions:
REMARK  status: ('A' for Active; 'I' for Inactive)
REMARK    1  A    between atoms: C_9  and  C_10 
REMARK       I    between atoms: C_10  and  N_11 
REMARK    2  A    between atoms: N_11  and  C_12 
REMARK    3  A    between atoms: C_12  and  C_13 
REMARK    4  A    between atoms: C_14  and  O_15 
ROOT
HETATM    1  C   UNL     1      -4.376   2.355 -32.190  1.00  0.00     0.273 C 
HETATM    2  N   UNL     1      -3.842   3.369 -31.427  1.00  0.00    -0.347 N 
HETATM    3  O   UNL     1      -5.271   2.516 -33.013  1.00  0.00    -0.266 OA
HETATM    4  H   UNL     1      -2.997   3.109 -30.924  1.00  0.00     0.163 HD
ENDROOT
BRANCH   1   5
HETATM    5  C   UNL     1      -3.756   1.047 -31.914  1.00  0.00     0.157 A 
HETATM    6  C   UNL     1      -4.062  -0.202 -32.533  1.00  0.00     0.029 A 
HETATM    7  C   UNL     1      -4.959  -0.654 -33.522  1.00  0.00     0.023 A 
HETATM    8  C   UNL     1      -3.217  -1.123 -31.926  1.00  0.00     0.063 A 
HETATM    9  C   UNL     1      -4.981  -2.015 -33.868  1.00  0.00    -0.061 A 
HETATM   10  C   UNL     1      -5.940  -2.520 -34.908  1.00  0.00     0.048 C 
HETATM   11  C   UNL     1      -4.111  -2.910 -33.231  1.00  0.00     0.009 A 
HETATM   12  C   UNL     1      -3.210  -2.482 -32.249  1.00  0.00     0.032 A 
HETATM   13  N   UNL     1      -2.485  -0.400 -31.026  1.00  0.00    -0.277 N 
HETATM   14  H   UNL     1      -1.763  -0.748 -30.405  1.00  0.00     0.189 HD
HETATM   15  N   UNL     1      -2.787   0.909 -30.982  1.00  0.00    -0.168 NA
ENDBRANCH   1   5
BRANCH   2  16
HETATM   16  C   UNL     1      -4.171   4.775 -31.602  1.00  0.00     0.116 C 
HETATM   17  C   UNL     1      -4.642   5.425 -30.297  1.00  0.00     0.037 C 
BRANCH  16  18
HETATM   18  C   UNL     1      -2.973   5.549 -32.145  1.00  0.00    -0.002 A 
HETATM   19  C   UNL     1      -2.994   6.115 -33.434  1.00  0.00     0.076 A 
HETATM   20  C   UNL     1      -1.884   6.836 -33.888  1.00  0.00     0.038 A 
HETATM   21  C   UNL     1      -0.764   7.015 -33.071  1.00  0.00     0.009 A 
HETATM   22  C   UNL     1      -0.736   6.484 -31.782  1.00  0.00    -0.061 A 
HETATM   23  C   UNL     1       0.455   6.672 -30.891  1.00  0.00     0.048 C 
HETATM   24  C   UNL     1      -1.842   5.757 -31.327  1.00  0.00     0.018 A 
BRANCH  19  25
HETATM   25  O   UNL     1      -4.137   5.916 -34.164  1.00  0.00    -0.355 OA
HETATM   26  C   UNL     1      -4.055   5.063 -35.297  1.00  0.00     0.210 C 
ENDBRANCH  19  25
ENDBRANCH  16  18
ENDBRANCH   2  16
TORSDOF 4
ENDMDL
MODEL 3
REMARK VINA RESULT:      -8.4      1.428      2.290
REMARK  4 active torsions:
REMARK  status: ('A' for Active; 'I' for Inactive)
REMARK    1  A    between atoms: C_9  and  C_10 
REMARK       I    between atoms: C_10  and  N_11 
REMARK    2  A    between atoms: N_11  and  C_12 
REMARK    3  A    between atoms: C_12  and  C_13 
REMARK    4  A    between atoms: C_14  and  O_15 
ROOT
HETATM    1  C   UNL     1      -3.633   2.647 -31.993  1.00  0.00     0.273 C 
HETATM    2  N   UNL     1      -4.775   1.929 -32.269  1.00  0.00    -0.347 N 
HETATM    3  O   UNL     1      -2.791   2.304 -31.170  1.00  0.00    -0.266 OA
HETATM    4  H   UNL     1      -5.279   2.251 -33.092  1.00  0.00     0.163 HD
ENDROOT
BRANCH   1   5
HETATM    5  C   UNL     1      -3.524   3.877 -32.796  1.00  0.00     0.157 A 
HETATM    6  C   UNL     1      -2.534   4.898 -32.684  1.00  0.00     0.029 A 
HETATM    7  C   UNL     1      -1.406   5.135 -31.873  1.00  0.00     0.023 A 
HETATM    8  C   UNL     1      -2.872   5.838 -33.650  1.00  0.00     0.063 A 
HETATM    9  C   UNL     1      -0.656   6.309 -32.055  1.00  0.00    -0.061 A 
HETATM   10  C   UNL     1       0.541   6.589 -31.191  1.00  0.00     0.048 C 
HETATM   11  C   UNL     1      -1.032   7.230 -33.041  1.00  0.00     0.009 A 
HETATM   12  C   UNL     1      -2.146   7.012 -33.860  1.00  0.00     0.032 A 
HETATM   13  N   UNL     1      -3.991   5.341 -34.259  1.00  0.00    -0.277 N 
HETATM   14  H   UNL     1      -4.512   5.764 -35.018  1.00  0.00     0.189 HD
HETATM   15  N   UNL     1      -4.420   4.166 -33.767  1.00  0.00    -0.168 NA
ENDBRANCH   1   5
BRANCH   2  16
HETATM   16  C   UNL     1      -5.056   0.610 -31.724  1.00  0.00     0.116 C 
HETATM   17  C   UNL     1      -6.207   0.635 -30.713  1.00  0.00     0.037 C 
BRANCH  16  18
HETATM   18  C   UNL     1      -5.387  -0.378 -32.838  1.00  0.00    -0.002 A 
HETATM   19  C   UNL     1      -6.394  -0.103 -33.782  1.00  0.00     0.076 A 
HETATM   20  C   UNL     1      -6.654  -1.025 -34.802  1.00  0.00     0.038 A 
HETATM   21  C   UNL     1      -5.913  -2.206 -34.904  1.00  0.00     0.009 A 
HETATM   22  C   UNL     1      -4.893  -2.483 -33.994  1.00  0.00    -0.061 A 
HETATM   23  C   UNL     1      -4.084  -3.742 -34.094  1.00  0.00     0.048 C 
HETATM   24  C   UNL     1      -4.636  -1.566 -32.970  1.00  0.00     0.018 A 
BRANCH  19  25
HETATM   25  O   UNL     1      -7.059   1.086 -33.629  1.00  0.00    -0.355 OA
HETATM   26  C   UNL     1      -8.282   1.251 -34.332  1.00  0.00     0.210 C 
ENDBRANCH  19  25
ENDBRANCH  16  18
ENDBRANCH   2  16
TORSDOF 4
ENDMDL
MODEL 4
REMARK VINA RESULT:      -8.3      1.581      2.046
REMARK  4 active torsions:
REMARK  status: ('A' for Active; 'I' for Inactive)
REMARK    1  A    between atoms: C_9  and  C_10 
REMARK       I    between atoms: C_10  and  N_11 
REMARK    2  A    between atoms: N_11  and  C_12 
REMARK    3  A    between atoms: C_12  and  C_13 
REMARK    4  A    between atoms: C_14  and  O_15 
ROOT
HETATM    1  C   UNL     1      -3.388   2.740 -31.811  1.00  0.00     0.273 C 
HETATM    2  N   UNL     1      -4.545   2.026 -32.027  1.00  0.00    -0.347 N 
HETATM    3  O   UNL     1      -2.474   2.360 -31.086  1.00  0.00    -0.266 OA
HETATM    4  H   UNL     1      -5.122   2.388 -32.782  1.00  0.00     0.163 HD
ENDROOT
BRANCH   1   5
HETATM    5  C   UNL     1      -3.359   4.015 -32.547  1.00  0.00     0.157 A 
HETATM    6  C   UNL     1      -2.391   5.057 -32.433  1.00  0.00     0.029 A 
HETATM    7  C   UNL     1      -1.223   5.282 -31.677  1.00  0.00     0.023 A 
HETATM    8  C   UNL     1      -2.810   6.039 -33.322  1.00  0.00     0.063 A 
HETATM    9  C   UNL     1      -0.515   6.485 -31.835  1.00  0.00    -0.061 A 
HETATM   10  C   UNL     1       0.723   6.751 -31.027  1.00  0.00     0.048 C 
HETATM   11  C   UNL     1      -0.974   7.448 -32.743  1.00  0.00     0.009 A 
HETATM   12  C   UNL     1      -2.129   7.244 -33.507  1.00  0.00     0.032 A 
HETATM   13  N   UNL     1      -3.950   5.544 -33.894  1.00  0.00    -0.277 N 
HETATM   14  H   UNL     1      -4.526   5.993 -34.596  1.00  0.00     0.189 HD
HETATM   15  N   UNL     1      -4.318   4.332 -33.446  1.00  0.00    -0.168 NA
ENDBRANCH   1   5
BRANCH   2  16
HETATM   16  C   UNL     1      -4.767   0.674 -31.538  1.00  0.00     0.116 C 
HETATM   17  C   UNL     1      -5.817   0.628 -30.422  1.00  0.00     0.037 C 
BRANCH  16  18
HETATM   18  C   UNL     1      -5.200  -0.250 -32.672  1.00  0.00    -0.002 A 
HETATM   19  C   UNL     1      -4.583  -1.499 -32.871  1.00  0.00     0.076 A 
HETATM   20  C   UNL     1      -5.022  -2.328 -33.910  1.00  0.00     0.038 A 
HETATM   21  C   UNL     1      -6.076  -1.935 -34.740  1.00  0.00     0.009 A 
HETATM   22  C   UNL     1      -6.717  -0.713 -34.542  1.00  0.00    -0.061 A 
HETATM   23  C   UNL     1      -7.854  -0.281 -35.419  1.00  0.00     0.048 C 
HETATM   24  C   UNL     1      -6.276   0.120 -33.508  1.00  0.00     0.018 A 
BRANCH  19  25
HETATM   25  O   UNL     1      -3.574  -1.821 -32.002  1.00  0.00    -0.355 OA
HETATM   26  C   UNL     1      -3.117  -3.167 -31.992  1.00  0.00     0.210 C 
ENDBRANCH  19  25
ENDBRANCH  16  18
ENDBRANCH   2  16
TORSDOF 4
ENDMDL
MODEL 5
REMARK VINA RESULT:      -7.9      2.446      7.880
REMARK  4 active torsions:
REMARK  status: ('A' for Active; 'I' for Inactive)
REMARK    1  A    between atoms: C_9  and  C_10 
REMARK       I    between atoms: C_10  and  N_11 
REMARK    2  A    between atoms: N_11  and  C_12 
REMARK    3  A    between atoms: C_12  and  C_13 
REMARK    4  A    between atoms: C_14  and  O_15 
ROOT
HETATM    1  C   UNL     1      -4.347   3.306 -31.842  1.00  0.00     0.273 C 
HETATM    2  N   UNL     1      -3.446   4.046 -31.111  1.00  0.00    -0.347 N 
HETATM    3  O   UNL     1      -5.322   3.783 -32.414  1.00  0.00    -0.266 OA
HETATM    4  H   UNL     1      -2.606   3.537 -30.849  1.00  0.00     0.163 HD
ENDROOT
BRANCH   1   5
HETATM    5  C   UNL     1      -4.017   1.871 -31.869  1.00  0.00     0.157 A 
HETATM    6  C   UNL     1      -4.665   0.848 -32.625  1.00  0.00     0.029 A 
HETATM    7  C   UNL     1      -5.743   0.782 -33.531  1.00  0.00     0.023 A 
HETATM    8  C   UNL     1      -3.993  -0.323 -32.300  1.00  0.00     0.063 A 
HETATM    9  C   UNL     1      -6.113  -0.457 -34.079  1.00  0.00    -0.061 A 
HETATM   10  C   UNL     1      -7.268  -0.553 -35.034  1.00  0.00     0.048 C 
HETATM   11  C   UNL     1      -5.407  -1.614 -33.724  1.00  0.00     0.009 A 
HETATM   12  C   UNL     1      -4.332  -1.571 -32.829  1.00  0.00     0.032 A 
HETATM   13  N   UNL     1      -3.022   0.053 -31.414  1.00  0.00    -0.277 N 
HETATM   14  H   UNL     1      -2.336  -0.545 -30.967  1.00  0.00     0.189 HD
HETATM   15  N   UNL     1      -3.010   1.365 -31.122  1.00  0.00    -0.168 NA
ENDBRANCH   1   5
BRANCH   2  16
HETATM   16  C   UNL     1      -3.457   5.499 -31.042  1.00  0.00     0.116 C 
HETATM   17  C   UNL     1      -4.390   6.020 -29.944  1.00  0.00     0.037 C 
BRANCH  16  18
HETATM   18  C   UNL     1      -2.051   6.042 -30.806  1.00  0.00    -0.002 A 
HETATM   19  C   UNL     1      -0.990   5.725 -31.676  1.00  0.00     0.076 A 
HETATM   20  C   UNL     1       0.281   6.259 -31.437  1.00  0.00     0.038 A 
HETATM   21  C   UNL     1       0.504   7.117 -30.356  1.00  0.00     0.009 A 
HETATM   22  C   UNL     1      -0.540   7.464 -29.499  1.00  0.00    -0.061 A 
HETATM   23  C   UNL     1      -0.318   8.387 -28.339  1.00  0.00     0.048 C 
HETATM   24  C   UNL     1      -1.810   6.926 -29.732  1.00  0.00     0.018 A 
BRANCH  19  25
HETATM   25  O   UNL     1      -1.295   4.898 -32.725  1.00  0.00    -0.355 OA
HETATM   26  C   UNL     1      -1.331   5.470 -34.026  1.00  0.00     0.210 C 
ENDBRANCH  19  25
ENDBRANCH  16  18
ENDBRANCH   2  16
TORSDOF 4
ENDMDL
MODEL 6
REMARK VINA RESULT:      -7.8      1.979      2.658
REMARK  4 active torsions:
REMARK  status: ('A' for Active; 'I' for Inactive)
REMARK    1  A    between atoms: C_9  and  C_10 
REMARK       I    between atoms: C_10  and  N_11 
REMARK    2  A    between atoms: N_11  and  C_12 
REMARK    3  A    between atoms: C_12  and  C_13 
REMARK    4  A    between atoms: C_14  and  O_15 
ROOT
HETATM    1  C   UNL     1      -7.071   1.861 -31.947  1.00  0.00     0.273 C 
HETATM    2  N   UNL     1      -6.521   0.985 -32.856  1.00  0.00    -0.347 N 
HETATM    3  O   UNL     1      -8.260   1.877 -31.644  1.00  0.00    -0.266 OA
HETATM    4  H   UNL     1      -5.505   0.982 -32.867  1.00  0.00     0.163 HD
ENDROOT
BRANCH   1   5
HETATM    5  C   UNL     1      -6.078   2.783 -31.371  1.00  0.00     0.157 A 
HETATM    6  C   UNL     1      -5.209   3.668 -32.077  1.00  0.00     0.029 A 
HETATM    7  C   UNL     1      -4.961   3.988 -33.427  1.00  0.00     0.023 A 
HETATM    8  C   UNL     1      -4.468   4.309 -31.092  1.00  0.00     0.063 A 
HETATM    9  C   UNL     1      -3.976   4.938 -33.745  1.00  0.00    -0.061 A 
HETATM   10  C   UNL     1      -3.685   5.281 -35.178  1.00  0.00     0.048 C 
HETATM   11  C   UNL     1      -3.252   5.560 -32.720  1.00  0.00     0.009 A 
HETATM   12  C   UNL     1      -3.484   5.260 -31.373  1.00  0.00     0.032 A 
HETATM   13  N   UNL     1      -4.923   3.797 -29.908  1.00  0.00    -0.277 N 
HETATM   14  H   UNL     1      -4.609   4.039 -28.976  1.00  0.00     0.189 HD
HETATM   15  N   UNL     1      -5.886   2.868 -30.035  1.00  0.00    -0.168 NA
ENDBRANCH   1   5
BRANCH   2  16
HETATM   16  C   UNL     1      -7.250  -0.119 -33.461  1.00  0.00     0.116 C 
HETATM   17  C   UNL     1      -7.977   0.301 -34.743  1.00  0.00     0.037 C 
BRANCH  16  18
HETATM   18  C   UNL     1      -6.312  -1.281 -33.774  1.00  0.00    -0.002 A 
HETATM   19  C   UNL     1      -4.991  -1.304 -33.288  1.00  0.00     0.076 A 
HETATM   20  C   UNL     1      -4.168  -2.399 -33.578  1.00  0.00     0.038 A 
HETATM   21  C   UNL     1      -4.649  -3.475 -34.330  1.00  0.00     0.009 A 
HETATM   22  C   UNL     1      -5.963  -3.482 -34.798  1.00  0.00    -0.061 A 
HETATM   23  C   UNL     1      -6.495  -4.631 -35.600  1.00  0.00     0.048 C 
HETATM   24  C   UNL     1      -6.785  -2.386 -34.514  1.00  0.00     0.018 A 
BRANCH  19  25
HETATM   25  O   UNL     1      -4.603  -0.224 -32.538  1.00  0.00    -0.355 OA
HETATM   26  C   UNL     1      -3.711  -0.459 -31.458  1.00  0.00     0.210 C 
ENDBRANCH  19  25
ENDBRANCH  16  18
ENDBRANCH   2  16
TORSDOF 4
ENDMDL
MODEL 7
REMARK VINA RESULT:      -7.7     15.877     17.788
REMARK  4 active torsions:
REMARK  status: ('A' for Active; 'I' for Inactive)
REMARK    1  A    between atoms: C_9  and  C_10 
REMARK       I    between atoms: C_10  and  N_11 
REMARK    2  A    between atoms: N_11  and  C_12 
REMARK    3  A    between atoms: C_12  and  C_13 
REMARK    4  A    between atoms: C_14  and  O_15 
ROOT
HETATM    1  C   UNL     1      -7.160 -14.039 -36.603  1.00  0.00     0.273 C 
HETATM    2  N   UNL     1      -5.811 -14.292 -36.713  1.00  0.00    -0.347 N 
HETATM    3  O   UNL     1      -7.648 -13.271 -35.781  1.00  0.00    -0.266 OA
HETATM    4  H   UNL     1      -5.553 -14.812 -37.549  1.00  0.00     0.163 HD
ENDROOT
BRANCH   1   5
HETATM    5  C   UNL     1      -7.962 -14.792 -37.582  1.00  0.00     0.157 A 
HETATM    6  C   UNL     1      -8.847 -14.260 -38.567  1.00  0.00     0.029 A 
HETATM    7  C   UNL     1      -9.273 -12.976 -38.963  1.00  0.00     0.023 A 
HETATM    8  C   UNL     1      -9.363 -15.368 -39.227  1.00  0.00     0.063 A 
HETATM    9  C   UNL     1     -10.205 -12.846 -40.006  1.00  0.00    -0.061 A 
HETATM   10  C   UNL     1     -10.684 -11.488 -40.433  1.00  0.00     0.048 C 
HETATM   11  C   UNL     1     -10.700 -13.991 -40.644  1.00  0.00     0.009 A 
HETATM   12  C   UNL     1     -10.288 -15.274 -40.270  1.00  0.00     0.032 A 
HETATM   13  N   UNL     1      -8.777 -16.449 -38.628  1.00  0.00    -0.277 N 
HETATM   14  H   UNL     1      -8.918 -17.426 -38.857  1.00  0.00     0.189 HD
HETATM   15  N   UNL     1      -7.934 -16.143 -37.626  1.00  0.00    -0.168 NA
ENDBRANCH   1   5
BRANCH   2  16
HETATM   16  C   UNL     1      -4.788 -13.575 -35.968  1.00  0.00     0.116 C 
HETATM   17  C   UNL     1      -4.617 -14.123 -34.547  1.00  0.00     0.037 C 
BRANCH  16  18
HETATM   18  C   UNL     1      -3.447 -13.633 -36.693  1.00  0.00    -0.002 A 
HETATM   19  C   UNL     1      -3.156 -12.760 -37.759  1.00  0.00     0.076 A 
HETATM   20  C   UNL     1      -1.906 -12.830 -38.386  1.00  0.00     0.038 A 
HETATM   21  C   UNL     1      -0.940 -13.743 -37.953  1.00  0.00     0.009 A 
HETATM   22  C   UNL     1      -1.200 -14.596 -36.882  1.00  0.00    -0.061 A 
HETATM   23  C   UNL     1      -0.172 -15.576 -36.402  1.00  0.00     0.048 C 
HETATM   24  C   UNL     1      -2.451 -14.533 -36.259  1.00  0.00     0.018 A 
BRANCH  19  25
HETATM   25  O   UNL     1      -4.146 -11.879 -38.107  1.00  0.00    -0.355 OA
HETATM   26  C   UNL     1      -4.826 -12.103 -39.334  1.00  0.00     0.210 C 
ENDBRANCH  19  25
ENDBRANCH  16  18
ENDBRANCH   2  16
TORSDOF 4
ENDMDL
MODEL 8
REMARK VINA RESULT:      -7.5      2.218      7.443
REMARK  4 active torsions:
REMARK  status: ('A' for Active; 'I' for Inactive)
REMARK    1  A    between atoms: C_9  and  C_10 
REMARK       I    between atoms: C_10  and  N_11 
REMARK    2  A    between atoms: N_11  and  C_12 
REMARK    3  A    between atoms: C_12  and  C_13 
REMARK    4  A    between atoms: C_14  and  O_15 
ROOT
HETATM    1  C   UNL     1      -3.738   2.286 -32.145  1.00  0.00     0.273 C 
HETATM    2  N   UNL     1      -3.476   3.395 -32.919  1.00  0.00    -0.347 N 
HETATM    3  O   UNL     1      -2.931   1.789 -31.366  1.00  0.00    -0.266 OA
HETATM    4  H   UNL     1      -4.296   3.785 -33.376  1.00  0.00     0.163 HD
ENDROOT
BRANCH   1   5
HETATM    5  C   UNL     1      -5.096   1.756 -32.350  1.00  0.00     0.157 A 
HETATM    6  C   UNL     1      -5.458   0.509 -32.944  1.00  0.00     0.029 A 
HETATM    7  C   UNL     1      -4.771  -0.584 -33.509  1.00  0.00     0.023 A 
HETATM    8  C   UNL     1      -6.846   0.482 -32.911  1.00  0.00     0.063 A 
HETATM    9  C   UNL     1      -5.501  -1.668 -34.026  1.00  0.00    -0.061 A 
HETATM   10  C   UNL     1      -4.790  -2.836 -34.647  1.00  0.00     0.048 C 
HETATM   11  C   UNL     1      -6.900  -1.654 -33.972  1.00  0.00     0.009 A 
HETATM   12  C   UNL     1      -7.602  -0.580 -33.412  1.00  0.00     0.032 A 
HETATM   13  N   UNL     1      -7.216   1.659 -32.320  1.00  0.00    -0.277 N 
HETATM   14  H   UNL     1      -8.158   1.977 -32.129  1.00  0.00     0.189 HD
HETATM   15  N   UNL     1      -6.190   2.458 -31.977  1.00  0.00    -0.168 NA
ENDBRANCH   1   5
BRANCH   2  16
HETATM   16  C   UNL     1      -2.267   4.196 -32.805  1.00  0.00     0.116 C 
HETATM   17  C   UNL     1      -1.858   4.818 -34.145  1.00  0.00     0.037 C 
BRANCH  16  18
HETATM   18  C   UNL     1      -2.445   5.303 -31.771  1.00  0.00    -0.002 A 
HETATM   19  C   UNL     1      -1.425   5.612 -30.851  1.00  0.00     0.076 A 
HETATM   20  C   UNL     1      -1.618   6.649 -29.930  1.00  0.00     0.038 A 
HETATM   21  C   UNL     1      -2.803   7.390 -29.926  1.00  0.00     0.009 A 
HETATM   22  C   UNL     1      -3.813   7.116 -30.847  1.00  0.00    -0.061 A 
HETATM   23  C   UNL     1      -5.087   7.906 -30.861  1.00  0.00     0.048 C 
HETATM   24  C   UNL     1      -3.626   6.076 -31.764  1.00  0.00     0.018 A 
BRANCH  19  25
HETATM   25  O   UNL     1      -0.285   4.856 -30.934  1.00  0.00    -0.355 OA
HETATM   26  C   UNL     1       0.606   4.883 -29.827  1.00  0.00     0.210 C 
ENDBRANCH  19  25
ENDBRANCH  16  18
ENDBRANCH   2  16
TORSDOF 4
ENDMDL
MODEL 9
REMARK VINA RESULT:      -7.5      3.932      6.690
REMARK  4 active torsions:
REMARK  status: ('A' for Active; 'I' for Inactive)
REMARK    1  A    between atoms: C_9  and  C_10 
REMARK       I    between atoms: C_10  and  N_11 
REMARK    2  A    between atoms: N_11  and  C_12 
REMARK    3  A    between atoms: C_12  and  C_13 
REMARK    4  A    between atoms: C_14  and  O_15 
ROOT
HETATM    1  C   UNL     1      -8.563   1.013 -32.704  1.00  0.00     0.273 C 
HETATM    2  N   UNL     1      -7.306   0.876 -33.249  1.00  0.00    -0.347 N 
HETATM    3  O   UNL     1      -8.884   0.572 -31.605  1.00  0.00    -0.266 OA
HETATM    4  H   UNL     1      -7.150   1.442 -34.079  1.00  0.00     0.163 HD
ENDROOT
BRANCH   1   5
HETATM    5  C   UNL     1      -9.488   1.749 -33.581  1.00  0.00     0.157 A 
HETATM    6  C   UNL     1     -10.856   1.442 -33.848  1.00  0.00     0.029 A 
HETATM    7  C   UNL     1     -11.771   0.447 -33.449  1.00  0.00     0.023 A 
HETATM    8  C   UNL     1     -11.280   2.423 -34.736  1.00  0.00     0.063 A 
HETATM    9  C   UNL     1     -13.081   0.467 -33.956  1.00  0.00    -0.061 A 
HETATM   10  C   UNL     1     -14.067  -0.593 -33.556  1.00  0.00     0.048 C 
HETATM   11  C   UNL     1     -13.467   1.474 -34.849  1.00  0.00     0.009 A 
HETATM   12  C   UNL     1     -12.576   2.474 -35.256  1.00  0.00     0.032 A 
HETATM   13  N   UNL     1     -10.191   3.226 -34.933  1.00  0.00    -0.277 N 
HETATM   14  H   UNL     1     -10.137   4.049 -35.522  1.00  0.00     0.189 HD
HETATM   15  N   UNL     1      -9.089   2.847 -34.262  1.00  0.00    -0.168 NA
ENDBRANCH   1   5
BRANCH   2  16
HETATM   16  C   UNL     1      -6.168   0.319 -32.534  1.00  0.00     0.116 C 
HETATM   17  C   UNL     1      -6.522  -0.067 -31.094  1.00  0.00     0.037 C 
BRANCH  16  18
HETATM   18  C   UNL     1      -5.617  -0.904 -33.261  1.00  0.00    -0.002 A 
HETATM   19  C   UNL     1      -4.233  -1.159 -33.314  1.00  0.00     0.076 A 
HETATM   20  C   UNL     1      -3.767  -2.303 -33.972  1.00  0.00     0.038 A 
HETATM   21  C   UNL     1      -4.661  -3.203 -34.561  1.00  0.00     0.009 A 
HETATM   22  C   UNL     1      -6.036  -2.981 -34.495  1.00  0.00    -0.061 A 
HETATM   23  C   UNL     1      -7.007  -3.939 -35.116  1.00  0.00     0.048 C 
HETATM   24  C   UNL     1      -6.504  -1.835 -33.844  1.00  0.00     0.018 A 
BRANCH  19  25
HETATM   25  O   UNL     1      -3.425  -0.244 -32.692  1.00  0.00    -0.355 OA
HETATM   26  C   UNL     1      -2.578  -0.712 -31.652  1.00  0.00     0.210 C 
ENDBRANCH  19  25
ENDBRANCH  16  18
ENDBRANCH   2  16
TORSDOF 4
ENDMDL
MODEL 10
REMARK VINA RESULT:      -7.4      2.477      7.358
REMARK  4 active torsions:
REMARK  status: ('A' for Active; 'I' for Inactive)
REMARK    1  A    between atoms: C_9  and  C_10 
REMARK       I    between atoms: C_10  and  N_11 
REMARK    2  A    between atoms: N_11  and  C_12 
REMARK    3  A    between atoms: C_12  and  C_13 
REMARK    4  A    between atoms: C_14  and  O_15 
ROOT
HETATM    1  C   UNL     1      -5.864   0.710 -33.471  1.00  0.00     0.273 C 
HETATM    2  N   UNL     1      -6.067   1.516 -32.373  1.00  0.00    -0.347 N 
HETATM    3  O   UNL     1      -6.396   0.891 -34.562  1.00  0.00    -0.266 OA
HETATM    4  H   UNL     1      -5.426   1.339 -31.604  1.00  0.00     0.163 HD
ENDROOT
BRANCH   1   5
HETATM    5  C   UNL     1      -4.935  -0.400 -33.199  1.00  0.00     0.157 A 
HETATM    6  C   UNL     1      -5.023  -1.740 -33.684  1.00  0.00     0.029 A 
HETATM    7  C   UNL     1      -5.908  -2.467 -34.505  1.00  0.00     0.023 A 
HETATM    8  C   UNL     1      -3.924  -2.393 -33.142  1.00  0.00     0.063 A 
HETATM    9  C   UNL     1      -5.662  -3.828 -34.753  1.00  0.00    -0.061 A 
HETATM   10  C   UNL     1      -6.601  -4.626 -35.612  1.00  0.00     0.048 C 
HETATM   11  C   UNL     1      -4.541  -4.448 -34.186  1.00  0.00     0.009 A 
HETATM   12  C   UNL     1      -3.648  -3.743 -33.371  1.00  0.00     0.032 A 
HETATM   13  N   UNL     1      -3.270  -1.446 -32.404  1.00  0.00    -0.277 N 
HETATM   14  H   UNL     1      -2.418  -1.569 -31.868  1.00  0.00     0.189 HD
HETATM   15  N   UNL     1      -3.853  -0.235 -32.405  1.00  0.00    -0.168 NA
ENDBRANCH   1   5
BRANCH   2  16
HETATM   16  C   UNL     1      -6.821   2.760 -32.409  1.00  0.00     0.116 C 
HETATM   17  C   UNL     1      -8.308   2.543 -32.108  1.00  0.00     0.037 C 
BRANCH  16  18
HETATM   18  C   UNL     1      -6.249   3.770 -31.419  1.00  0.00    -0.002 A 
HETATM   19  C   UNL     1      -4.944   4.278 -31.565  1.00  0.00     0.076 A 
HETATM   20  C   UNL     1      -4.463   5.219 -30.648  1.00  0.00     0.038 A 
HETATM   21  C   UNL     1      -5.270   5.672 -29.600  1.00  0.00     0.009 A 
HETATM   22  C   UNL     1      -6.574   5.200 -29.454  1.00  0.00    -0.061 A 
HETATM   23  C   UNL     1      -7.453   5.682 -28.339  1.00  0.00     0.048 C 
HETATM   24  C   UNL     1      -7.055   4.255 -30.366  1.00  0.00     0.018 A 
BRANCH  19  25
HETATM   25  O   UNL     1      -4.226   3.802 -32.632  1.00  0.00    -0.355 OA
HETATM   26  C   UNL     1      -2.818   3.693 -32.481  1.00  0.00     0.210 C 
ENDBRANCH  19  25
ENDBRANCH  16  18
ENDBRANCH   2  16
TORSDOF 4
ENDMDL
