MODEL 1
REMARK VINA RESULT:      -8.2      0.000      0.000
REMARK  3 active torsions:
REMARK  status: ('A' for Active; 'I' for Inactive)
REMARK    1  A    between atoms: C_9  and  C_10 
REMARK    2  A    between atoms: C_16  and  C_17 
REMARK       I    between atoms: C_17  and  N_18 
REMARK    3  A    between atoms: N_18  and  C_19 
ROOT
HETATM    1  C   UNL     1      -3.355   0.818 -30.953  1.00  0.00     0.070 C 
HETATM    2  C   UNL     1      -4.217   1.679 -31.844  1.00  0.00     0.037 C 
HETATM    3  N   UNL     1      -3.873   3.028 -31.888  1.00  0.00    -0.191 N 
HETATM    4  C   UNL     1      -4.364   3.877 -32.815  1.00  0.00     0.735 A 
HETATM    5  N   UNL     1      -5.361   3.451 -33.647  1.00  0.00    -0.092 N 
HETATM    6  N   UNL     1      -5.667   4.409 -34.535  1.00  0.00     0.012 NA
HETATM    7  N   UNL     1      -4.875   5.427 -34.210  1.00  0.00     0.033 NA
HETATM    8  N   UNL     1      -4.059   5.109 -33.141  1.00  0.00     0.030 NA
HETATM    9  C   UNL     1      -5.979   2.130 -33.592  1.00  0.00     0.199 C 
HETATM   10  C   UNL     1      -5.223   1.218 -32.629  1.00  0.00     0.062 C 
HETATM   11  H   UNL     1      -3.058   3.323 -31.352  1.00  0.00     0.184 HD
ENDROOT
BRANCH  10  12
HETATM   12  C   UNL     1      -5.605  -0.214 -32.734  1.00  0.00     0.256 C 
HETATM   13  N   UNL     1      -4.992  -0.881 -33.770  1.00  0.00    -0.322 N 
HETATM   14  H   UNL     1      -4.317  -0.369 -34.324  1.00  0.00     0.169 HD
HETATM   15  O   UNL     1      -6.356  -0.685 -31.891  1.00  0.00    -0.267 OA
BRANCH  13  16
HETATM   16  C   UNL     1      -5.219  -2.222 -34.150  1.00  0.00     0.052 A 
HETATM   17  C   UNL     1      -4.292  -3.256 -34.040  1.00  0.00     0.145 A 
HETATM   18  N   UNL     1      -4.542  -4.543 -34.390  1.00  0.00    -0.271 NA
HETATM   19  C   UNL     1      -5.771  -4.819 -34.870  1.00  0.00     0.116 A 
HETATM   20  C   UNL     1      -6.763  -3.866 -35.021  1.00  0.00     0.021 A 
HETATM   21  C   UNL     1      -6.478  -2.550 -34.657  1.00  0.00     0.032 A 
ENDBRANCH  13  16
ENDBRANCH  10  12
BRANCH   9  22
HETATM   22  C   UNL     1      -7.450   2.235 -33.224  1.00  0.00    -0.011 A 
HETATM   23  C   UNL     1      -7.878   2.721 -31.988  1.00  0.00     0.125 A 
HETATM   24  N   UNL     1      -9.172   2.781 -31.603  1.00  0.00    -0.272 NA
HETATM   25  C   UNL     1     -10.095   2.356 -32.490  1.00  0.00     0.116 A 
HETATM   26  C   UNL     1      -9.781   1.849 -33.739  1.00  0.00     0.020 A 
HETATM   27  C   UNL     1      -8.439   1.783 -34.106  1.00  0.00     0.012 A 
ENDBRANCH   9  22
TORSDOF 3
ENDMDL
MODEL 2
REMARK VINA RESULT:      -7.7      1.702      4.107
REMARK  3 active torsions:
REMARK  status: ('A' for Active; 'I' for Inactive)
REMARK    1  A    between atoms: C_9  and  C_10 
REMARK    2  A    between atoms: C_16  and  C_17 
REMARK       I    between atoms: C_17  and  N_18 
REMARK    3  A    between atoms: N_18  and  C_19 
ROOT
HETATM    1  C   UNL     1     -10.080  -0.035 -32.720  1.00  0.00     0.070 C 
HETATM    2  C   UNL     1      -9.375   1.178 -32.163  1.00  0.00     0.037 C 
HETATM    3  N   UNL     1     -10.190   2.276 -31.898  1.00  0.00    -0.191 N 
HETATM    4  C   UNL     1      -9.776   3.333 -31.169  1.00  0.00     0.735 A 
HETATM    5  N   UNL     1      -8.461   3.419 -30.807  1.00  0.00    -0.092 N 
HETATM    6  N   UNL     1      -8.260   4.499 -30.036  1.00  0.00     0.012 NA
HETATM    7  N   UNL     1      -9.453   5.083 -29.967  1.00  0.00     0.033 NA
HETATM    8  N   UNL     1     -10.405   4.367 -30.668  1.00  0.00     0.030 NA
HETATM    9  C   UNL     1      -7.432   2.454 -31.182  1.00  0.00     0.199 C 
HETATM   10  C   UNL     1      -8.056   1.230 -31.849  1.00  0.00     0.062 C 
HETATM   11  H   UNL     1     -11.189   2.171 -32.066  1.00  0.00     0.184 HD
ENDROOT
BRANCH  10  12
HETATM   12  C   UNL     1      -7.121   0.085 -31.996  1.00  0.00     0.256 C 
HETATM   13  N   UNL     1      -6.897  -0.290 -33.301  1.00  0.00    -0.322 N 
HETATM   14  H   UNL     1      -7.335   0.261 -34.029  1.00  0.00     0.169 HD
HETATM   15  O   UNL     1      -6.598  -0.379 -30.992  1.00  0.00    -0.267 OA
BRANCH  13  16
HETATM   16  C   UNL     1      -6.117  -1.384 -33.734  1.00  0.00     0.052 A 
HETATM   17  C   UNL     1      -4.760  -1.556 -33.473  1.00  0.00     0.145 A 
HETATM   18  N   UNL     1      -4.036  -2.630 -33.880  1.00  0.00    -0.271 NA
HETATM   19  C   UNL     1      -4.691  -3.580 -34.577  1.00  0.00     0.116 A 
HETATM   20  C   UNL     1      -6.037  -3.506 -34.889  1.00  0.00     0.021 A 
HETATM   21  C   UNL     1      -6.756  -2.390 -34.462  1.00  0.00     0.032 A 
ENDBRANCH  13  16
ENDBRANCH  10  12
BRANCH   9  22
HETATM   22  C   UNL     1      -6.381   3.100 -32.070  1.00  0.00    -0.011 A 
HETATM   23  C   UNL     1      -5.063   3.286 -31.653  1.00  0.00     0.125 A 
HETATM   24  N   UNL     1      -4.113   3.903 -32.392  1.00  0.00    -0.272 NA
HETATM   25  C   UNL     1      -4.478   4.343 -33.614  1.00  0.00     0.116 A 
HETATM   26  C   UNL     1      -5.759   4.215 -34.123  1.00  0.00     0.020 A 
HETATM   27  C   UNL     1      -6.723   3.592 -33.336  1.00  0.00     0.012 A 
ENDBRANCH   9  22
TORSDOF 3
ENDMDL
MODEL 3
REMARK VINA RESULT:      -7.6      1.707      4.178
REMARK  3 active torsions:
REMARK  status: ('A' for Active; 'I' for Inactive)
REMARK    1  A    between atoms: C_9  and  C_10 
REMARK    2  A    between atoms: C_16  and  C_17 
REMARK       I    between atoms: C_17  and  N_18 
REMARK    3  A    between atoms: N_18  and  C_19 
ROOT
HETATM    1  C   UNL     1     -10.018   1.240 -34.157  1.00  0.00     0.070 C 
HETATM    2  C   UNL     1      -9.066   1.995 -33.262  1.00  0.00     0.037 C 
HETATM    3  N   UNL     1      -9.653   2.935 -32.419  1.00  0.00    -0.191 N 
HETATM    4  C   UNL     1      -8.995   3.504 -31.388  1.00  0.00     0.735 A 
HETATM    5  N   UNL     1      -7.653   3.284 -31.251  1.00  0.00    -0.092 N 
HETATM    6  N   UNL     1      -7.195   3.877 -30.138  1.00  0.00     0.012 NA
HETATM    7  N   UNL     1      -8.259   4.486 -29.626  1.00  0.00     0.033 NA
HETATM    8  N   UNL     1      -9.387   4.262 -30.394  1.00  0.00     0.030 NA
HETATM    9  C   UNL     1      -6.844   2.490 -32.172  1.00  0.00     0.199 C 
HETATM   10  C   UNL     1      -7.731   1.766 -33.183  1.00  0.00     0.062 C 
HETATM   11  H   UNL     1     -10.668   3.019 -32.444  1.00  0.00     0.184 HD
ENDROOT
BRANCH  10  12
HETATM   12  C   UNL     1      -7.020   0.719 -33.962  1.00  0.00     0.256 C 
HETATM   13  N   UNL     1      -6.808  -0.448 -33.265  1.00  0.00    -0.322 N 
HETATM   14  H   UNL     1      -7.186  -0.511 -32.327  1.00  0.00     0.169 HD
HETATM   15  O   UNL     1      -6.743   0.943 -35.132  1.00  0.00    -0.267 OA
BRANCH  13  16
HETATM   16  C   UNL     1      -6.100  -1.579 -33.725  1.00  0.00     0.052 A 
HETATM   17  C   UNL     1      -4.768  -1.866 -33.434  1.00  0.00     0.145 A 
HETATM   18  N   UNL     1      -4.115  -2.974 -33.868  1.00  0.00    -0.271 NA
HETATM   19  C   UNL     1      -4.817  -3.841 -34.624  1.00  0.00     0.116 A 
HETATM   20  C   UNL     1      -6.143  -3.651 -34.970  1.00  0.00     0.021 A 
HETATM   21  C   UNL     1      -6.789  -2.502 -34.514  1.00  0.00     0.032 A 
ENDBRANCH  13  16
ENDBRANCH  10  12
BRANCH   9  22
HETATM   22  C   UNL     1      -5.801   3.354 -32.860  1.00  0.00    -0.011 A 
HETATM   23  C   UNL     1      -6.116   4.201 -33.923  1.00  0.00     0.125 A 
HETATM   24  N   UNL     1      -5.209   4.945 -34.595  1.00  0.00    -0.272 NA
HETATM   25  C   UNL     1      -3.926   4.863 -34.186  1.00  0.00     0.116 A 
HETATM   26  C   UNL     1      -3.503   4.050 -33.149  1.00  0.00     0.020 A 
HETATM   27  C   UNL     1      -4.454   3.281 -32.483  1.00  0.00     0.012 A 
ENDBRANCH   9  22
TORSDOF 3
ENDMDL
MODEL 4
REMARK VINA RESULT:      -7.5      5.897      9.404
REMARK  3 active torsions:
REMARK  status: ('A' for Active; 'I' for Inactive)
REMARK    1  A    between atoms: C_9  and  C_10 
REMARK    2  A    between atoms: C_16  and  C_17 
REMARK       I    between atoms: C_17  and  N_18 
REMARK    3  A    between atoms: N_18  and  C_19 
ROOT
HETATM    1  C   UNL     1      -6.446   5.618 -30.126  1.00  0.00     0.070 C 
HETATM    2  C   UNL     1      -5.325   5.772 -31.125  1.00  0.00     0.037 C 
HETATM    3  N   UNL     1      -5.486   5.073 -32.320  1.00  0.00    -0.191 N 
HETATM    4  C   UNL     1      -4.720   5.300 -33.407  1.00  0.00     0.735 A 
HETATM    5  N   UNL     1      -3.637   6.125 -33.299  1.00  0.00    -0.092 N 
HETATM    6  N   UNL     1      -3.045   6.276 -34.493  1.00  0.00     0.012 NA
HETATM    7  N   UNL     1      -3.755   5.507 -35.314  1.00  0.00     0.033 NA
HETATM    8  N   UNL     1      -4.801   4.894 -34.650  1.00  0.00     0.030 NA
HETATM    9  C   UNL     1      -3.208   6.774 -32.063  1.00  0.00     0.199 C 
HETATM   10  C   UNL     1      -4.247   6.579 -30.961  1.00  0.00     0.062 C 
HETATM   11  H   UNL     1      -6.349   4.546 -32.443  1.00  0.00     0.184 HD
ENDROOT
BRANCH  10  12
HETATM   12  C   UNL     1      -4.029   7.443 -29.772  1.00  0.00     0.256 C 
HETATM   13  N   UNL     1      -3.578   6.764 -28.664  1.00  0.00    -0.322 N 
HETATM   14  H   UNL     1      -3.390   5.773 -28.764  1.00  0.00     0.169 HD
HETATM   15  O   UNL     1      -4.203   8.649 -29.881  1.00  0.00    -0.267 OA
BRANCH  13  16
HETATM   16  C   UNL     1      -3.355   7.311 -27.382  1.00  0.00     0.052 A 
HETATM   17  C   UNL     1      -4.349   7.608 -26.452  1.00  0.00     0.145 A 
HETATM   18  N   UNL     1      -4.108   8.111 -25.214  1.00  0.00    -0.271 NA
HETATM   19  C   UNL     1      -2.819   8.328 -24.882  1.00  0.00     0.116 A 
HETATM   20  C   UNL     1      -1.759   8.067 -25.731  1.00  0.00     0.021 A 
HETATM   21  C   UNL     1      -2.034   7.554 -26.998  1.00  0.00     0.032 A 
ENDBRANCH  13  16
ENDBRANCH  10  12
BRANCH   9  22
HETATM   22  C   UNL     1      -1.838   6.272 -31.635  1.00  0.00    -0.011 A 
HETATM   23  C   UNL     1      -1.615   4.951 -31.247  1.00  0.00     0.125 A 
HETATM   24  N   UNL     1      -0.426   4.479 -30.810  1.00  0.00    -0.272 NA
HETATM   25  C   UNL     1       0.602   5.351 -30.771  1.00  0.00     0.116 A 
HETATM   26  C   UNL     1       0.490   6.684 -31.128  1.00  0.00     0.020 A 
HETATM   27  C   UNL     1      -0.750   7.149 -31.558  1.00  0.00     0.012 A 
ENDBRANCH   9  22
TORSDOF 3
ENDMDL
MODEL 5
REMARK VINA RESULT:      -7.4      2.385      5.683
REMARK  3 active torsions:
REMARK  status: ('A' for Active; 'I' for Inactive)
REMARK    1  A    between atoms: C_9  and  C_10 
REMARK    2  A    between atoms: C_16  and  C_17 
REMARK       I    between atoms: C_17  and  N_18 
REMARK    3  A    between atoms: N_18  and  C_19 
ROOT
HETATM    1  C   UNL     1      -8.784   5.567 -33.841  1.00  0.00     0.070 C 
HETATM    2  C   UNL     1      -7.724   4.539 -33.531  1.00  0.00     0.037 C 
HETATM    3  N   UNL     1      -6.415   4.924 -33.813  1.00  0.00    -0.191 N 
HETATM    4  C   UNL     1      -5.341   4.241 -33.364  1.00  0.00     0.735 A 
HETATM    5  N   UNL     1      -5.527   3.036 -32.748  1.00  0.00    -0.092 N 
HETATM    6  N   UNL     1      -4.354   2.547 -32.318  1.00  0.00     0.012 NA
HETATM    7  N   UNL     1      -3.457   3.446 -32.711  1.00  0.00     0.033 NA
HETATM    8  N   UNL     1      -4.058   4.506 -33.363  1.00  0.00     0.030 NA
HETATM    9  C   UNL     1      -6.823   2.391 -32.559  1.00  0.00     0.199 C 
HETATM   10  C   UNL     1      -7.958   3.336 -32.949  1.00  0.00     0.062 C 
HETATM   11  H   UNL     1      -6.269   5.867 -34.169  1.00  0.00     0.184 HD
ENDROOT
BRANCH  10  12
HETATM   12  C   UNL     1      -9.301   2.870 -32.517  1.00  0.00     0.256 C 
HETATM   13  N   UNL     1     -10.122   2.493 -33.554  1.00  0.00    -0.322 N 
HETATM   14  H   UNL     1      -9.736   2.516 -34.491  1.00  0.00     0.169 HD
HETATM   15  O   UNL     1      -9.544   2.804 -31.319  1.00  0.00    -0.267 OA
BRANCH  13  16
HETATM   16  C   UNL     1     -11.468   2.080 -33.448  1.00  0.00     0.052 A 
HETATM   17  C   UNL     1     -12.538   2.907 -33.116  1.00  0.00     0.145 A 
HETATM   18  N   UNL     1     -13.829   2.492 -33.044  1.00  0.00    -0.271 NA
HETATM   19  C   UNL     1     -14.070   1.194 -33.317  1.00  0.00     0.116 A 
HETATM   20  C   UNL     1     -13.079   0.290 -33.656  1.00  0.00     0.021 A 
HETATM   21  C   UNL     1     -11.762   0.742 -33.719  1.00  0.00     0.032 A 
ENDBRANCH  13  16
ENDBRANCH  10  12
BRANCH   9  22
HETATM   22  C   UNL     1      -6.895   1.083 -33.330  1.00  0.00    -0.011 A 
HETATM   23  C   UNL     1      -6.805  -0.159 -32.702  1.00  0.00     0.125 A 
HETATM   24  N   UNL     1      -6.812  -1.342 -33.356  1.00  0.00    -0.272 NA
HETATM   25  C   UNL     1      -6.932  -1.299 -34.699  1.00  0.00     0.116 A 
HETATM   26  C   UNL     1      -7.022  -0.122 -35.422  1.00  0.00     0.020 A 
HETATM   27  C   UNL     1      -6.996   1.084 -34.726  1.00  0.00     0.012 A 
ENDBRANCH   9  22
TORSDOF 3
ENDMDL
MODEL 6
REMARK VINA RESULT:      -7.2     14.869     16.481
REMARK  3 active torsions:
REMARK  status: ('A' for Active; 'I' for Inactive)
REMARK    1  A    between atoms: C_9  and  C_10 
REMARK    2  A    between atoms: C_16  and  C_17 
REMARK       I    between atoms: C_17  and  N_18 
REMARK    3  A    between atoms: N_18  and  C_19 
ROOT
HETATM    1  C   UNL     1      -4.099 -12.315 -37.588  1.00  0.00     0.070 C 
HETATM    2  C   UNL     1      -4.940 -12.941 -38.673  1.00  0.00     0.037 C 
HETATM    3  N   UNL     1      -4.440 -12.816 -39.967  1.00  0.00    -0.191 N 
HETATM    4  C   UNL     1      -4.921 -13.527 -41.008  1.00  0.00     0.735 A 
HETATM    5  N   UNL     1      -6.048 -14.280 -40.836  1.00  0.00    -0.092 N 
HETATM    6  N   UNL     1      -6.329 -14.960 -41.958  1.00  0.00     0.012 NA
HETATM    7  N   UNL     1      -5.388 -14.583 -42.818  1.00  0.00     0.033 NA
HETATM    8  N   UNL     1      -4.504 -13.691 -42.239  1.00  0.00     0.030 NA
HETATM    9  C   UNL     1      -6.815 -14.356 -39.596  1.00  0.00     0.199 C 
HETATM   10  C   UNL     1      -6.075 -13.653 -38.460  1.00  0.00     0.062 C 
HETATM   11  H   UNL     1      -3.541 -12.349 -40.080  1.00  0.00     0.184 HD
ENDROOT
BRANCH  10  12
HETATM   12  C   UNL     1      -6.640 -13.932 -37.114  1.00  0.00     0.256 C 
HETATM   13  N   UNL     1      -6.068 -15.012 -36.481  1.00  0.00    -0.322 N 
HETATM   14  H   UNL     1      -5.301 -15.480 -36.950  1.00  0.00     0.169 HD
HETATM   15  O   UNL     1      -7.491 -13.177 -36.665  1.00  0.00    -0.267 OA
BRANCH  13  16
HETATM   16  C   UNL     1      -6.452 -15.549 -35.233  1.00  0.00     0.052 A 
HETATM   17  C   UNL     1      -7.155 -16.738 -35.052  1.00  0.00     0.145 A 
HETATM   18  N   UNL     1      -7.491 -17.247 -33.839  1.00  0.00    -0.271 NA
HETATM   19  C   UNL     1      -7.110 -16.545 -32.754  1.00  0.00     0.116 A 
HETATM   20  C   UNL     1      -6.409 -15.354 -32.824  1.00  0.00     0.021 A 
HETATM   21  C   UNL     1      -6.079 -14.851 -34.082  1.00  0.00     0.032 A 
ENDBRANCH  13  16
ENDBRANCH  10  12
BRANCH   9  22
HETATM   22  C   UNL     1      -8.212 -13.790 -39.788  1.00  0.00    -0.011 A 
HETATM   23  C   UNL     1      -9.349 -14.598 -39.813  1.00  0.00     0.125 A 
HETATM   24  N   UNL     1     -10.601 -14.140 -40.034  1.00  0.00    -0.272 NA
HETATM   25  C   UNL     1     -10.743 -12.811 -40.220  1.00  0.00     0.116 A 
HETATM   26  C   UNL     1      -9.684 -11.921 -40.221  1.00  0.00     0.020 A 
HETATM   27  C   UNL     1      -8.402 -12.420 -40.009  1.00  0.00     0.012 A 
ENDBRANCH   9  22
TORSDOF 3
ENDMDL
MODEL 7
REMARK VINA RESULT:      -7.1      2.362      6.091
REMARK  3 active torsions:
REMARK  status: ('A' for Active; 'I' for Inactive)
REMARK    1  A    between atoms: C_9  and  C_10 
REMARK    2  A    between atoms: C_16  and  C_17 
REMARK       I    between atoms: C_17  and  N_18 
REMARK    3  A    between atoms: N_18  and  C_19 
ROOT
HETATM    1  C   UNL     1      -3.383   0.827 -32.310  1.00  0.00     0.070 C 
HETATM    2  C   UNL     1      -4.602   0.068 -32.774  1.00  0.00     0.037 C 
HETATM    3  N   UNL     1      -4.390  -0.829 -33.818  1.00  0.00    -0.191 N 
HETATM    4  C   UNL     1      -5.297  -1.761 -34.176  1.00  0.00     0.735 A 
HETATM    5  N   UNL     1      -6.540  -1.733 -33.611  1.00  0.00    -0.092 N 
HETATM    6  N   UNL     1      -7.271  -2.772 -34.041  1.00  0.00     0.012 NA
HETATM    7  N   UNL     1      -6.475  -3.405 -34.897  1.00  0.00     0.033 NA
HETATM    8  N   UNL     1      -5.242  -2.786 -34.990  1.00  0.00     0.030 NA
HETATM    9  C   UNL     1      -6.993  -0.731 -32.651  1.00  0.00     0.199 C 
HETATM   10  C   UNL     1      -5.830   0.153 -32.203  1.00  0.00     0.062 C 
HETATM   11  H   UNL     1      -3.437  -0.929 -34.165  1.00  0.00     0.184 HD
ENDROOT
BRANCH  10  12
HETATM   12  C   UNL     1      -6.141   0.999 -31.022  1.00  0.00     0.256 C 
HETATM   13  N   UNL     1      -6.324   2.330 -31.321  1.00  0.00    -0.322 N 
HETATM   14  H   UNL     1      -6.283   2.602 -32.296  1.00  0.00     0.169 HD
HETATM   15  O   UNL     1      -6.264   0.463 -29.929  1.00  0.00    -0.267 OA
BRANCH  13  16
HETATM   16  C   UNL     1      -6.557   3.370 -30.396  1.00  0.00     0.052 A 
HETATM   17  C   UNL     1      -5.574   4.014 -29.647  1.00  0.00     0.145 A 
HETATM   18  N   UNL     1      -5.820   5.030 -28.781  1.00  0.00    -0.271 NA
HETATM   19  C   UNL     1      -7.102   5.429 -28.654  1.00  0.00     0.116 A 
HETATM   20  C   UNL     1      -8.151   4.857 -29.351  1.00  0.00     0.021 A 
HETATM   21  C   UNL     1      -7.871   3.812 -30.231  1.00  0.00     0.032 A 
ENDBRANCH  13  16
ENDBRANCH  10  12
BRANCH   9  22
HETATM   22  C   UNL     1      -8.133   0.094 -33.226  1.00  0.00    -0.011 A 
HETATM   23  C   UNL     1      -7.931   1.067 -34.205  1.00  0.00     0.125 A 
HETATM   24  N   UNL     1      -8.908   1.857 -34.703  1.00  0.00    -0.272 NA
HETATM   25  C   UNL     1     -10.154   1.665 -34.223  1.00  0.00     0.116 A 
HETATM   26  C   UNL     1     -10.465   0.733 -33.248  1.00  0.00     0.020 A 
HETATM   27  C   UNL     1      -9.437  -0.056 -32.739  1.00  0.00     0.012 A 
ENDBRANCH   9  22
TORSDOF 3
ENDMDL
MODEL 8
REMARK VINA RESULT:      -7.0     15.336     16.715
REMARK  3 active torsions:
REMARK  status: ('A' for Active; 'I' for Inactive)
REMARK    1  A    between atoms: C_9  and  C_10 
REMARK    2  A    between atoms: C_16  and  C_17 
REMARK       I    between atoms: C_17  and  N_18 
REMARK    3  A    between atoms: N_18  and  C_19 
ROOT
HETATM    1  C   UNL     1      -5.753 -13.817 -36.025  1.00  0.00     0.070 C 
HETATM    2  C   UNL     1      -6.383 -13.573 -37.375  1.00  0.00     0.037 C 
HETATM    3  N   UNL     1      -7.774 -13.642 -37.409  1.00  0.00    -0.191 N 
HETATM    4  C   UNL     1      -8.501 -13.202 -38.456  1.00  0.00     0.735 A 
HETATM    5  N   UNL     1      -7.860 -12.822 -39.601  1.00  0.00    -0.092 N 
HETATM    6  N   UNL     1      -8.743 -12.357 -40.497  1.00  0.00     0.012 NA
HETATM    7  N   UNL     1      -9.923 -12.493 -39.901  1.00  0.00     0.033 NA
HETATM    8  N   UNL     1      -9.787 -13.018 -38.629  1.00  0.00     0.030 NA
HETATM    9  C   UNL     1      -6.415 -12.887 -39.803  1.00  0.00     0.199 C 
HETATM   10  C   UNL     1      -5.702 -13.231 -38.497  1.00  0.00     0.062 C 
HETATM   11  H   UNL     1      -8.257 -13.816 -36.529  1.00  0.00     0.184 HD
ENDROOT
BRANCH  10  12
HETATM   12  C   UNL     1      -4.230 -13.032 -38.547  1.00  0.00     0.256 C 
HETATM   13  N   UNL     1      -3.524 -14.165 -38.877  1.00  0.00    -0.322 N 
HETATM   14  H   UNL     1      -4.052 -15.000 -39.100  1.00  0.00     0.169 HD
HETATM   15  O   UNL     1      -3.782 -11.909 -38.359  1.00  0.00    -0.267 OA
BRANCH  13  16
HETATM   16  C   UNL     1      -2.118 -14.289 -38.928  1.00  0.00     0.052 A 
HETATM   17  C   UNL     1      -1.293 -14.536 -37.833  1.00  0.00     0.145 A 
HETATM   18  N   UNL     1       0.055 -14.677 -37.912  1.00  0.00    -0.271 NA
HETATM   19  C   UNL     1       0.611 -14.568 -39.135  1.00  0.00     0.116 A 
HETATM   20  C   UNL     1      -0.118 -14.324 -40.285  1.00  0.00     0.021 A 
HETATM   21  C   UNL     1      -1.500 -14.181 -40.176  1.00  0.00     0.032 A 
ENDBRANCH  13  16
ENDBRANCH  10  12
BRANCH   9  22
HETATM   22  C   UNL     1      -6.066 -13.871 -40.908  1.00  0.00    -0.011 A 
HETATM   23  C   UNL     1      -6.463 -15.207 -40.870  1.00  0.00     0.125 A 
HETATM   24  N   UNL     1      -6.128 -16.125 -41.805  1.00  0.00    -0.272 NA
HETATM   25  C   UNL     1      -5.377 -15.698 -42.841  1.00  0.00     0.116 A 
HETATM   26  C   UNL     1      -4.923 -14.396 -42.973  1.00  0.00     0.020 A 
HETATM   27  C   UNL     1      -5.268 -13.475 -41.988  1.00  0.00     0.012 A 
ENDBRANCH   9  22
TORSDOF 3
ENDMDL
MODEL 9
REMARK VINA RESULT:      -6.8      4.685      7.776
REMARK  3 active torsions:
REMARK  status: ('A' for Active; 'I' for Inactive)
REMARK    1  A    between atoms: C_9  and  C_10 
REMARK    2  A    between atoms: C_16  and  C_17 
REMARK       I    between atoms: C_17  and  N_18 
REMARK    3  A    between atoms: N_18  and  C_19 
ROOT
HETATM    1  C   UNL     1      -5.016   8.595 -28.815  1.00  0.00     0.070 C 
HETATM    2  C   UNL     1      -3.661   8.064 -29.214  1.00  0.00     0.037 C 
HETATM    3  N   UNL     1      -2.569   8.756 -28.696  1.00  0.00    -0.191 N 
HETATM    4  C   UNL     1      -1.311   8.272 -28.739  1.00  0.00     0.735 A 
HETATM    5  N   UNL     1      -1.057   7.138 -29.458  1.00  0.00    -0.092 N 
HETATM    6  N   UNL     1       0.230   6.781 -29.325  1.00  0.00     0.012 NA
HETATM    7  N   UNL     1       0.758   7.726 -28.554  1.00  0.00     0.033 NA
HETATM    8  N   UNL     1      -0.190   8.661 -28.181  1.00  0.00     0.030 NA
HETATM    9  C   UNL     1      -2.054   6.406 -30.232  1.00  0.00     0.199 C 
HETATM   10  C   UNL     1      -3.455   6.950 -29.961  1.00  0.00     0.062 C 
HETATM   11  H   UNL     1      -2.762   9.536 -28.069  1.00  0.00     0.184 HD
ENDROOT
BRANCH  10  12
HETATM   12  C   UNL     1      -4.546   6.083 -30.477  1.00  0.00     0.256 C 
HETATM   13  N   UNL     1      -4.765   4.953 -29.724  1.00  0.00    -0.322 N 
HETATM   14  H   UNL     1      -4.215   4.836 -28.881  1.00  0.00     0.169 HD
HETATM   15  O   UNL     1      -5.179   6.454 -31.456  1.00  0.00    -0.267 OA
BRANCH  13  16
HETATM   16  C   UNL     1      -5.681   3.919 -30.015  1.00  0.00     0.052 A 
HETATM   17  C   UNL     1      -7.019   3.899 -29.625  1.00  0.00     0.145 A 
HETATM   18  N   UNL     1      -7.888   2.904 -29.939  1.00  0.00    -0.271 NA
HETATM   19  C   UNL     1      -7.409   1.882 -30.675  1.00  0.00     0.116 A 
HETATM   20  C   UNL     1      -6.099   1.806 -31.112  1.00  0.00     0.021 A 
HETATM   21  C   UNL     1      -5.226   2.839 -30.773  1.00  0.00     0.032 A 
ENDBRANCH  13  16
ENDBRANCH  10  12
BRANCH   9  22
HETATM   22  C   UNL     1      -1.719   6.437 -31.714  1.00  0.00    -0.011 A 
HETATM   23  C   UNL     1      -1.651   7.626 -32.440  1.00  0.00     0.125 A 
HETATM   24  N   UNL     1      -1.409   7.692 -33.768  1.00  0.00    -0.272 NA
HETATM   25  C   UNL     1      -1.205   6.524 -34.412  1.00  0.00     0.116 A 
HETATM   26  C   UNL     1      -1.256   5.288 -33.791  1.00  0.00     0.020 A 
HETATM   27  C   UNL     1      -1.524   5.246 -32.426  1.00  0.00     0.012 A 
ENDBRANCH   9  22
TORSDOF 3
ENDMDL
MODEL 10
REMARK VINA RESULT:      -6.7      6.447      9.016
REMARK  3 active torsions:
REMARK  status: ('A' for Active; 'I' for Inactive)
REMARK    1  A    between atoms: C_9  and  C_10 
REMARK    2  A    between atoms: C_16  and  C_17 
REMARK       I    between atoms: C_17  and  N_18 
REMARK    3  A    between atoms: N_18  and  C_19 
ROOT
HETATM    1  C   UNL     1       0.779   4.814 -30.069  1.00  0.00     0.070 C 
HETATM    2  C   UNL     1       0.294   5.997 -29.267  1.00  0.00     0.037 C 
HETATM    3  N   UNL     1       0.818   6.106 -27.981  1.00  0.00    -0.191 N 
HETATM    4  C   UNL     1       0.696   7.222 -27.234  1.00  0.00     0.735 A 
HETATM    5  N   UNL     1      -0.108   8.235 -27.676  1.00  0.00    -0.092 N 
HETATM    6  N   UNL     1      -0.047   9.278 -26.835  1.00  0.00     0.012 NA
HETATM    7  N   UNL     1       0.767   8.875 -25.865  1.00  0.00     0.033 NA
HETATM    8  N   UNL     1       1.237   7.596 -26.101  1.00  0.00     0.030 NA
HETATM    9  C   UNL     1      -0.893   8.195 -28.906  1.00  0.00     0.199 C 
HETATM   10  C   UNL     1      -0.534   6.964 -29.736  1.00  0.00     0.062 C 
HETATM   11  H   UNL     1       1.503   5.409 -27.693  1.00  0.00     0.184 HD
ENDROOT
BRANCH  10  12
HETATM   12  C   UNL     1      -1.068   6.999 -31.123  1.00  0.00     0.256 C 
HETATM   13  N   UNL     1      -1.936   5.972 -31.413  1.00  0.00    -0.322 N 
HETATM   14  H   UNL     1      -2.168   5.328 -30.666  1.00  0.00     0.169 HD
HETATM   15  O   UNL     1      -0.756   7.932 -31.850  1.00  0.00    -0.267 OA
BRANCH  13  16
HETATM   16  C   UNL     1      -2.536   5.713 -32.665  1.00  0.00     0.052 A 
HETATM   17  C   UNL     1      -3.884   5.899 -32.963  1.00  0.00     0.145 A 
HETATM   18  N   UNL     1      -4.433   5.667 -34.183  1.00  0.00    -0.271 NA
HETATM   19  C   UNL     1      -3.606   5.231 -35.153  1.00  0.00     0.116 A 
HETATM   20  C   UNL     1      -2.253   5.014 -34.961  1.00  0.00     0.021 A 
HETATM   21  C   UNL     1      -1.715   5.257 -33.698  1.00  0.00     0.032 A 
ENDBRANCH  13  16
ENDBRANCH  10  12
BRANCH   9  22
HETATM   22  C   UNL     1      -2.381   8.249 -28.601  1.00  0.00    -0.011 A 
HETATM   23  C   UNL     1      -3.026   7.265 -27.850  1.00  0.00     0.125 A 
HETATM   24  N   UNL     1      -4.354   7.249 -27.602  1.00  0.00    -0.272 NA
HETATM   25  C   UNL     1      -5.084   8.267 -28.105  1.00  0.00     0.116 A 
HETATM   26  C   UNL     1      -4.547   9.290 -28.867  1.00  0.00     0.020 A 
HETATM   27  C   UNL     1      -3.179   9.274 -29.123  1.00  0.00     0.012 A 
ENDBRANCH   9  22
TORSDOF 3
ENDMDL
