MODEL 1
REMARK VINA RESULT:      -7.1      0.000      0.000
REMARK  6 active torsions:
REMARK  status: ('A' for Active; 'I' for Inactive)
REMARK    1  A    between atoms: C_2  and  C_3 
REMARK    2  A    between atoms: C_3  and  N_4 
REMARK    3  A    between atoms: C_3  and  C_15 
REMARK       I    between atoms: N_4  and  C_5 
REMARK       I    between atoms: C_5  and  N_6 
REMARK    4  A    between atoms: N_6  and  C_7 
REMARK    5  A    between atoms: C_16  and  O_17 
REMARK    6  A    between atoms: O_17  and  C_18 
ROOT
HETATM    1  N   UNL     1      -6.605   0.899 -34.186  1.00  0.00    -0.334 N 
HETATM    2  C   UNL     1      -6.170   2.119 -33.759  1.00  0.00     0.321 C 
HETATM    3  N   UNL     1      -5.652   2.128 -32.494  1.00  0.00    -0.307 N 
HETATM    4  O   UNL     1      -6.229   3.073 -34.528  1.00  0.00    -0.247 OA
HETATM    5  H   UNL     1      -6.936   0.916 -35.141  1.00  0.00     0.165 HD
HETATM    6  H   UNL     1      -5.106   1.293 -32.315  1.00  0.00     0.170 HD
ENDROOT
BRANCH   1   7
HETATM    7  C   UNL     1      -7.021  -0.236 -33.361  1.00  0.00     0.122 C 
BRANCH   7   8
HETATM    8  C   UNL     1      -8.557  -0.204 -33.170  1.00  0.00     0.026 C 
HETATM    9  C   UNL     1      -9.047   0.525 -31.919  1.00  0.00     0.007 C 
ENDBRANCH   7   8
BRANCH   7  10
HETATM   10  C   UNL     1      -6.384  -1.528 -33.865  1.00  0.00    -0.002 A 
HETATM   11  C   UNL     1      -4.994  -1.730 -33.701  1.00  0.00     0.077 A 
HETATM   12  C   UNL     1      -4.395  -2.927 -34.115  1.00  0.00     0.037 A 
HETATM   13  C   UNL     1      -5.159  -3.928 -34.711  1.00  0.00     0.003 A 
HETATM   14  C   UNL     1      -6.526  -3.746 -34.878  1.00  0.00     0.001 A 
HETATM   15  C   UNL     1      -7.134  -2.561 -34.453  1.00  0.00     0.012 A 
BRANCH  11  16
HETATM   16  O   UNL     1      -4.287  -0.739 -33.059  1.00  0.00    -0.351 OA
BRANCH  16  17
HETATM   17  C   UNL     1      -3.546  -1.168 -31.912  1.00  0.00     0.171 C 
HETATM   18  C   UNL     1      -3.039   0.066 -31.187  1.00  0.00     0.034 C 
ENDBRANCH  16  17
ENDBRANCH  11  16
ENDBRANCH   7  10
ENDBRANCH   1   7
BRANCH   3  19
HETATM   19  C   UNL     1      -5.314   3.263 -31.725  1.00  0.00     0.059 A 
HETATM   20  C   UNL     1      -4.089   3.947 -31.765  1.00  0.00    -0.032 A 
HETATM   21  C   UNL     1      -2.944   3.594 -32.672  1.00  0.00     0.050 C 
HETATM   22  C   UNL     1      -3.920   5.056 -30.917  1.00  0.00     0.028 A 
HETATM   23  C   UNL     1      -4.974   5.477 -30.120  1.00  0.00     0.117 A 
HETATM   24  N   UNL     1      -6.179   4.880 -30.104  1.00  0.00    -0.271 NA
HETATM   25  C   UNL     1      -6.314   3.795 -30.904  1.00  0.00     0.146 A 
ENDBRANCH   3  19
TORSDOF 6
ENDMDL
MODEL 2
REMARK VINA RESULT:      -7.0      1.246      1.821
REMARK  6 active torsions:
REMARK  status: ('A' for Active; 'I' for Inactive)
REMARK    1  A    between atoms: C_2  and  C_3 
REMARK    2  A    between atoms: C_3  and  N_4 
REMARK    3  A    between atoms: C_3  and  C_15 
REMARK       I    between atoms: N_4  and  C_5 
REMARK       I    between atoms: C_5  and  N_6 
REMARK    4  A    between atoms: N_6  and  C_7 
REMARK    5  A    between atoms: C_16  and  O_17 
REMARK    6  A    between atoms: O_17  and  C_18 
ROOT
HETATM    1  N   UNL     1      -6.702   1.498 -33.738  1.00  0.00    -0.334 N 
HETATM    2  C   UNL     1      -5.976   2.644 -33.597  1.00  0.00     0.321 C 
HETATM    3  N   UNL     1      -4.866   2.520 -32.808  1.00  0.00    -0.307 N 
HETATM    4  O   UNL     1      -6.331   3.650 -34.202  1.00  0.00    -0.247 OA
HETATM    5  H   UNL     1      -7.488   1.609 -34.364  1.00  0.00     0.165 HD
HETATM    6  H   UNL     1      -4.404   1.631 -32.962  1.00  0.00     0.170 HD
ENDROOT
BRANCH   1   7
HETATM    7  C   UNL     1      -6.736   0.349 -32.831  1.00  0.00     0.122 C 
BRANCH   7   8
HETATM    8  C   UNL     1      -8.083   0.329 -32.067  1.00  0.00     0.026 C 
HETATM    9  C   UNL     1      -9.266   0.947 -32.809  1.00  0.00     0.007 C 
ENDBRANCH   7   8
BRANCH   7  10
HETATM   10  C   UNL     1      -6.301  -0.920 -33.558  1.00  0.00    -0.002 A 
HETATM   11  C   UNL     1      -4.923  -1.170 -33.760  1.00  0.00     0.077 A 
HETATM   12  C   UNL     1      -4.498  -2.350 -34.385  1.00  0.00     0.037 A 
HETATM   13  C   UNL     1      -5.429  -3.285 -34.831  1.00  0.00     0.003 A 
HETATM   14  C   UNL     1      -6.785  -3.056 -34.640  1.00  0.00     0.001 A 
HETATM   15  C   UNL     1      -7.217  -1.889 -34.003  1.00  0.00     0.012 A 
BRANCH  11  16
HETATM   16  O   UNL     1      -4.037  -0.247 -33.255  1.00  0.00    -0.351 OA
BRANCH  16  17
HETATM   17  C   UNL     1      -3.098  -0.762 -32.306  1.00  0.00     0.171 C 
HETATM   18  C   UNL     1      -3.338  -0.068 -30.977  1.00  0.00     0.034 C 
ENDBRANCH  16  17
ENDBRANCH  11  16
ENDBRANCH   7  10
ENDBRANCH   1   7
BRANCH   3  19
HETATM   19  C   UNL     1      -4.047   3.567 -32.329  1.00  0.00     0.059 A 
HETATM   20  C   UNL     1      -4.320   4.380 -31.218  1.00  0.00    -0.032 A 
HETATM   21  C   UNL     1      -5.525   4.237 -30.331  1.00  0.00     0.050 C 
HETATM   22  C   UNL     1      -3.395   5.387 -30.890  1.00  0.00     0.028 A 
HETATM   23  C   UNL     1      -2.225   5.509 -31.624  1.00  0.00     0.117 A 
HETATM   24  N   UNL     1      -1.907   4.708 -32.656  1.00  0.00    -0.271 NA
HETATM   25  C   UNL     1      -2.822   3.762 -32.977  1.00  0.00     0.146 A 
ENDBRANCH   3  19
TORSDOF 6
ENDMDL
MODEL 3
REMARK VINA RESULT:      -7.0      2.314      4.133
REMARK  6 active torsions:
REMARK  status: ('A' for Active; 'I' for Inactive)
REMARK    1  A    between atoms: C_2  and  C_3 
REMARK    2  A    between atoms: C_3  and  N_4 
REMARK    3  A    between atoms: C_3  and  C_15 
REMARK       I    between atoms: N_4  and  C_5 
REMARK       I    between atoms: C_5  and  N_6 
REMARK    4  A    between atoms: N_6  and  C_7 
REMARK    5  A    between atoms: C_16  and  O_17 
REMARK    6  A    between atoms: O_17  and  C_18 
ROOT
HETATM    1  N   UNL     1      -5.288  -0.763 -31.519  1.00  0.00    -0.334 N 
HETATM    2  C   UNL     1      -6.163   0.118 -30.954  1.00  0.00     0.321 C 
HETATM    3  N   UNL     1      -6.973   0.766 -31.846  1.00  0.00    -0.307 N 
HETATM    4  O   UNL     1      -6.192   0.226 -29.733  1.00  0.00    -0.247 OA
HETATM    5  H   UNL     1      -4.739  -1.260 -30.832  1.00  0.00     0.165 HD
HETATM    6  H   UNL     1      -7.271   0.145 -32.588  1.00  0.00     0.170 HD
ENDROOT
BRANCH   1   7
HETATM    7  C   UNL     1      -4.784  -0.758 -32.893  1.00  0.00     0.122 C 
BRANCH   7   8
HETATM    8  C   UNL     1      -3.296  -0.328 -32.899  1.00  0.00     0.026 C 
HETATM    9  C   UNL     1      -2.538  -0.572 -31.596  1.00  0.00     0.007 C 
ENDBRANCH   7   8
BRANCH   7  10
HETATM   10  C   UNL     1      -5.162  -2.052 -33.607  1.00  0.00    -0.002 A 
HETATM   11  C   UNL     1      -6.468  -2.204 -34.130  1.00  0.00     0.077 A 
HETATM   12  C   UNL     1      -6.825  -3.364 -34.829  1.00  0.00     0.037 A 
HETATM   13  C   UNL     1      -5.902  -4.393 -35.003  1.00  0.00     0.003 A 
HETATM   14  C   UNL     1      -4.615  -4.260 -34.498  1.00  0.00     0.001 A 
HETATM   15  C   UNL     1      -4.246  -3.099 -33.813  1.00  0.00     0.012 A 
BRANCH  11  16
HETATM   16  O   UNL     1      -7.330  -1.141 -33.983  1.00  0.00    -0.351 OA
BRANCH  16  17
HETATM   17  C   UNL     1      -7.700  -0.487 -35.200  1.00  0.00     0.171 C 
HETATM   18  C   UNL     1      -7.015   0.867 -35.238  1.00  0.00     0.034 C 
ENDBRANCH  16  17
ENDBRANCH  11  16
ENDBRANCH   7  10
ENDBRANCH   1   7
BRANCH   3  19
HETATM   19  C   UNL     1      -7.824   1.860 -31.576  1.00  0.00     0.059 A 
HETATM   20  C   UNL     1      -9.182   1.948 -31.915  1.00  0.00    -0.032 A 
HETATM   21  C   UNL     1      -9.964   0.859 -32.595  1.00  0.00     0.050 C 
HETATM   22  C   UNL     1      -9.876   3.124 -31.578  1.00  0.00     0.028 A 
HETATM   23  C   UNL     1      -9.226   4.126 -30.875  1.00  0.00     0.117 A 
HETATM   24  N   UNL     1      -7.942   4.047 -30.482  1.00  0.00    -0.271 NA
HETATM   25  C   UNL     1      -7.280   2.921 -30.841  1.00  0.00     0.146 A 
ENDBRANCH   3  19
TORSDOF 6
ENDMDL
MODEL 4
REMARK VINA RESULT:      -7.0      3.295      6.865
REMARK  6 active torsions:
REMARK  status: ('A' for Active; 'I' for Inactive)
REMARK    1  A    between atoms: C_2  and  C_3 
REMARK    2  A    between atoms: C_3  and  N_4 
REMARK    3  A    between atoms: C_3  and  C_15 
REMARK       I    between atoms: N_4  and  C_5 
REMARK       I    between atoms: C_5  and  N_6 
REMARK    4  A    between atoms: N_6  and  C_7 
REMARK    5  A    between atoms: C_16  and  O_17 
REMARK    6  A    between atoms: O_17  and  C_18 
ROOT
HETATM    1  N   UNL     1      -8.948   0.886 -34.728  1.00  0.00    -0.334 N 
HETATM    2  C   UNL     1      -7.799   0.200 -34.991  1.00  0.00     0.321 C 
HETATM    3  N   UNL     1      -7.623  -0.926 -34.236  1.00  0.00    -0.307 N 
HETATM    4  O   UNL     1      -7.059   0.600 -35.884  1.00  0.00    -0.247 OA
HETATM    5  H   UNL     1      -9.072   1.684 -35.335  1.00  0.00     0.165 HD
HETATM    6  H   UNL     1      -8.498  -1.418 -34.101  1.00  0.00     0.170 HD
ENDROOT
BRANCH   1   7
HETATM    7  C   UNL     1      -9.734   0.864 -33.494  1.00  0.00     0.122 C 
BRANCH   7   8
HETATM    8  C   UNL     1      -9.142   1.874 -32.482  1.00  0.00     0.026 C 
HETATM    9  C   UNL     1      -8.276   1.267 -31.379  1.00  0.00     0.007 C 
ENDBRANCH   7   8
BRANCH   7  10
HETATM   10  C   UNL     1     -11.225   0.946 -33.806  1.00  0.00    -0.002 A 
HETATM   11  C   UNL     1     -11.721   2.037 -34.557  1.00  0.00     0.077 A 
HETATM   12  C   UNL     1     -13.079   2.111 -34.894  1.00  0.00     0.037 A 
HETATM   13  C   UNL     1     -13.963   1.118 -34.479  1.00  0.00     0.003 A 
HETATM   14  C   UNL     1     -13.492   0.038 -33.743  1.00  0.00     0.001 A 
HETATM   15  C   UNL     1     -12.136  -0.051 -33.416  1.00  0.00     0.012 A 
BRANCH  11  16
HETATM   16  O   UNL     1     -10.805   2.967 -34.993  1.00  0.00    -0.351 OA
BRANCH  16  17
HETATM   17  C   UNL     1     -11.179   4.332 -34.785  1.00  0.00     0.171 C 
HETATM   18  C   UNL     1      -9.955   5.092 -34.306  1.00  0.00     0.034 C 
ENDBRANCH  16  17
ENDBRANCH  11  16
ENDBRANCH   7  10
ENDBRANCH   1   7
BRANCH   3  19
HETATM   19  C   UNL     1      -6.453  -1.713 -34.150  1.00  0.00     0.059 A 
HETATM   20  C   UNL     1      -5.285  -1.374 -33.450  1.00  0.00    -0.032 A 
HETATM   21  C   UNL     1      -5.108  -0.120 -32.642  1.00  0.00     0.050 C 
HETATM   22  C   UNL     1      -4.207  -2.277 -33.482  1.00  0.00     0.028 A 
HETATM   23  C   UNL     1      -4.345  -3.488 -34.143  1.00  0.00     0.117 A 
HETATM   24  N   UNL     1      -5.472  -3.868 -34.772  1.00  0.00    -0.271 NA
HETATM   25  C   UNL     1      -6.490  -2.974 -34.757  1.00  0.00     0.146 A 
ENDBRANCH   3  19
TORSDOF 6
ENDMDL
MODEL 5
REMARK VINA RESULT:      -6.8      2.183      3.530
REMARK  6 active torsions:
REMARK  status: ('A' for Active; 'I' for Inactive)
REMARK    1  A    between atoms: C_2  and  C_3 
REMARK    2  A    between atoms: C_3  and  N_4 
REMARK    3  A    between atoms: C_3  and  C_15 
REMARK       I    between atoms: N_4  and  C_5 
REMARK       I    between atoms: C_5  and  N_6 
REMARK    4  A    between atoms: N_6  and  C_7 
REMARK    5  A    between atoms: C_16  and  O_17 
REMARK    6  A    between atoms: O_17  and  C_18 
ROOT
HETATM    1  N   UNL     1      -5.511   2.576 -33.228  1.00  0.00    -0.334 N 
HETATM    2  C   UNL     1      -4.786   3.730 -33.248  1.00  0.00     0.321 C 
HETATM    3  N   UNL     1      -3.504   3.605 -32.789  1.00  0.00    -0.307 N 
HETATM    4  O   UNL     1      -5.300   4.746 -33.704  1.00  0.00    -0.247 OA
HETATM    5  H   UNL     1      -6.437   2.690 -33.618  1.00  0.00     0.165 HD
HETATM    6  H   UNL     1      -3.091   2.730 -33.089  1.00  0.00     0.170 HD
ENDROOT
BRANCH   1   7
HETATM    7  C   UNL     1      -5.290   1.401 -32.384  1.00  0.00     0.122 C 
BRANCH   7   8
HETATM    8  C   UNL     1      -6.064   1.564 -31.053  1.00  0.00     0.026 C 
HETATM    9  C   UNL     1      -6.190   0.296 -30.209  1.00  0.00     0.007 C 
ENDBRANCH   7   8
BRANCH   7  10
HETATM   10  C   UNL     1      -5.495   0.119 -33.184  1.00  0.00    -0.002 A 
HETATM   11  C   UNL     1      -6.713  -0.086 -33.874  1.00  0.00     0.077 A 
HETATM   12  C   UNL     1      -6.907  -1.235 -34.652  1.00  0.00     0.037 A 
HETATM   13  C   UNL     1      -5.907  -2.201 -34.742  1.00  0.00     0.003 A 
HETATM   14  C   UNL     1      -4.705  -2.015 -34.073  1.00  0.00     0.001 A 
HETATM   15  C   UNL     1      -4.497  -0.864 -33.308  1.00  0.00     0.012 A 
BRANCH  11  16
HETATM   16  O   UNL     1      -7.651   0.918 -33.801  1.00  0.00    -0.351 OA
BRANCH  16  17
HETATM   17  C   UNL     1      -9.012   0.477 -33.766  1.00  0.00     0.171 C 
HETATM   18  C   UNL     1      -9.430   0.343 -32.313  1.00  0.00     0.034 C 
ENDBRANCH  16  17
ENDBRANCH  11  16
ENDBRANCH   7  10
ENDBRANCH   1   7
BRANCH   3  19
HETATM   19  C   UNL     1      -2.598   4.653 -32.512  1.00  0.00     0.059 A 
HETATM   20  C   UNL     1      -1.782   5.303 -33.450  1.00  0.00    -0.032 A 
HETATM   21  C   UNL     1      -1.773   5.008 -34.923  1.00  0.00     0.050 C 
HETATM   22  C   UNL     1      -0.928   6.322 -32.992  1.00  0.00     0.028 A 
HETATM   23  C   UNL     1      -0.956   6.693 -31.657  1.00  0.00     0.117 A 
HETATM   24  N   UNL     1      -1.769   6.131 -30.745  1.00  0.00    -0.271 NA
HETATM   25  C   UNL     1      -2.565   5.131 -31.197  1.00  0.00     0.146 A 
ENDBRANCH   3  19
TORSDOF 6
ENDMDL
MODEL 6
REMARK VINA RESULT:      -6.6      1.756      3.197
REMARK  6 active torsions:
REMARK  status: ('A' for Active; 'I' for Inactive)
REMARK    1  A    between atoms: C_2  and  C_3 
REMARK    2  A    between atoms: C_3  and  N_4 
REMARK    3  A    between atoms: C_3  and  C_15 
REMARK       I    between atoms: N_4  and  C_5 
REMARK       I    between atoms: C_5  and  N_6 
REMARK    4  A    between atoms: N_6  and  C_7 
REMARK    5  A    between atoms: C_16  and  O_17 
REMARK    6  A    between atoms: O_17  and  C_18 
ROOT
HETATM    1  N   UNL     1      -5.311  -0.623 -31.818  1.00  0.00    -0.334 N 
HETATM    2  C   UNL     1      -5.541   0.555 -31.171  1.00  0.00     0.321 C 
HETATM    3  N   UNL     1      -5.634   1.646 -31.991  1.00  0.00    -0.307 N 
HETATM    4  O   UNL     1      -5.691   0.546 -29.954  1.00  0.00    -0.247 OA
HETATM    5  H   UNL     1      -5.296  -1.415 -31.190  1.00  0.00     0.165 HD
HETATM    6  H   UNL     1      -6.128   1.421 -32.846  1.00  0.00     0.170 HD
ENDROOT
BRANCH   1   7
HETATM    7  C   UNL     1      -4.700  -0.810 -33.134  1.00  0.00     0.122 C 
BRANCH   7   8
HETATM    8  C   UNL     1      -3.182  -0.516 -33.050  1.00  0.00     0.026 C 
HETATM    9  C   UNL     1      -2.502  -0.949 -31.752  1.00  0.00     0.007 C 
ENDBRANCH   7   8
BRANCH   7  10
HETATM   10  C   UNL     1      -5.144  -2.134 -33.749  1.00  0.00    -0.002 A 
HETATM   11  C   UNL     1      -6.488  -2.295 -34.162  1.00  0.00     0.077 A 
HETATM   12  C   UNL     1      -6.908  -3.485 -34.770  1.00  0.00     0.037 A 
HETATM   13  C   UNL     1      -6.011  -4.534 -34.959  1.00  0.00     0.003 A 
HETATM   14  C   UNL     1      -4.689  -4.392 -34.560  1.00  0.00     0.001 A 
HETATM   15  C   UNL     1      -4.257  -3.202 -33.968  1.00  0.00     0.012 A 
BRANCH  11  16
HETATM   16  O   UNL     1      -7.325  -1.214 -34.007  1.00  0.00    -0.351 OA
BRANCH  16  17
HETATM   17  C   UNL     1      -7.493  -0.403 -35.174  1.00  0.00     0.171 C 
HETATM   18  C   UNL     1      -7.990   0.963 -34.735  1.00  0.00     0.034 C 
ENDBRANCH  16  17
ENDBRANCH  11  16
ENDBRANCH   7  10
ENDBRANCH   1   7
BRANCH   3  19
HETATM   19  C   UNL     1      -5.670   3.002 -31.596  1.00  0.00     0.059 A 
HETATM   20  C   UNL     1      -4.553   3.818 -31.361  1.00  0.00    -0.032 A 
HETATM   21  C   UNL     1      -3.126   3.382 -31.533  1.00  0.00     0.050 C 
HETATM   22  C   UNL     1      -4.776   5.148 -30.961  1.00  0.00     0.028 A 
HETATM   23  C   UNL     1      -6.073   5.628 -30.867  1.00  0.00     0.117 A 
HETATM   24  N   UNL     1      -7.162   4.889 -31.143  1.00  0.00    -0.271 NA
HETATM   25  C   UNL     1      -6.930   3.602 -31.499  1.00  0.00     0.146 A 
ENDBRANCH   3  19
TORSDOF 6
ENDMDL
MODEL 7
REMARK VINA RESULT:      -6.6      1.436      2.269
REMARK  6 active torsions:
REMARK  status: ('A' for Active; 'I' for Inactive)
REMARK    1  A    between atoms: C_2  and  C_3 
REMARK    2  A    between atoms: C_3  and  N_4 
REMARK    3  A    between atoms: C_3  and  C_15 
REMARK       I    between atoms: N_4  and  C_5 
REMARK       I    between atoms: C_5  and  N_6 
REMARK    4  A    between atoms: N_6  and  C_7 
REMARK    5  A    between atoms: C_16  and  O_17 
REMARK    6  A    between atoms: O_17  and  C_18 
ROOT
HETATM    1  N   UNL     1      -6.701   1.591 -33.716  1.00  0.00    -0.334 N 
HETATM    2  C   UNL     1      -6.642   2.733 -32.973  1.00  0.00     0.321 C 
HETATM    3  N   UNL     1      -6.698   2.537 -31.621  1.00  0.00    -0.307 N 
HETATM    4  O   UNL     1      -6.500   3.808 -33.547  1.00  0.00    -0.247 OA
HETATM    5  H   UNL     1      -6.608   1.766 -34.707  1.00  0.00     0.165 HD
HETATM    6  H   UNL     1      -6.172   1.715 -31.348  1.00  0.00     0.170 HD
ENDROOT
BRANCH   1   7
HETATM    7  C   UNL     1      -7.271   0.302 -33.322  1.00  0.00     0.122 C 
BRANCH   7   8
HETATM    8  C   UNL     1      -8.739   0.213 -33.807  1.00  0.00     0.026 C 
HETATM    9  C   UNL     1      -9.789   0.113 -32.702  1.00  0.00     0.007 C 
ENDBRANCH   7   8
BRANCH   7  10
HETATM   10  C   UNL     1      -6.323  -0.837 -33.682  1.00  0.00    -0.002 A 
HETATM   11  C   UNL     1      -5.110  -0.986 -32.970  1.00  0.00     0.077 A 
HETATM   12  C   UNL     1      -4.244  -2.051 -33.252  1.00  0.00     0.037 A 
HETATM   13  C   UNL     1      -4.559  -2.968 -34.253  1.00  0.00     0.003 A 
HETATM   14  C   UNL     1      -5.746  -2.837 -34.961  1.00  0.00     0.001 A 
HETATM   15  C   UNL     1      -6.623  -1.787 -34.674  1.00  0.00     0.012 A 
BRANCH  11  16
HETATM   16  O   UNL     1      -4.865  -0.091 -31.953  1.00  0.00    -0.351 OA
BRANCH  16  17
HETATM   17  C   UNL     1      -3.482   0.147 -31.674  1.00  0.00     0.171 C 
HETATM   18  C   UNL     1      -3.293   1.636 -31.449  1.00  0.00     0.034 C 
ENDBRANCH  16  17
ENDBRANCH  11  16
ENDBRANCH   7  10
ENDBRANCH   1   7
BRANCH   3  19
HETATM   19  C   UNL     1      -6.856   3.528 -30.627  1.00  0.00     0.059 A 
HETATM   20  C   UNL     1      -8.078   3.998 -30.123  1.00  0.00    -0.032 A 
HETATM   21  C   UNL     1      -9.427   3.486 -30.542  1.00  0.00     0.050 C 
HETATM   22  C   UNL     1      -8.047   5.002 -29.139  1.00  0.00     0.028 A 
HETATM   23  C   UNL     1      -6.828   5.452 -28.656  1.00  0.00     0.117 A 
HETATM   24  N   UNL     1      -5.641   4.979 -29.075  1.00  0.00    -0.271 NA
HETATM   25  C   UNL     1      -5.688   4.033 -30.044  1.00  0.00     0.146 A 
ENDBRANCH   3  19
TORSDOF 6
ENDMDL
MODEL 8
REMARK VINA RESULT:      -6.5     14.847     16.779
REMARK  6 active torsions:
REMARK  status: ('A' for Active; 'I' for Inactive)
REMARK    1  A    between atoms: C_2  and  C_3 
REMARK    2  A    between atoms: C_3  and  N_4 
REMARK    3  A    between atoms: C_3  and  C_15 
REMARK       I    between atoms: N_4  and  C_5 
REMARK       I    between atoms: C_5  and  N_6 
REMARK    4  A    between atoms: N_6  and  C_7 
REMARK    5  A    between atoms: C_16  and  O_17 
REMARK    6  A    between atoms: O_17  and  C_18 
ROOT
HETATM    1  N   UNL     1      -3.619 -12.197 -38.243  1.00  0.00    -0.334 N 
HETATM    2  C   UNL     1      -2.291 -12.460 -38.404  1.00  0.00     0.321 C 
HETATM    3  N   UNL     1      -2.003 -13.755 -38.736  1.00  0.00    -0.307 N 
HETATM    4  O   UNL     1      -1.486 -11.543 -38.290  1.00  0.00    -0.247 OA
HETATM    5  H   UNL     1      -3.802 -11.223 -38.046  1.00  0.00     0.165 HD
HETATM    6  H   UNL     1      -2.687 -14.127 -39.386  1.00  0.00     0.170 HD
ENDROOT
BRANCH   1   7
HETATM    7  C   UNL     1      -4.681 -13.149 -37.916  1.00  0.00     0.122 C 
BRANCH   7   8
HETATM    8  C   UNL     1      -4.842 -13.240 -36.378  1.00  0.00     0.026 C 
HETATM    9  C   UNL     1      -4.230 -14.479 -35.728  1.00  0.00     0.007 C 
ENDBRANCH   7   8
BRANCH   7  10
HETATM   10  C   UNL     1      -5.925 -12.875 -38.755  1.00  0.00    -0.002 A 
HETATM   11  C   UNL     1      -5.824 -12.853 -40.166  1.00  0.00     0.077 A 
HETATM   12  C   UNL     1      -6.960 -12.647 -40.959  1.00  0.00     0.037 A 
HETATM   13  C   UNL     1      -8.205 -12.444 -40.367  1.00  0.00     0.003 A 
HETATM   14  C   UNL     1      -8.323 -12.464 -38.983  1.00  0.00     0.001 A 
HETATM   15  C   UNL     1      -7.196 -12.685 -38.185  1.00  0.00     0.012 A 
BRANCH  11  16
HETATM   16  O   UNL     1      -4.586 -13.112 -40.710  1.00  0.00    -0.351 OA
BRANCH  16  17
HETATM   17  C   UNL     1      -4.602 -13.896 -41.907  1.00  0.00     0.171 C 
HETATM   18  C   UNL     1      -3.212 -14.470 -42.115  1.00  0.00     0.034 C 
ENDBRANCH  16  17
ENDBRANCH  11  16
ENDBRANCH   7  10
ENDBRANCH   1   7
BRANCH   3  19
HETATM   19  C   UNL     1      -0.726 -14.357 -38.771  1.00  0.00     0.059 A 
HETATM   20  C   UNL     1      -0.078 -14.972 -37.689  1.00  0.00    -0.032 A 
HETATM   21  C   UNL     1      -0.667 -15.121 -36.315  1.00  0.00     0.050 C 
HETATM   22  C   UNL     1       1.203 -15.511 -37.903  1.00  0.00     0.028 A 
HETATM   23  C   UNL     1       1.760 -15.476 -39.172  1.00  0.00     0.117 A 
HETATM   24  N   UNL     1       1.139 -14.948 -40.242  1.00  0.00    -0.271 NA
HETATM   25  C   UNL     1      -0.082 -14.407 -40.013  1.00  0.00     0.146 A 
ENDBRANCH   3  19
TORSDOF 6
ENDMDL
MODEL 9
REMARK VINA RESULT:      -6.5      2.173      4.213
REMARK  6 active torsions:
REMARK  status: ('A' for Active; 'I' for Inactive)
REMARK    1  A    between atoms: C_2  and  C_3 
REMARK    2  A    between atoms: C_3  and  N_4 
REMARK    3  A    between atoms: C_3  and  C_15 
REMARK       I    between atoms: N_4  and  C_5 
REMARK       I    between atoms: C_5  and  N_6 
REMARK    4  A    between atoms: N_6  and  C_7 
REMARK    5  A    between atoms: C_16  and  O_17 
REMARK    6  A    between atoms: O_17  and  C_18 
ROOT
HETATM    1  N   UNL     1      -5.644  -0.016 -31.411  1.00  0.00    -0.334 N 
HETATM    2  C   UNL     1      -6.655   0.866 -31.659  1.00  0.00     0.321 C 
HETATM    3  N   UNL     1      -6.659   1.386 -32.923  1.00  0.00    -0.307 N 
HETATM    4  O   UNL     1      -7.481   1.083 -30.780  1.00  0.00    -0.247 OA
HETATM    5  H   UNL     1      -5.697  -0.418 -30.486  1.00  0.00     0.165 HD
HETATM    6  H   UNL     1      -6.406   0.684 -33.609  1.00  0.00     0.170 HD
ENDROOT
BRANCH   1   7
HETATM    7  C   UNL     1      -4.357  -0.111 -32.102  1.00  0.00     0.122 C 
BRANCH   7   8
HETATM    8  C   UNL     1      -3.266   0.605 -31.270  1.00  0.00     0.026 C 
HETATM    9  C   UNL     1      -3.235   2.127 -31.401  1.00  0.00     0.007 C 
ENDBRANCH   7   8
BRANCH   7  10
HETATM   10  C   UNL     1      -4.095  -1.545 -32.553  1.00  0.00    -0.002 A 
HETATM   11  C   UNL     1      -4.650  -2.006 -33.769  1.00  0.00     0.077 A 
HETATM   12  C   UNL     1      -4.386  -3.304 -34.225  1.00  0.00     0.037 A 
HETATM   13  C   UNL     1      -3.587  -4.165 -33.476  1.00  0.00     0.003 A 
HETATM   14  C   UNL     1      -3.033  -3.728 -32.280  1.00  0.00     0.001 A 
HETATM   15  C   UNL     1      -3.279  -2.429 -31.826  1.00  0.00     0.012 A 
BRANCH  11  16
HETATM   16  O   UNL     1      -5.387  -1.106 -34.504  1.00  0.00    -0.351 OA
BRANCH  16  17
HETATM   17  C   UNL     1      -6.602  -1.623 -35.056  1.00  0.00     0.171 C 
HETATM   18  C   UNL     1      -7.579  -1.857 -33.918  1.00  0.00     0.034 C 
ENDBRANCH  16  17
ENDBRANCH  11  16
ENDBRANCH   7  10
ENDBRANCH   1   7
BRANCH   3  19
HETATM   19  C   UNL     1      -7.453   2.454 -33.397  1.00  0.00     0.059 A 
HETATM   20  C   UNL     1      -8.816   2.383 -33.721  1.00  0.00    -0.032 A 
HETATM   21  C   UNL     1      -9.665   1.152 -33.578  1.00  0.00     0.050 C 
HETATM   22  C   UNL     1      -9.447   3.549 -34.192  1.00  0.00     0.028 A 
HETATM   23  C   UNL     1      -8.733   4.734 -34.265  1.00  0.00     0.117 A 
HETATM   24  N   UNL     1      -7.442   4.848 -33.904  1.00  0.00    -0.271 NA
HETATM   25  C   UNL     1      -6.841   3.710 -33.481  1.00  0.00     0.146 A 
ENDBRANCH   3  19
TORSDOF 6
ENDMDL
MODEL 10
REMARK VINA RESULT:      -6.5      2.464      7.179
REMARK  6 active torsions:
REMARK  status: ('A' for Active; 'I' for Inactive)
REMARK    1  A    between atoms: C_2  and  C_3 
REMARK    2  A    between atoms: C_3  and  N_4 
REMARK    3  A    between atoms: C_3  and  C_15 
REMARK       I    between atoms: N_4  and  C_5 
REMARK       I    between atoms: C_5  and  N_6 
REMARK    4  A    between atoms: N_6  and  C_7 
REMARK    5  A    between atoms: C_16  and  O_17 
REMARK    6  A    between atoms: O_17  and  C_18 
ROOT
HETATM    1  N   UNL     1      -4.431   4.275 -30.456  1.00  0.00    -0.334 N 
HETATM    2  C   UNL     1      -4.779   2.985 -30.729  1.00  0.00     0.321 C 
HETATM    3  N   UNL     1      -4.307   2.507 -31.920  1.00  0.00    -0.307 N 
HETATM    4  O   UNL     1      -5.425   2.356 -29.898  1.00  0.00    -0.247 OA
HETATM    5  H   UNL     1      -4.753   4.582 -29.549  1.00  0.00     0.165 HD
HETATM    6  H   UNL     1      -3.366   2.838 -32.100  1.00  0.00     0.170 HD
ENDROOT
BRANCH   1   7
HETATM    7  C   UNL     1      -4.059   5.317 -31.414  1.00  0.00     0.122 C 
BRANCH   7   8
HETATM    8  C   UNL     1      -5.104   6.459 -31.373  1.00  0.00     0.026 C 
HETATM    9  C   UNL     1      -6.152   6.427 -32.484  1.00  0.00     0.007 C 
ENDBRANCH   7   8
BRANCH   7  10
HETATM   10  C   UNL     1      -2.585   5.684 -31.263  1.00  0.00    -0.002 A 
HETATM   11  C   UNL     1      -1.639   5.162 -32.176  1.00  0.00     0.077 A 
HETATM   12  C   UNL     1      -0.288   5.520 -32.084  1.00  0.00     0.037 A 
HETATM   13  C   UNL     1       0.145   6.382 -31.079  1.00  0.00     0.003 A 
HETATM   14  C   UNL     1      -0.770   6.904 -30.175  1.00  0.00     0.001 A 
HETATM   15  C   UNL     1      -2.123   6.565 -30.270  1.00  0.00     0.012 A 
BRANCH  11  16
HETATM   16  O   UNL     1      -2.119   4.358 -33.185  1.00  0.00    -0.351 OA
BRANCH  16  17
HETATM   17  C   UNL     1      -1.955   4.880 -34.507  1.00  0.00     0.171 C 
HETATM   18  C   UNL     1      -3.312   5.347 -35.004  1.00  0.00     0.034 C 
ENDBRANCH  16  17
ENDBRANCH  11  16
ENDBRANCH   7  10
ENDBRANCH   1   7
BRANCH   3  19
HETATM   19  C   UNL     1      -4.666   1.295 -32.548  1.00  0.00     0.059 A 
HETATM   20  C   UNL     1      -4.063   0.047 -32.332  1.00  0.00    -0.032 A 
HETATM   21  C   UNL     1      -2.949  -0.204 -31.355  1.00  0.00     0.050 C 
HETATM   22  C   UNL     1      -4.544  -1.058 -33.057  1.00  0.00     0.028 A 
HETATM   23  C   UNL     1      -5.626  -0.900 -33.909  1.00  0.00     0.117 A 
HETATM   24  N   UNL     1      -6.264   0.270 -34.093  1.00  0.00    -0.271 NA
HETATM   25  C   UNL     1      -5.769   1.329 -33.409  1.00  0.00     0.146 A 
ENDBRANCH   3  19
TORSDOF 6
ENDMDL
