MODEL 1
REMARK VINA RESULT:      -8.4      0.000      0.000
REMARK  4 active torsions:
REMARK  status: ('A' for Active; 'I' for Inactive)
REMARK    1  A    between atoms: C_4  and  C_5 
REMARK       I    between atoms: C_5  and  N_6 
REMARK    2  A    between atoms: N_6  and  C_7 
REMARK    3  A    between atoms: C_20  and  C_21 
REMARK    4  A    between atoms: C_24  and  O_25 
ROOT
HETATM    1  C   UNL     1      -3.413   2.311 -31.999  1.00  0.00     0.263 C 
HETATM    2  N   UNL     1      -4.484   2.113 -32.858  1.00  0.00    -0.323 N 
HETATM    3  O   UNL     1      -2.939   1.427 -31.287  1.00  0.00    -0.267 OA
HETATM    4  H   UNL     1      -4.860   2.959 -33.273  1.00  0.00     0.169 HD
ENDROOT
BRANCH   1   5
HETATM    5  C   UNL     1      -2.887   3.673 -31.983  1.00  0.00     0.074 A 
HETATM    6  S   UNL     1      -2.711   4.598 -33.409  1.00  0.00    -0.089 SA
HETATM    7  C   UNL     1      -1.950   5.892 -32.580  1.00  0.00    -0.009 A 
HETATM    8  C   UNL     1      -1.433   7.048 -33.379  1.00  0.00     0.057 C 
HETATM    9  C   UNL     1      -1.913   5.670 -31.212  1.00  0.00    -0.012 A 
HETATM   10  C   UNL     1      -2.430   4.373 -30.884  1.00  0.00     0.038 A 
BRANCH   9  11
HETATM   11  C   UNL     1      -1.337   6.622 -30.266  1.00  0.00    -0.025 A 
HETATM   12  C   UNL     1       0.018   6.541 -29.929  1.00  0.00     0.015 A 
HETATM   13  C   UNL     1       0.578   7.455 -29.032  1.00  0.00     0.037 A 
HETATM   14  C   UNL     1      -0.200   8.464 -28.464  1.00  0.00     0.068 A 
HETATM   15  C   UNL     1      -1.558   8.535 -28.775  1.00  0.00     0.037 A 
HETATM   16  C   UNL     1      -2.124   7.613 -29.665  1.00  0.00     0.015 A 
BRANCH  14  17
HETATM   17  O   UNL     1       0.474   9.303 -27.620  1.00  0.00    -0.356 OA
HETATM   18  C   UNL     1       1.726   8.842 -27.129  1.00  0.00     0.210 C 
ENDBRANCH  14  17
ENDBRANCH   9  11
ENDBRANCH   1   5
BRANCH   2  19
HETATM   19  C   UNL     1      -5.104   0.898 -33.204  1.00  0.00     0.035 A 
HETATM   20  C   UNL     1      -4.393  -0.259 -33.536  1.00  0.00     0.039 A 
HETATM   21  C   UNL     1      -5.098  -1.389 -33.920  1.00  0.00    -0.022 A 
HETATM   22  C   UNL     1      -6.496  -1.398 -33.959  1.00  0.00    -0.025 A 
HETATM   23  C   UNL     1      -4.556  -2.719 -34.322  1.00  0.00     0.274 C 
HETATM   24  C   UNL     1      -6.991  -2.741 -34.380  1.00  0.00     0.273 C 
HETATM   25  C   UNL     1      -7.219  -0.269 -33.618  1.00  0.00     0.012 A 
HETATM   26  N   UNL     1      -5.754  -3.437 -34.931  1.00  0.00    -0.067 N 
HETATM   27  H   UNL     1      -5.730  -3.210 -35.933  1.00  0.00     0.280 HD
HETATM   28  C   UNL     1      -5.741  -4.913 -34.778  1.00  0.00     0.270 C 
HETATM   29  C   UNL     1      -6.512   0.884 -33.253  1.00  0.00     0.030 A 
ENDBRANCH   2  19
TORSDOF 4
ENDMDL
MODEL 2
REMARK VINA RESULT:      -8.1      1.609      2.275
REMARK  4 active torsions:
REMARK  status: ('A' for Active; 'I' for Inactive)
REMARK    1  A    between atoms: C_4  and  C_5 
REMARK       I    between atoms: C_5  and  N_6 
REMARK    2  A    between atoms: N_6  and  C_7 
REMARK    3  A    between atoms: C_20  and  C_21 
REMARK    4  A    between atoms: C_24  and  O_25 
ROOT
HETATM    1  C   UNL     1      -2.719   4.194 -32.279  1.00  0.00     0.263 C 
HETATM    2  N   UNL     1      -3.558   3.259 -31.692  1.00  0.00    -0.323 N 
HETATM    3  O   UNL     1      -2.256   4.077 -33.412  1.00  0.00    -0.267 OA
HETATM    4  H   UNL     1      -3.746   3.412 -30.707  1.00  0.00     0.169 HD
ENDROOT
BRANCH   1   5
HETATM    5  C   UNL     1      -2.399   5.342 -31.435  1.00  0.00     0.074 A 
HETATM    6  S   UNL     1      -3.145   6.865 -31.648  1.00  0.00    -0.089 SA
HETATM    7  C   UNL     1      -2.166   7.609 -30.453  1.00  0.00    -0.009 A 
HETATM    8  C   UNL     1      -2.297   9.085 -30.238  1.00  0.00     0.057 C 
HETATM    9  C   UNL     1      -1.341   6.689 -29.823  1.00  0.00    -0.012 A 
HETATM   10  C   UNL     1      -1.465   5.391 -30.419  1.00  0.00     0.038 A 
BRANCH   9  11
HETATM   11  C   UNL     1      -0.418   7.050 -28.750  1.00  0.00    -0.025 A 
HETATM   12  C   UNL     1       0.649   7.917 -29.009  1.00  0.00     0.015 A 
HETATM   13  C   UNL     1       1.531   8.275 -27.985  1.00  0.00     0.037 A 
HETATM   14  C   UNL     1       1.358   7.781 -26.691  1.00  0.00     0.068 A 
HETATM   15  C   UNL     1       0.312   6.896 -26.433  1.00  0.00     0.037 A 
HETATM   16  C   UNL     1      -0.566   6.526 -27.460  1.00  0.00     0.015 A 
BRANCH  14  17
HETATM   17  O   UNL     1       2.276   8.225 -25.780  1.00  0.00    -0.356 OA
HETATM   18  C   UNL     1       1.974   9.442 -25.109  1.00  0.00     0.210 C 
ENDBRANCH  14  17
ENDBRANCH   9  11
ENDBRANCH   1   5
BRANCH   2  19
HETATM   19  C   UNL     1      -4.160   2.137 -32.293  1.00  0.00     0.035 A 
HETATM   20  C   UNL     1      -3.551   0.880 -32.354  1.00  0.00     0.039 A 
HETATM   21  C   UNL     1      -4.203  -0.146 -33.020  1.00  0.00    -0.022 A 
HETATM   22  C   UNL     1      -5.458   0.047 -33.607  1.00  0.00    -0.025 A 
HETATM   23  C   UNL     1      -3.744  -1.551 -33.218  1.00  0.00     0.274 C 
HETATM   24  C   UNL     1      -5.935  -1.221 -34.231  1.00  0.00     0.273 C 
HETATM   25  C   UNL     1      -6.085   1.278 -33.542  1.00  0.00     0.012 A 
HETATM   26  N   UNL     1      -4.696  -2.105 -34.273  1.00  0.00    -0.067 N 
HETATM   27  H   UNL     1      -4.247  -1.912 -35.176  1.00  0.00     0.280 HD
HETATM   28  C   UNL     1      -4.958  -3.562 -34.173  1.00  0.00     0.270 C 
HETATM   29  C   UNL     1      -5.421   2.326 -32.893  1.00  0.00     0.030 A 
ENDBRANCH   2  19
TORSDOF 4
ENDMDL
MODEL 3
REMARK VINA RESULT:      -8.1      7.131     13.861
REMARK  4 active torsions:
REMARK  status: ('A' for Active; 'I' for Inactive)
REMARK    1  A    between atoms: C_4  and  C_5 
REMARK       I    between atoms: C_5  and  N_6 
REMARK    2  A    between atoms: N_6  and  C_7 
REMARK    3  A    between atoms: C_20  and  C_21 
REMARK    4  A    between atoms: C_24  and  O_25 
ROOT
HETATM    1  C   UNL     1       2.967   9.296 -24.246  1.00  0.00     0.263 C 
HETATM    2  N   UNL     1       3.477   8.218 -23.538  1.00  0.00    -0.323 N 
HETATM    3  O   UNL     1       3.349  10.454 -24.092  1.00  0.00    -0.267 OA
HETATM    4  H   UNL     1       2.972   7.347 -23.662  1.00  0.00     0.169 HD
ENDROOT
BRANCH   1   5
HETATM    5  C   UNL     1       1.909   8.957 -25.194  1.00  0.00     0.074 A 
HETATM    6  S   UNL     1       0.289   9.451 -24.965  1.00  0.00    -0.089 SA
HETATM    7  C   UNL     1      -0.263   8.574 -26.331  1.00  0.00    -0.009 A 
HETATM    8  C   UNL     1      -1.733   8.537 -26.611  1.00  0.00     0.057 C 
HETATM    9  C   UNL     1       0.788   7.984 -27.018  1.00  0.00    -0.012 A 
HETATM   10  C   UNL     1       2.032   8.189 -26.335  1.00  0.00     0.038 A 
BRANCH   9  11
HETATM   11  C   UNL     1       0.602   7.194 -28.233  1.00  0.00    -0.025 A 
HETATM   12  C   UNL     1       0.754   5.804 -28.192  1.00  0.00     0.015 A 
HETATM   13  C   UNL     1       0.568   5.040 -29.348  1.00  0.00     0.037 A 
HETATM   14  C   UNL     1       0.222   5.649 -30.556  1.00  0.00     0.068 A 
HETATM   15  C   UNL     1       0.095   7.036 -30.609  1.00  0.00     0.037 A 
HETATM   16  C   UNL     1       0.292   7.805 -29.455  1.00  0.00     0.015 A 
BRANCH  14  17
HETATM   17  O   UNL     1       0.050   4.787 -31.603  1.00  0.00    -0.356 OA
HETATM   18  C   UNL     1      -0.978   5.108 -32.532  1.00  0.00     0.210 C 
ENDBRANCH  14  17
ENDBRANCH   9  11
ENDBRANCH   1   5
BRANCH   2  19
HETATM   19  C   UNL     1       4.589   8.197 -22.674  1.00  0.00     0.035 A 
HETATM   20  C   UNL     1       5.879   7.857 -23.092  1.00  0.00     0.039 A 
HETATM   21  C   UNL     1       6.895   7.810 -22.150  1.00  0.00    -0.022 A 
HETATM   22  C   UNL     1       6.658   8.115 -20.806  1.00  0.00    -0.025 A 
HETATM   23  C   UNL     1       8.331   7.466 -22.363  1.00  0.00     0.274 C 
HETATM   24  C   UNL     1       7.923   8.008 -20.024  1.00  0.00     0.273 C 
HETATM   25  C   UNL     1       5.393   8.470 -20.376  1.00  0.00     0.012 A 
HETATM   26  N   UNL     1       8.876   7.269 -20.954  1.00  0.00    -0.067 N 
HETATM   27  H   UNL     1       8.747   6.271 -20.747  1.00  0.00     0.280 HD
HETATM   28  C   UNL     1      10.310   7.608 -20.786  1.00  0.00     0.270 C 
HETATM   29  C   UNL     1       4.357   8.496 -21.317  1.00  0.00     0.030 A 
ENDBRANCH   2  19
TORSDOF 4
ENDMDL
MODEL 4
REMARK VINA RESULT:      -8.1      6.996     10.983
REMARK  4 active torsions:
REMARK  status: ('A' for Active; 'I' for Inactive)
REMARK    1  A    between atoms: C_4  and  C_5 
REMARK       I    between atoms: C_5  and  N_6 
REMARK    2  A    between atoms: N_6  and  C_7 
REMARK    3  A    between atoms: C_20  and  C_21 
REMARK    4  A    between atoms: C_24  and  O_25 
ROOT
HETATM    1  C   UNL     1     -11.528   2.322 -34.093  1.00  0.00     0.263 C 
HETATM    2  N   UNL     1     -12.215   2.361 -32.888  1.00  0.00    -0.323 N 
HETATM    3  O   UNL     1     -12.073   2.424 -35.190  1.00  0.00    -0.267 OA
HETATM    4  H   UNL     1     -11.661   2.121 -32.073  1.00  0.00     0.169 HD
ENDROOT
BRANCH   1   5
HETATM    5  C   UNL     1     -10.087   2.126 -33.968  1.00  0.00     0.074 A 
HETATM    6  S   UNL     1      -8.994   3.437 -33.872  1.00  0.00    -0.089 SA
HETATM    7  C   UNL     1      -7.622   2.409 -33.902  1.00  0.00    -0.009 A 
HETATM    8  C   UNL     1      -6.262   3.032 -33.944  1.00  0.00     0.057 C 
HETATM    9  C   UNL     1      -7.986   1.071 -33.887  1.00  0.00    -0.012 A 
HETATM   10  C   UNL     1      -9.411   0.922 -33.955  1.00  0.00     0.038 A 
BRANCH   9  11
HETATM   11  C   UNL     1      -7.014  -0.019 -33.887  1.00  0.00    -0.025 A 
HETATM   12  C   UNL     1      -6.107  -0.146 -32.830  1.00  0.00     0.015 A 
HETATM   13  C   UNL     1      -5.180  -1.192 -32.817  1.00  0.00     0.037 A 
HETATM   14  C   UNL     1      -5.149  -2.129 -33.851  1.00  0.00     0.068 A 
HETATM   15  C   UNL     1      -6.034  -1.993 -34.921  1.00  0.00     0.037 A 
HETATM   16  C   UNL     1      -6.955  -0.939 -34.942  1.00  0.00     0.015 A 
BRANCH  14  17
HETATM   17  O   UNL     1      -4.210  -3.112 -33.707  1.00  0.00    -0.356 OA
HETATM   18  C   UNL     1      -4.538  -4.392 -34.234  1.00  0.00     0.210 C 
ENDBRANCH  14  17
ENDBRANCH   9  11
ENDBRANCH   1   5
BRANCH   2  19
HETATM   19  C   UNL     1     -13.568   2.682 -32.672  1.00  0.00     0.035 A 
HETATM   20  C   UNL     1     -13.999   3.937 -32.233  1.00  0.00     0.039 A 
HETATM   21  C   UNL     1     -15.351   4.133 -31.994  1.00  0.00    -0.022 A 
HETATM   22  C   UNL     1     -16.284   3.114 -32.206  1.00  0.00    -0.025 A 
HETATM   23  C   UNL     1     -16.030   5.372 -31.517  1.00  0.00     0.274 C 
HETATM   24  C   UNL     1     -17.659   3.601 -31.896  1.00  0.00     0.273 C 
HETATM   25  C   UNL     1     -15.880   1.870 -32.657  1.00  0.00     0.012 A 
HETATM   26  N   UNL     1     -17.430   4.904 -31.141  1.00  0.00    -0.067 N 
HETATM   27  H   UNL     1     -17.375   4.644 -30.149  1.00  0.00     0.280 HD
HETATM   28  C   UNL     1     -18.495   5.923 -31.307  1.00  0.00     0.270 C 
HETATM   29  C   UNL     1     -14.514   1.657 -32.877  1.00  0.00     0.030 A 
ENDBRANCH   2  19
TORSDOF 4
ENDMDL
MODEL 5
REMARK VINA RESULT:      -8.1      3.401     10.728
REMARK  4 active torsions:
REMARK  status: ('A' for Active; 'I' for Inactive)
REMARK    1  A    between atoms: C_4  and  C_5 
REMARK       I    between atoms: C_5  and  N_6 
REMARK    2  A    between atoms: N_6  and  C_7 
REMARK    3  A    between atoms: C_20  and  C_21 
REMARK    4  A    between atoms: C_24  and  O_25 
ROOT
HETATM    1  C   UNL     1      -0.296   6.705 -30.958  1.00  0.00     0.263 C 
HETATM    2  N   UNL     1      -0.789   6.982 -29.691  1.00  0.00    -0.323 N 
HETATM    3  O   UNL     1       0.819   7.050 -31.345  1.00  0.00    -0.267 OA
HETATM    4  H   UNL     1      -1.771   6.766 -29.558  1.00  0.00     0.169 HD
ENDROOT
BRANCH   1   5
HETATM    5  C   UNL     1      -1.219   5.979 -31.826  1.00  0.00     0.074 A 
HETATM    6  S   UNL     1      -1.456   6.408 -33.463  1.00  0.00    -0.089 SA
HETATM    7  C   UNL     1      -2.702   5.249 -33.677  1.00  0.00    -0.009 A 
HETATM    8  C   UNL     1      -3.427   5.211 -34.986  1.00  0.00     0.057 C 
HETATM    9  C   UNL     1      -2.877   4.472 -32.541  1.00  0.00    -0.012 A 
HETATM   10  C   UNL     1      -2.035   4.923 -31.471  1.00  0.00     0.038 A 
BRANCH   9  11
HETATM   11  C   UNL     1      -3.860   3.395 -32.456  1.00  0.00    -0.025 A 
HETATM   12  C   UNL     1      -3.433   2.066 -32.368  1.00  0.00     0.015 A 
HETATM   13  C   UNL     1      -4.368   1.030 -32.277  1.00  0.00     0.037 A 
HETATM   14  C   UNL     1      -5.736   1.305 -32.264  1.00  0.00     0.068 A 
HETATM   15  C   UNL     1      -6.168   2.625 -32.378  1.00  0.00     0.037 A 
HETATM   16  C   UNL     1      -5.234   3.664 -32.482  1.00  0.00     0.015 A 
BRANCH  14  17
HETATM   17  O   UNL     1      -6.541   0.205 -32.150  1.00  0.00    -0.356 OA
HETATM   18  C   UNL     1      -6.449  -0.764 -33.187  1.00  0.00     0.210 C 
ENDBRANCH  14  17
ENDBRANCH   9  11
ENDBRANCH   1   5
BRANCH   2  19
HETATM   19  C   UNL     1      -0.097   7.526 -28.592  1.00  0.00     0.035 A 
HETATM   20  C   UNL     1      -0.169   8.876 -28.232  1.00  0.00     0.039 A 
HETATM   21  C   UNL     1       0.598   9.324 -27.167  1.00  0.00    -0.022 A 
HETATM   22  C   UNL     1       1.416   8.454 -26.440  1.00  0.00    -0.025 A 
HETATM   23  C   UNL     1       0.688  10.707 -26.618  1.00  0.00     0.274 C 
HETATM   24  C   UNL     1       2.105   9.191 -25.342  1.00  0.00     0.273 C 
HETATM   25  C   UNL     1       1.487   7.112 -26.769  1.00  0.00     0.012 A 
HETATM   26  N   UNL     1       1.898  10.658 -25.692  1.00  0.00    -0.067 N 
HETATM   27  H   UNL     1       2.701  10.921 -26.276  1.00  0.00     0.280 HD
HETATM   28  C   UNL     1       1.833  11.580 -24.531  1.00  0.00     0.270 C 
HETATM   29  C   UNL     1       0.735   6.657 -27.859  1.00  0.00     0.030 A 
ENDBRANCH   2  19
TORSDOF 4
ENDMDL
MODEL 6
REMARK VINA RESULT:      -8.0      3.119     10.681
REMARK  4 active torsions:
REMARK  status: ('A' for Active; 'I' for Inactive)
REMARK    1  A    between atoms: C_4  and  C_5 
REMARK       I    between atoms: C_5  and  N_6 
REMARK    2  A    between atoms: N_6  and  C_7 
REMARK    3  A    between atoms: C_20  and  C_21 
REMARK    4  A    between atoms: C_24  and  O_25 
ROOT
HETATM    1  C   UNL     1      -3.306   4.015 -31.316  1.00  0.00     0.263 C 
HETATM    2  N   UNL     1      -4.002   5.147 -30.917  1.00  0.00    -0.323 N 
HETATM    3  O   UNL     1      -2.107   4.014 -31.588  1.00  0.00    -0.267 OA
HETATM    4  H   UNL     1      -5.009   5.033 -30.866  1.00  0.00     0.169 HD
ENDROOT
BRANCH   1   5
HETATM    5  C   UNL     1      -4.116   2.804 -31.414  1.00  0.00     0.074 A 
HETATM    6  S   UNL     1      -5.327   2.424 -30.270  1.00  0.00    -0.089 SA
HETATM    7  C   UNL     1      -5.645   0.898 -30.985  1.00  0.00    -0.009 A 
HETATM    8  C   UNL     1      -6.624  -0.016 -30.315  1.00  0.00     0.057 C 
HETATM    9  C   UNL     1      -4.906   0.712 -32.143  1.00  0.00    -0.012 A 
HETATM   10  C   UNL     1      -4.006   1.807 -32.363  1.00  0.00     0.038 A 
BRANCH   9  11
HETATM   11  C   UNL     1      -4.999  -0.493 -32.963  1.00  0.00    -0.025 A 
HETATM   12  C   UNL     1      -6.070  -0.656 -33.847  1.00  0.00     0.015 A 
HETATM   13  C   UNL     1      -6.161  -1.802 -34.643  1.00  0.00     0.037 A 
HETATM   14  C   UNL     1      -5.183  -2.796 -34.574  1.00  0.00     0.068 A 
HETATM   15  C   UNL     1      -4.127  -2.652 -33.676  1.00  0.00     0.037 A 
HETATM   16  C   UNL     1      -4.040  -1.510 -32.869  1.00  0.00     0.015 A 
BRANCH  14  17
HETATM   17  O   UNL     1      -5.380  -3.853 -35.418  1.00  0.00    -0.356 OA
HETATM   18  C   UNL     1      -6.655  -4.482 -35.368  1.00  0.00     0.210 C 
ENDBRANCH  14  17
ENDBRANCH   9  11
ENDBRANCH   1   5
BRANCH   2  19
HETATM   19  C   UNL     1      -3.482   6.413 -30.589  1.00  0.00     0.035 A 
HETATM   20  C   UNL     1      -3.186   6.806 -29.281  1.00  0.00     0.039 A 
HETATM   21  C   UNL     1      -2.732   8.097 -29.058  1.00  0.00    -0.022 A 
HETATM   22  C   UNL     1      -2.546   8.997 -30.112  1.00  0.00    -0.025 A 
HETATM   23  C   UNL     1      -2.368   8.732 -27.759  1.00  0.00     0.274 C 
HETATM   24  C   UNL     1      -2.031  10.297 -29.594  1.00  0.00     0.273 C 
HETATM   25  C   UNL     1      -2.816   8.622 -31.416  1.00  0.00     0.012 A 
HETATM   26  N   UNL     1      -2.258  10.215 -28.091  1.00  0.00    -0.067 N 
HETATM   27  H   UNL     1      -3.195  10.603 -27.929  1.00  0.00     0.280 HD
HETATM   28  C   UNL     1      -1.283  10.969 -27.265  1.00  0.00     0.270 C 
HETATM   29  C   UNL     1      -3.299   7.327 -31.646  1.00  0.00     0.030 A 
ENDBRANCH   2  19
TORSDOF 4
ENDMDL
MODEL 7
REMARK VINA RESULT:      -8.0      1.818      2.096
REMARK  4 active torsions:
REMARK  status: ('A' for Active; 'I' for Inactive)
REMARK    1  A    between atoms: C_4  and  C_5 
REMARK       I    between atoms: C_5  and  N_6 
REMARK    2  A    between atoms: N_6  and  C_7 
REMARK    3  A    between atoms: C_20  and  C_21 
REMARK    4  A    between atoms: C_24  and  O_25 
ROOT
HETATM    1  C   UNL     1      -5.899   2.826 -31.725  1.00  0.00     0.263 C 
HETATM    2  N   UNL     1      -5.405   2.243 -32.882  1.00  0.00    -0.323 N 
HETATM    3  O   UNL     1      -6.762   2.310 -31.018  1.00  0.00    -0.267 OA
HETATM    4  H   UNL     1      -4.806   2.842 -33.441  1.00  0.00     0.169 HD
ENDROOT
BRANCH   1   5
HETATM    5  C   UNL     1      -5.329   4.133 -31.409  1.00  0.00     0.074 A 
HETATM    6  S   UNL     1      -6.200   5.586 -31.634  1.00  0.00    -0.089 SA
HETATM    7  C   UNL     1      -4.856   6.560 -31.205  1.00  0.00    -0.009 A 
HETATM    8  C   UNL     1      -4.986   8.047 -31.317  1.00  0.00     0.057 C 
HETATM    9  C   UNL     1      -3.776   5.791 -30.799  1.00  0.00    -0.012 A 
HETATM   10  C   UNL     1      -4.053   4.392 -30.949  1.00  0.00     0.038 A 
BRANCH   9  11
HETATM   11  C   UNL     1      -2.508   6.367 -30.360  1.00  0.00    -0.025 A 
HETATM   12  C   UNL     1      -2.419   6.991 -29.112  1.00  0.00     0.015 A 
HETATM   13  C   UNL     1      -1.206   7.536 -28.680  1.00  0.00     0.037 A 
HETATM   14  C   UNL     1      -0.066   7.460 -29.481  1.00  0.00     0.068 A 
HETATM   15  C   UNL     1      -0.154   6.862 -30.737  1.00  0.00     0.037 A 
HETATM   16  C   UNL     1      -1.371   6.326 -31.177  1.00  0.00     0.015 A 
BRANCH  14  17
HETATM   17  O   UNL     1       1.058   8.013 -28.932  1.00  0.00    -0.356 OA
HETATM   18  C   UNL     1       1.126   8.045 -27.512  1.00  0.00     0.210 C 
ENDBRANCH  14  17
ENDBRANCH   9  11
ENDBRANCH   1   5
BRANCH   2  19
HETATM   19  C   UNL     1      -5.642   0.942 -33.366  1.00  0.00     0.035 A 
HETATM   20  C   UNL     1      -4.780  -0.134 -33.129  1.00  0.00     0.039 A 
HETATM   21  C   UNL     1      -5.075  -1.363 -33.699  1.00  0.00    -0.022 A 
HETATM   22  C   UNL     1      -6.219  -1.549 -34.481  1.00  0.00    -0.025 A 
HETATM   23  C   UNL     1      -4.302  -2.634 -33.593  1.00  0.00     0.274 C 
HETATM   24  C   UNL     1      -6.301  -2.963 -34.945  1.00  0.00     0.273 C 
HETATM   25  C   UNL     1      -7.093  -0.502 -34.713  1.00  0.00     0.012 A 
HETATM   26  N   UNL     1      -4.916  -3.529 -34.663  1.00  0.00    -0.067 N 
HETATM   27  H   UNL     1      -4.366  -3.356 -35.513  1.00  0.00     0.280 HD
HETATM   28  C   UNL     1      -4.878  -4.981 -34.359  1.00  0.00     0.270 C 
HETATM   29  C   UNL     1      -6.789   0.749 -34.160  1.00  0.00     0.030 A 
ENDBRANCH   2  19
TORSDOF 4
ENDMDL
MODEL 8
REMARK VINA RESULT:      -8.0      3.394     10.395
REMARK  4 active torsions:
REMARK  status: ('A' for Active; 'I' for Inactive)
REMARK    1  A    between atoms: C_4  and  C_5 
REMARK       I    between atoms: C_5  and  N_6 
REMARK    2  A    between atoms: N_6  and  C_7 
REMARK    3  A    between atoms: C_20  and  C_21 
REMARK    4  A    between atoms: C_24  and  O_25 
ROOT
HETATM    1  C   UNL     1      -3.903   1.990 -32.046  1.00  0.00     0.263 C 
HETATM    2  N   UNL     1      -3.938   3.334 -32.388  1.00  0.00    -0.323 N 
HETATM    3  O   UNL     1      -3.007   1.482 -31.375  1.00  0.00    -0.267 OA
HETATM    4  H   UNL     1      -4.654   3.585 -33.062  1.00  0.00     0.169 HD
ENDROOT
BRANCH   1   5
HETATM    5  C   UNL     1      -5.015   1.199 -32.565  1.00  0.00     0.074 A 
HETATM    6  S   UNL     1      -4.780  -0.320 -33.312  1.00  0.00    -0.089 SA
HETATM    7  C   UNL     1      -6.437  -0.468 -33.729  1.00  0.00    -0.009 A 
HETATM    8  C   UNL     1      -6.865  -1.643 -34.552  1.00  0.00     0.057 C 
HETATM    9  C   UNL     1      -7.187   0.583 -33.223  1.00  0.00    -0.012 A 
HETATM   10  C   UNL     1      -6.350   1.552 -32.579  1.00  0.00     0.038 A 
BRANCH   9  11
HETATM   11  C   UNL     1      -8.631   0.695 -33.413  1.00  0.00    -0.025 A 
HETATM   12  C   UNL     1      -9.151   1.693 -34.243  1.00  0.00     0.015 A 
HETATM   13  C   UNL     1     -10.531   1.801 -34.438  1.00  0.00     0.037 A 
HETATM   14  C   UNL     1     -11.409   0.913 -33.815  1.00  0.00     0.068 A 
HETATM   15  C   UNL     1     -10.899  -0.067 -32.965  1.00  0.00     0.037 A 
HETATM   16  C   UNL     1      -9.518  -0.170 -32.759  1.00  0.00     0.015 A 
BRANCH  14  17
HETATM   17  O   UNL     1     -12.730   1.115 -34.105  1.00  0.00    -0.356 OA
HETATM   18  C   UNL     1     -13.639   0.107 -33.681  1.00  0.00     0.210 C 
ENDBRANCH  14  17
ENDBRANCH   9  11
ENDBRANCH   1   5
BRANCH   2  19
HETATM   19  C   UNL     1      -3.104   4.369 -31.924  1.00  0.00     0.035 A 
HETATM   20  C   UNL     1      -3.464   5.239 -30.891  1.00  0.00     0.039 A 
HETATM   21  C   UNL     1      -2.595   6.263 -30.547  1.00  0.00    -0.022 A 
HETATM   22  C   UNL     1      -1.366   6.424 -31.193  1.00  0.00    -0.025 A 
HETATM   23  C   UNL     1      -2.772   7.305 -29.495  1.00  0.00     0.274 C 
HETATM   24  C   UNL     1      -0.626   7.581 -30.612  1.00  0.00     0.273 C 
HETATM   25  C   UNL     1      -0.983   5.563 -32.206  1.00  0.00     0.012 A 
HETATM   26  N   UNL     1      -1.674   8.320 -29.792  1.00  0.00    -0.067 N 
HETATM   27  H   UNL     1      -2.098   9.003 -30.432  1.00  0.00     0.280 HD
HETATM   28  C   UNL     1      -1.153   9.040 -28.604  1.00  0.00     0.270 C 
HETATM   29  C   UNL     1      -1.867   4.542 -32.575  1.00  0.00     0.030 A 
ENDBRANCH   2  19
TORSDOF 4
ENDMDL
MODEL 9
REMARK VINA RESULT:      -7.9      3.071      4.138
REMARK  4 active torsions:
REMARK  status: ('A' for Active; 'I' for Inactive)
REMARK    1  A    between atoms: C_4  and  C_5 
REMARK       I    between atoms: C_5  and  N_6 
REMARK    2  A    between atoms: N_6  and  C_7 
REMARK    3  A    between atoms: C_20  and  C_21 
REMARK    4  A    between atoms: C_24  and  O_25 
ROOT
HETATM    1  C   UNL     1      -6.100   4.317 -33.814  1.00  0.00     0.263 C 
HETATM    2  N   UNL     1      -6.234   2.961 -33.553  1.00  0.00    -0.323 N 
HETATM    3  O   UNL     1      -7.031   5.036 -34.172  1.00  0.00    -0.267 OA
HETATM    4  H   UNL     1      -5.360   2.466 -33.409  1.00  0.00     0.169 HD
ENDROOT
BRANCH   1   5
HETATM    5  C   UNL     1      -4.746   4.839 -33.652  1.00  0.00     0.074 A 
HETATM    6  S   UNL     1      -3.745   5.203 -34.989  1.00  0.00    -0.089 SA
HETATM    7  C   UNL     1      -2.401   5.575 -33.991  1.00  0.00    -0.009 A 
HETATM    8  C   UNL     1      -1.092   5.896 -34.644  1.00  0.00     0.057 C 
HETATM    9  C   UNL     1      -2.732   5.518 -32.646  1.00  0.00    -0.012 A 
HETATM   10  C   UNL     1      -4.080   5.064 -32.464  1.00  0.00     0.038 A 
BRANCH   9  11
HETATM   11  C   UNL     1      -1.780   5.810 -31.577  1.00  0.00    -0.025 A 
HETATM   12  C   UNL     1      -1.812   7.051 -30.933  1.00  0.00     0.015 A 
HETATM   13  C   UNL     1      -0.910   7.335 -29.903  1.00  0.00     0.037 A 
HETATM   14  C   UNL     1       0.029   6.385 -29.497  1.00  0.00     0.068 A 
HETATM   15  C   UNL     1       0.084   5.156 -30.153  1.00  0.00     0.037 A 
HETATM   16  C   UNL     1      -0.811   4.874 -31.194  1.00  0.00     0.015 A 
BRANCH  14  17
HETATM   17  O   UNL     1       0.837   6.781 -28.467  1.00  0.00    -0.356 OA
HETATM   18  C   UNL     1       1.022   8.181 -28.303  1.00  0.00     0.210 C 
ENDBRANCH  14  17
ENDBRANCH   9  11
ENDBRANCH   1   5
BRANCH   2  19
HETATM   19  C   UNL     1      -7.419   2.207 -33.477  1.00  0.00     0.035 A 
HETATM   20  C   UNL     1      -8.655   2.668 -33.942  1.00  0.00     0.039 A 
HETATM   21  C   UNL     1      -9.775   1.870 -33.766  1.00  0.00    -0.022 A 
HETATM   22  C   UNL     1      -9.687   0.614 -33.158  1.00  0.00    -0.025 A 
HETATM   23  C   UNL     1     -11.181   2.159 -34.168  1.00  0.00     0.274 C 
HETATM   24  C   UNL     1     -11.030  -0.035 -33.120  1.00  0.00     0.273 C 
HETATM   25  C   UNL     1      -8.472   0.131 -32.708  1.00  0.00     0.012 A 
HETATM   26  N   UNL     1     -11.998   1.095 -33.445  1.00  0.00    -0.067 N 
HETATM   27  H   UNL     1     -12.252   1.511 -32.541  1.00  0.00     0.280 HD
HETATM   28  C   UNL     1     -13.239   0.679 -34.143  1.00  0.00     0.270 C 
HETATM   29  C   UNL     1      -7.340   0.942 -32.859  1.00  0.00     0.030 A 
ENDBRANCH   2  19
TORSDOF 4
ENDMDL
MODEL 10
REMARK VINA RESULT:      -7.4      2.459      2.766
REMARK  4 active torsions:
REMARK  status: ('A' for Active; 'I' for Inactive)
REMARK    1  A    between atoms: C_4  and  C_5 
REMARK       I    between atoms: C_5  and  N_6 
REMARK    2  A    between atoms: N_6  and  C_7 
REMARK    3  A    between atoms: C_20  and  C_21 
REMARK    4  A    between atoms: C_24  and  O_25 
ROOT
HETATM    1  C   UNL     1      -6.581   2.444 -31.658  1.00  0.00     0.263 C 
HETATM    2  N   UNL     1      -5.962   1.995 -32.815  1.00  0.00    -0.323 N 
HETATM    3  O   UNL     1      -7.349   1.757 -30.987  1.00  0.00    -0.267 OA
HETATM    4  H   UNL     1      -5.472   2.710 -33.343  1.00  0.00     0.169 HD
ENDROOT
BRANCH   1   5
HETATM    5  C   UNL     1      -6.270   3.824 -31.296  1.00  0.00     0.074 A 
HETATM    6  S   UNL     1      -7.108   5.153 -31.969  1.00  0.00    -0.089 SA
HETATM    7  C   UNL     1      -6.095   6.297 -31.189  1.00  0.00    -0.009 A 
HETATM    8  C   UNL     1      -6.290   7.749 -31.494  1.00  0.00     0.057 C 
HETATM    9  C   UNL     1      -5.184   5.680 -30.345  1.00  0.00    -0.012 A 
HETATM   10  C   UNL     1      -5.276   4.252 -30.438  1.00  0.00     0.038 A 
BRANCH   9  11
HETATM   11  C   UNL     1      -4.215   6.421 -29.542  1.00  0.00    -0.025 A 
HETATM   12  C   UNL     1      -2.988   6.797 -30.098  1.00  0.00     0.015 A 
HETATM   13  C   UNL     1      -2.059   7.515 -29.339  1.00  0.00     0.037 A 
HETATM   14  C   UNL     1      -2.342   7.873 -28.020  1.00  0.00     0.068 A 
HETATM   15  C   UNL     1      -3.552   7.478 -27.451  1.00  0.00     0.037 A 
HETATM   16  C   UNL     1      -4.480   6.749 -28.206  1.00  0.00     0.015 A 
BRANCH  14  17
HETATM   17  O   UNL     1      -1.359   8.591 -27.397  1.00  0.00    -0.356 OA
HETATM   18  C   UNL     1      -1.408   8.641 -25.976  1.00  0.00     0.210 C 
ENDBRANCH  14  17
ENDBRANCH   9  11
ENDBRANCH   1   5
BRANCH   2  19
HETATM   19  C   UNL     1      -5.943   0.687 -33.336  1.00  0.00     0.035 A 
HETATM   20  C   UNL     1      -4.993  -0.271 -32.969  1.00  0.00     0.039 A 
HETATM   21  C   UNL     1      -5.026  -1.514 -33.585  1.00  0.00    -0.022 A 
HETATM   22  C   UNL     1      -5.997  -1.828 -34.540  1.00  0.00    -0.025 A 
HETATM   23  C   UNL     1      -4.117  -2.674 -33.361  1.00  0.00     0.274 C 
HETATM   24  C   UNL     1      -5.814  -3.229 -35.018  1.00  0.00     0.273 C 
HETATM   25  C   UNL     1      -6.955  -0.900 -34.905  1.00  0.00     0.012 A 
HETATM   26  N   UNL     1      -4.428  -3.615 -34.519  1.00  0.00    -0.067 N 
HETATM   27  H   UNL     1      -3.779  -3.349 -35.270  1.00  0.00     0.280 HD
HETATM   28  C   UNL     1      -4.244  -5.056 -34.220  1.00  0.00     0.270 C 
HETATM   29  C   UNL     1      -6.913   0.365 -34.305  1.00  0.00     0.030 A 
ENDBRANCH   2  19
TORSDOF 4
ENDMDL
