MODEL 1
REMARK VINA RESULT:     -10.0      0.000      0.000
REMARK  7 active torsions:
REMARK  status: ('A' for Active; 'I' for Inactive)
REMARK    1  A    between atoms: O_2  and  C_3 
REMARK    2  A    between atoms: C_4  and  C_5 
REMARK    3  A    between atoms: N_10  and  C_12 
REMARK    4  A    between atoms: C_12  and  C_13 
REMARK       I    between atoms: C_13  and  N_14 
REMARK    5  A    between atoms: N_14  and  C_15 
REMARK    6  A    between atoms: C_15  and  C_16 
REMARK    7  A    between atoms: C_16  and  C_17 
ROOT
HETATM    1  C   UNL     1      -3.131   7.049 -30.506  1.00  0.00     0.190 C 
HETATM    2  O   UNL     1      -3.147   7.564 -31.852  1.00  0.00    -0.339 OA
HETATM    3  C   UNL     1      -2.667   6.731 -32.814  1.00  0.00     0.077 A 
HETATM    4  C   UNL     1      -3.307   5.536 -33.148  1.00  0.00     0.001 A 
HETATM    5  C   UNL     1      -4.587   5.132 -32.488  1.00  0.00     0.276 C 
HETATM    6  N   UNL     1      -4.479   4.876 -31.009  1.00  0.00    -0.056 N 
HETATM    7  H   UNL     1      -3.641   4.314 -30.810  1.00  0.00     0.280 HD
HETATM    8  C   UNL     1      -4.355   6.155 -30.191  1.00  0.00     0.273 C 
HETATM    9  C   UNL     1      -1.536   7.162 -33.508  1.00  0.00     0.037 A 
HETATM   10  C   UNL     1      -0.996   6.370 -34.516  1.00  0.00     0.003 A 
HETATM   11  C   UNL     1      -1.598   5.157 -34.840  1.00  0.00     0.001 A 
HETATM   12  C   UNL     1      -2.750   4.745 -34.167  1.00  0.00     0.012 A 
ENDROOT
BRANCH   6  13
HETATM   13  C   UNL     1      -5.648   4.009 -30.525  1.00  0.00     0.337 C 
BRANCH  13  14
HETATM   14  C   UNL     1      -5.434   2.518 -30.789  1.00  0.00     0.243 C 
HETATM   15  N   UNL     1      -4.143   2.091 -30.622  1.00  0.00    -0.359 N 
HETATM   16  H   UNL     1      -3.393   2.771 -30.495  1.00  0.00     0.162 HD
HETATM   17  O   UNL     1      -6.370   1.801 -31.135  1.00  0.00    -0.272 OA
BRANCH  15  18
HETATM   18  C   UNL     1      -3.666   0.793 -31.073  1.00  0.00     0.130 C 
BRANCH  18  19
HETATM   19  C   UNL     1      -3.569   0.733 -32.599  1.00  0.00     0.098 C 
BRANCH  19  20
HETATM   20  C   UNL     1      -4.384  -0.402 -33.191  1.00  0.00     0.109 A 
HETATM   21  N   UNL     1      -3.876  -1.590 -33.333  1.00  0.00    -0.234 NA
HETATM   22  C   UNL     1      -4.691  -2.588 -33.903  1.00  0.00     0.074 A 
HETATM   23  C   UNL     1      -5.990  -2.333 -34.356  1.00  0.00     0.061 A 
HETATM   24  C   UNL     1      -4.188  -3.886 -34.019  1.00  0.00     0.032 A 
HETATM   25  C   UNL     1      -6.500  -0.960 -34.211  1.00  0.00     0.259 A 
HETATM   26  C   UNL     1      -6.776  -3.342 -34.919  1.00  0.00     0.019 A 
HETATM   27  O   UNL     1      -7.614  -0.630 -34.595  1.00  0.00    -0.267 OA
HETATM   28  N   UNL     1      -5.642  -0.069 -33.618  1.00  0.00    -0.311 N 
HETATM   29  H   UNL     1      -6.008   0.868 -33.518  1.00  0.00     0.170 HD
HETATM   30  C   UNL     1      -6.259  -4.632 -35.029  1.00  0.00     0.001 A 
HETATM   31  C   UNL     1      -4.966  -4.903 -34.579  1.00  0.00     0.002 A 
ENDBRANCH  19  20
ENDBRANCH  18  19
ENDBRANCH  15  18
ENDBRANCH  13  14
ENDBRANCH   6  13
BRANCH   1  32
HETATM   32  C   UNL     1      -1.777   6.584 -29.954  1.00  0.00     0.006 A 
HETATM   33  C   UNL     1      -1.185   7.262 -28.864  1.00  0.00     0.077 A 
HETATM   34  C   UNL     1       0.041   6.831 -28.339  1.00  0.00     0.037 A 
HETATM   35  C   UNL     1       0.710   5.747 -28.902  1.00  0.00     0.003 A 
HETATM   36  C   UNL     1       0.157   5.085 -29.989  1.00  0.00     0.001 A 
HETATM   37  C   UNL     1      -1.073   5.497 -30.507  1.00  0.00     0.012 A 
BRANCH  33  38
HETATM   38  O   UNL     1      -1.889   8.313 -28.332  1.00  0.00    -0.355 OA
HETATM   39  C   UNL     1      -2.434   8.111 -27.029  1.00  0.00     0.210 C 
ENDBRANCH  33  38
ENDBRANCH   1  32
TORSDOF 7
ENDMDL
MODEL 2
REMARK VINA RESULT:      -9.9      1.390      1.830
REMARK  7 active torsions:
REMARK  status: ('A' for Active; 'I' for Inactive)
REMARK    1  A    between atoms: O_2  and  C_3 
REMARK    2  A    between atoms: C_4  and  C_5 
REMARK    3  A    between atoms: N_10  and  C_12 
REMARK    4  A    between atoms: C_12  and  C_13 
REMARK       I    between atoms: C_13  and  N_14 
REMARK    5  A    between atoms: N_14  and  C_15 
REMARK    6  A    between atoms: C_15  and  C_16 
REMARK    7  A    between atoms: C_16  and  C_17 
ROOT
HETATM    1  C   UNL     1      -3.290   7.402 -30.394  1.00  0.00     0.190 C 
HETATM    2  O   UNL     1      -3.384   7.737 -31.793  1.00  0.00    -0.339 OA
HETATM    3  C   UNL     1      -2.784   6.870 -32.653  1.00  0.00     0.077 A 
HETATM    4  C   UNL     1      -3.238   5.561 -32.824  1.00  0.00     0.001 A 
HETATM    5  C   UNL     1      -4.443   5.057 -32.096  1.00  0.00     0.276 C 
HETATM    6  N   UNL     1      -4.298   5.007 -30.599  1.00  0.00    -0.056 N 
HETATM    7  H   UNL     1      -3.385   4.605 -30.348  1.00  0.00     0.280 HD
HETATM    8  C   UNL     1      -4.367   6.382 -29.947  1.00  0.00     0.273 C 
HETATM    9  C   UNL     1      -1.731   7.374 -33.416  1.00  0.00     0.037 A 
HETATM   10  C   UNL     1      -1.079   6.551 -34.329  1.00  0.00     0.003 A 
HETATM   11  C   UNL     1      -1.493   5.231 -34.489  1.00  0.00     0.001 A 
HETATM   12  C   UNL     1      -2.569   4.740 -33.748  1.00  0.00     0.012 A 
ENDROOT
BRANCH   6  13
HETATM   13  C   UNL     1      -5.324   4.044 -29.989  1.00  0.00     0.337 C 
BRANCH  13  14
HETATM   14  C   UNL     1      -5.541   2.789 -30.836  1.00  0.00     0.243 C 
HETATM   15  N   UNL     1      -6.657   2.827 -31.630  1.00  0.00    -0.359 N 
HETATM   16  H   UNL     1      -7.344   3.572 -31.513  1.00  0.00     0.162 HD
HETATM   17  O   UNL     1      -4.762   1.843 -30.768  1.00  0.00    -0.272 OA
BRANCH  15  18
HETATM   18  C   UNL     1      -7.198   1.656 -32.305  1.00  0.00     0.130 C 
BRANCH  18  19
HETATM   19  C   UNL     1      -6.482   1.396 -33.633  1.00  0.00     0.098 C 
BRANCH  19  20
HETATM   20  C   UNL     1      -5.842   0.021 -33.690  1.00  0.00     0.109 A 
HETATM   21  N   UNL     1      -6.452  -0.981 -34.249  1.00  0.00    -0.234 NA
HETATM   22  C   UNL     1      -5.799  -2.229 -34.249  1.00  0.00     0.074 A 
HETATM   23  C   UNL     1      -4.557  -2.431 -33.637  1.00  0.00     0.061 A 
HETATM   24  C   UNL     1      -6.409  -3.311 -34.889  1.00  0.00     0.032 A 
HETATM   25  C   UNL     1      -3.930  -1.273 -32.980  1.00  0.00     0.259 A 
HETATM   26  C   UNL     1      -3.932  -3.681 -33.652  1.00  0.00     0.019 A 
HETATM   27  O   UNL     1      -2.857  -1.349 -32.398  1.00  0.00    -0.267 OA
HETATM   28  N   UNL     1      -4.632  -0.096 -33.059  1.00  0.00    -0.311 N 
HETATM   29  H   UNL     1      -4.186   0.693 -32.611  1.00  0.00     0.170 HD
HETATM   30  C   UNL     1      -4.555  -4.750 -34.293  1.00  0.00     0.001 A 
HETATM   31  C   UNL     1      -5.792  -4.565 -34.911  1.00  0.00     0.002 A 
ENDBRANCH  19  20
ENDBRANCH  18  19
ENDBRANCH  15  18
ENDBRANCH  13  14
ENDBRANCH   6  13
BRANCH   1  32
HETATM   32  C   UNL     1      -1.882   7.216 -29.815  1.00  0.00     0.006 A 
HETATM   33  C   UNL     1      -1.259   8.272 -29.112  1.00  0.00     0.077 A 
HETATM   34  C   UNL     1       0.020   8.105 -28.561  1.00  0.00     0.037 A 
HETATM   35  C   UNL     1       0.707   6.904 -28.722  1.00  0.00     0.003 A 
HETATM   36  C   UNL     1       0.122   5.865 -29.430  1.00  0.00     0.001 A 
HETATM   37  C   UNL     1      -1.158   6.017 -29.967  1.00  0.00     0.012 A 
BRANCH  33  38
HETATM   38  O   UNL     1      -1.981   9.429 -28.965  1.00  0.00    -0.355 OA
HETATM   39  C   UNL     1      -2.248   9.839 -27.625  1.00  0.00     0.210 C 
ENDBRANCH  33  38
ENDBRANCH   1  32
TORSDOF 7
ENDMDL
MODEL 3
REMARK VINA RESULT:      -9.6      1.609      3.219
REMARK  7 active torsions:
REMARK  status: ('A' for Active; 'I' for Inactive)
REMARK    1  A    between atoms: O_2  and  C_3 
REMARK    2  A    between atoms: C_4  and  C_5 
REMARK    3  A    between atoms: N_10  and  C_12 
REMARK    4  A    between atoms: C_12  and  C_13 
REMARK       I    between atoms: C_13  and  N_14 
REMARK    5  A    between atoms: N_14  and  C_15 
REMARK    6  A    between atoms: C_15  and  C_16 
REMARK    7  A    between atoms: C_16  and  C_17 
ROOT
HETATM    1  C   UNL     1      -2.775   7.671 -31.675  1.00  0.00     0.190 C 
HETATM    2  O   UNL     1      -1.374   7.966 -31.514  1.00  0.00    -0.339 OA
HETATM    3  C   UNL     1      -0.698   7.182 -30.632  1.00  0.00     0.077 A 
HETATM    4  C   UNL     1      -0.497   5.819 -30.853  1.00  0.00     0.001 A 
HETATM    5  C   UNL     1      -0.981   5.157 -32.104  1.00  0.00     0.276 C 
HETATM    6  N   UNL     1      -2.476   5.152 -32.275  1.00  0.00    -0.056 N 
HETATM    7  H   UNL     1      -2.930   4.892 -31.389  1.00  0.00     0.280 HD
HETATM    8  C   UNL     1      -3.035   6.513 -32.670  1.00  0.00     0.273 C 
HETATM    9  C   UNL     1      -0.148   7.822 -29.521  1.00  0.00     0.037 A 
HETATM   10  C   UNL     1       0.570   7.088 -28.582  1.00  0.00     0.003 A 
HETATM   11  C   UNL     1       0.752   5.720 -28.765  1.00  0.00     0.001 A 
HETATM   12  C   UNL     1       0.229   5.089 -29.896  1.00  0.00     0.012 A 
ENDROOT
BRANCH   6  13
HETATM   13  C   UNL     1      -2.903   4.060 -33.263  1.00  0.00     0.337 C 
BRANCH  13  14
HETATM   14  C   UNL     1      -3.772   2.979 -32.619  1.00  0.00     0.243 C 
HETATM   15  N   UNL     1      -3.208   2.372 -31.528  1.00  0.00    -0.359 N 
HETATM   16  H   UNL     1      -2.227   2.539 -31.301  1.00  0.00     0.162 HD
HETATM   17  O   UNL     1      -4.875   2.700 -33.083  1.00  0.00    -0.272 OA
BRANCH  15  18
HETATM   18  C   UNL     1      -3.731   1.152 -30.932  1.00  0.00     0.130 C 
BRANCH  18  19
HETATM   19  C   UNL     1      -2.951  -0.078 -31.404  1.00  0.00     0.098 C 
BRANCH  19  20
HETATM   20  C   UNL     1      -3.765  -0.965 -32.327  1.00  0.00     0.109 A 
HETATM   21  N   UNL     1      -3.447  -2.211 -32.515  1.00  0.00    -0.234 NA
HETATM   22  C   UNL     1      -4.244  -2.966 -33.399  1.00  0.00     0.074 A 
HETATM   23  C   UNL     1      -5.319  -2.414 -34.103  1.00  0.00     0.061 A 
HETATM   24  C   UNL     1      -3.955  -4.321 -33.578  1.00  0.00     0.032 A 
HETATM   25  C   UNL     1      -5.609  -0.988 -33.887  1.00  0.00     0.259 A 
HETATM   26  C   UNL     1      -6.092  -3.187 -34.974  1.00  0.00     0.019 A 
HETATM   27  O   UNL     1      -6.513  -0.406 -34.471  1.00  0.00    -0.267 OA
HETATM   28  N   UNL     1      -4.795  -0.348 -32.987  1.00  0.00    -0.311 N 
HETATM   29  H   UNL     1      -5.010   0.630 -32.842  1.00  0.00     0.170 HD
HETATM   30  C   UNL     1      -5.790  -4.537 -35.143  1.00  0.00     0.001 A 
HETATM   31  C   UNL     1      -4.722  -5.103 -34.445  1.00  0.00     0.002 A 
ENDBRANCH  19  20
ENDBRANCH  18  19
ENDBRANCH  15  18
ENDBRANCH  13  14
ENDBRANCH   6  13
BRANCH   1  32
HETATM   32  C   UNL     1      -3.643   7.701 -30.410  1.00  0.00     0.006 A 
HETATM   33  C   UNL     1      -4.018   8.937 -29.836  1.00  0.00     0.077 A 
HETATM   34  C   UNL     1      -4.828   8.974 -28.692  1.00  0.00     0.037 A 
HETATM   35  C   UNL     1      -5.251   7.794 -28.086  1.00  0.00     0.003 A 
HETATM   36  C   UNL     1      -4.872   6.571 -28.620  1.00  0.00     0.001 A 
HETATM   37  C   UNL     1      -4.080   6.525 -29.770  1.00  0.00     0.012 A 
BRANCH  33  38
HETATM   38  O   UNL     1      -3.591  10.072 -30.477  1.00  0.00    -0.355 OA
HETATM   39  C   UNL     1      -2.703  10.914 -29.743  1.00  0.00     0.210 C 
ENDBRANCH  33  38
ENDBRANCH   1  32
TORSDOF 7
ENDMDL
MODEL 4
REMARK VINA RESULT:      -9.4      1.929      3.963
REMARK  7 active torsions:
REMARK  status: ('A' for Active; 'I' for Inactive)
REMARK    1  A    between atoms: O_2  and  C_3 
REMARK    2  A    between atoms: C_4  and  C_5 
REMARK    3  A    between atoms: N_10  and  C_12 
REMARK    4  A    between atoms: C_12  and  C_13 
REMARK       I    between atoms: C_13  and  N_14 
REMARK    5  A    between atoms: N_14  and  C_15 
REMARK    6  A    between atoms: C_15  and  C_16 
REMARK    7  A    between atoms: C_16  and  C_17 
ROOT
HETATM    1  C   UNL     1      -2.758   8.216 -30.638  1.00  0.00     0.190 C 
HETATM    2  O   UNL     1      -1.399   8.393 -30.193  1.00  0.00    -0.339 OA
HETATM    3  C   UNL     1      -0.699   7.252 -29.950  1.00  0.00     0.077 A 
HETATM    4  C   UNL     1      -0.364   6.355 -30.966  1.00  0.00     0.001 A 
HETATM    5  C   UNL     1      -0.725   6.630 -32.391  1.00  0.00     0.276 C 
HETATM    6  N   UNL     1      -2.203   6.679 -32.668  1.00  0.00    -0.056 N 
HETATM    7  H   UNL     1      -2.675   5.894 -32.198  1.00  0.00     0.280 HD
HETATM    8  C   UNL     1      -2.863   7.955 -32.161  1.00  0.00     0.273 C 
HETATM    9  C   UNL     1      -0.264   7.052 -28.640  1.00  0.00     0.037 A 
HETATM   10  C   UNL     1       0.470   5.916 -28.317  1.00  0.00     0.003 A 
HETATM   11  C   UNL     1       0.784   4.990 -29.309  1.00  0.00     0.001 A 
HETATM   12  C   UNL     1       0.376   5.211 -30.627  1.00  0.00     0.012 A 
ENDROOT
BRANCH   6  13
HETATM   13  C   UNL     1      -2.480   6.457 -34.161  1.00  0.00     0.337 C 
BRANCH  13  14
HETATM   14  C   UNL     1      -3.673   5.534 -34.416  1.00  0.00     0.243 C 
HETATM   15  N   UNL     1      -4.220   4.989 -33.284  1.00  0.00    -0.359 N 
HETATM   16  H   UNL     1      -3.742   5.083 -32.388  1.00  0.00     0.162 HD
HETATM   17  O   UNL     1      -4.066   5.317 -35.559  1.00  0.00    -0.272 OA
BRANCH  15  18
HETATM   18  C   UNL     1      -5.174   3.890 -33.308  1.00  0.00     0.130 C 
BRANCH  18  19
HETATM   19  C   UNL     1      -4.946   2.928 -32.138  1.00  0.00     0.098 C 
BRANCH  19  20
HETATM   20  C   UNL     1      -4.793   1.488 -32.591  1.00  0.00     0.109 A 
HETATM   21  N   UNL     1      -5.714   0.904 -33.297  1.00  0.00    -0.234 NA
HETATM   22  C   UNL     1      -5.505  -0.440 -33.666  1.00  0.00     0.074 A 
HETATM   23  C   UNL     1      -4.380  -1.166 -33.263  1.00  0.00     0.061 A 
HETATM   24  C   UNL     1      -6.456  -1.075 -34.469  1.00  0.00     0.032 A 
HETATM   25  C   UNL     1      -3.388  -0.470 -32.428  1.00  0.00     0.259 A 
HETATM   26  C   UNL     1      -4.198  -2.498 -33.644  1.00  0.00     0.019 A 
HETATM   27  O   UNL     1      -2.381  -1.022 -32.006  1.00  0.00    -0.267 OA
HETATM   28  N   UNL     1      -3.668   0.844 -32.147  1.00  0.00    -0.311 N 
HETATM   29  H   UNL     1      -2.975   1.312 -31.579  1.00  0.00     0.170 HD
HETATM   30  C   UNL     1      -5.157  -3.119 -34.444  1.00  0.00     0.001 A 
HETATM   31  C   UNL     1      -6.284  -2.407 -34.857  1.00  0.00     0.002 A 
ENDBRANCH  19  20
ENDBRANCH  18  19
ENDBRANCH  15  18
ENDBRANCH  13  14
ENDBRANCH   6  13
BRANCH   1  32
HETATM   32  C   UNL     1      -3.686   7.395 -29.732  1.00  0.00     0.006 A 
HETATM   33  C   UNL     1      -3.989   7.850 -28.429  1.00  0.00     0.077 A 
HETATM   34  C   UNL     1      -4.852   7.118 -27.602  1.00  0.00     0.037 A 
HETATM   35  C   UNL     1      -5.401   5.916 -28.040  1.00  0.00     0.003 A 
HETATM   36  C   UNL     1      -5.096   5.440 -29.307  1.00  0.00     0.001 A 
HETATM   37  C   UNL     1      -4.251   6.173 -30.144  1.00  0.00     0.012 A 
BRANCH  33  38
HETATM   38  O   UNL     1      -3.437   9.047 -28.047  1.00  0.00    -0.355 OA
HETATM   39  C   UNL     1      -4.322   9.977 -27.423  1.00  0.00     0.210 C 
ENDBRANCH  33  38
ENDBRANCH   1  32
TORSDOF 7
ENDMDL
MODEL 5
REMARK VINA RESULT:      -9.3      3.696      7.828
REMARK  7 active torsions:
REMARK  status: ('A' for Active; 'I' for Inactive)
REMARK    1  A    between atoms: O_2  and  C_3 
REMARK    2  A    between atoms: C_4  and  C_5 
REMARK    3  A    between atoms: N_10  and  C_12 
REMARK    4  A    between atoms: C_12  and  C_13 
REMARK       I    between atoms: C_13  and  N_14 
REMARK    5  A    between atoms: N_14  and  C_15 
REMARK    6  A    between atoms: C_15  and  C_16 
REMARK    7  A    between atoms: C_16  and  C_17 
ROOT
HETATM    1  C   UNL     1      -9.470   2.782 -32.121  1.00  0.00     0.190 C 
HETATM    2  O   UNL     1      -8.661   1.621 -31.850  1.00  0.00    -0.339 OA
HETATM    3  C   UNL     1      -8.156   0.981 -32.939  1.00  0.00     0.077 A 
HETATM    4  C   UNL     1      -7.214   1.576 -33.780  1.00  0.00     0.001 A 
HETATM    5  C   UNL     1      -6.676   2.943 -33.497  1.00  0.00     0.276 C 
HETATM    6  N   UNL     1      -7.699   4.045 -33.556  1.00  0.00    -0.056 N 
HETATM    7  H   UNL     1      -8.294   3.928 -34.388  1.00  0.00     0.280 HD
HETATM    8  C   UNL     1      -8.629   4.062 -32.350  1.00  0.00     0.273 C 
HETATM    9  C   UNL     1      -8.571  -0.336 -33.139  1.00  0.00     0.037 A 
HETATM   10  C   UNL     1      -8.086  -1.060 -34.223  1.00  0.00     0.003 A 
HETATM   11  C   UNL     1      -7.173  -0.473 -35.094  1.00  0.00     0.001 A 
HETATM   12  C   UNL     1      -6.733   0.834 -34.872  1.00  0.00     0.012 A 
ENDROOT
BRANCH   6  13
HETATM   13  C   UNL     1      -7.016   5.404 -33.760  1.00  0.00     0.337 C 
BRANCH  13  14
HETATM   14  C   UNL     1      -5.490   5.306 -33.792  1.00  0.00     0.243 C 
HETATM   15  N   UNL     1      -4.891   5.387 -32.563  1.00  0.00    -0.359 N 
HETATM   16  H   UNL     1      -5.437   5.656 -31.744  1.00  0.00     0.162 HD
HETATM   17  O   UNL     1      -4.892   5.179 -34.857  1.00  0.00    -0.272 OA
BRANCH  15  18
HETATM   18  C   UNL     1      -3.460   5.586 -32.383  1.00  0.00     0.130 C 
BRANCH  18  19
HETATM   19  C   UNL     1      -2.902   4.669 -31.291  1.00  0.00     0.098 C 
BRANCH  19  20
HETATM   20  C   UNL     1      -3.489   3.271 -31.349  1.00  0.00     0.109 A 
HETATM   21  N   UNL     1      -3.108   2.420 -32.254  1.00  0.00    -0.234 NA
HETATM   22  C   UNL     1      -3.711   1.146 -32.251  1.00  0.00     0.074 A 
HETATM   23  C   UNL     1      -4.720   0.791 -31.350  1.00  0.00     0.061 A 
HETATM   24  C   UNL     1      -3.282   0.195 -33.180  1.00  0.00     0.032 A 
HETATM   25  C   UNL     1      -5.144   1.807 -30.373  1.00  0.00     0.259 A 
HETATM   26  C   UNL     1      -5.300  -0.480 -31.370  1.00  0.00     0.019 A 
HETATM   27  O   UNL     1      -6.033   1.604 -29.558  1.00  0.00    -0.267 OA
HETATM   28  N   UNL     1      -4.478   3.005 -30.439  1.00  0.00    -0.311 N 
HETATM   29  H   UNL     1      -4.774   3.692 -29.758  1.00  0.00     0.170 HD
HETATM   30  C   UNL     1      -4.864  -1.417 -32.305  1.00  0.00     0.001 A 
HETATM   31  C   UNL     1      -3.855  -1.080 -33.208  1.00  0.00     0.002 A 
ENDBRANCH  19  20
ENDBRANCH  18  19
ENDBRANCH  15  18
ENDBRANCH  13  14
ENDBRANCH   6  13
BRANCH   1  32
HETATM   32  C   UNL     1     -10.687   2.585 -33.035  1.00  0.00     0.006 A 
HETATM   33  C   UNL     1     -11.949   3.098 -32.657  1.00  0.00     0.077 A 
HETATM   34  C   UNL     1     -13.062   2.942 -33.495  1.00  0.00     0.037 A 
HETATM   35  C   UNL     1     -12.948   2.253 -34.700  1.00  0.00     0.003 A 
HETATM   36  C   UNL     1     -11.724   1.721 -35.077  1.00  0.00     0.001 A 
HETATM   37  C   UNL     1     -10.606   1.887 -34.256  1.00  0.00     0.012 A 
BRANCH  33  38
HETATM   38  O   UNL     1     -12.008   3.782 -31.469  1.00  0.00    -0.355 OA
HETATM   39  C   UNL     1     -13.313   4.022 -30.945  1.00  0.00     0.210 C 
ENDBRANCH  33  38
ENDBRANCH   1  32
TORSDOF 7
ENDMDL
MODEL 6
REMARK VINA RESULT:      -9.2      2.332      8.764
REMARK  7 active torsions:
REMARK  status: ('A' for Active; 'I' for Inactive)
REMARK    1  A    between atoms: O_2  and  C_3 
REMARK    2  A    between atoms: C_4  and  C_5 
REMARK    3  A    between atoms: N_10  and  C_12 
REMARK    4  A    between atoms: C_12  and  C_13 
REMARK       I    between atoms: C_13  and  N_14 
REMARK    5  A    between atoms: N_14  and  C_15 
REMARK    6  A    between atoms: C_15  and  C_16 
REMARK    7  A    between atoms: C_16  and  C_17 
ROOT
HETATM    1  C   UNL     1      -7.044   1.824 -30.799  1.00  0.00     0.190 C 
HETATM    2  O   UNL     1      -6.186   0.735 -30.407  1.00  0.00    -0.339 OA
HETATM    3  C   UNL     1      -5.334   0.275 -31.363  1.00  0.00     0.077 A 
HETATM    4  C   UNL     1      -4.294   1.057 -31.868  1.00  0.00     0.001 A 
HETATM    5  C   UNL     1      -4.036   2.434 -31.346  1.00  0.00     0.276 C 
HETATM    6  N   UNL     1      -5.144   3.420 -31.598  1.00  0.00    -0.056 N 
HETATM    7  H   UNL     1      -5.481   3.330 -32.566  1.00  0.00     0.280 HD
HETATM    8  C   UNL     1      -6.350   3.204 -30.692  1.00  0.00     0.273 C 
HETATM    9  C   UNL     1      -5.504  -1.049 -31.768  1.00  0.00     0.037 A 
HETATM   10  C   UNL     1      -4.662  -1.594 -32.731  1.00  0.00     0.003 A 
HETATM   11  C   UNL     1      -3.640  -0.820 -33.274  1.00  0.00     0.001 A 
HETATM   12  C   UNL     1      -3.451   0.494 -32.842  1.00  0.00     0.012 A 
ENDROOT
BRANCH   6  13
HETATM   13  C   UNL     1      -4.620   4.858 -31.503  1.00  0.00     0.337 C 
BRANCH  13  14
HETATM   14  C   UNL     1      -4.380   5.497 -32.872  1.00  0.00     0.243 C 
HETATM   15  N   UNL     1      -3.687   4.708 -33.753  1.00  0.00    -0.359 N 
HETATM   16  H   UNL     1      -3.244   3.848 -33.429  1.00  0.00     0.162 HD
HETATM   17  O   UNL     1      -4.782   6.632 -33.114  1.00  0.00    -0.272 OA
BRANCH  15  18
HETATM   18  C   UNL     1      -3.121   5.207 -34.997  1.00  0.00     0.130 C 
BRANCH  18  19
HETATM   19  C   UNL     1      -1.633   5.534 -34.842  1.00  0.00     0.098 C 
BRANCH  19  20
HETATM   20  C   UNL     1      -1.301   6.103 -33.475  1.00  0.00     0.109 A 
HETATM   21  N   UNL     1      -0.749   5.367 -32.558  1.00  0.00    -0.234 NA
HETATM   22  C   UNL     1      -0.485   5.964 -31.309  1.00  0.00     0.074 A 
HETATM   23  C   UNL     1      -0.835   7.286 -31.016  1.00  0.00     0.061 A 
HETATM   24  C   UNL     1       0.157   5.211 -30.322  1.00  0.00     0.032 A 
HETATM   25  C   UNL     1      -1.498   8.062 -32.076  1.00  0.00     0.259 A 
HETATM   26  C   UNL     1      -0.562   7.853 -29.768  1.00  0.00     0.019 A 
HETATM   27  O   UNL     1      -1.864   9.218 -31.914  1.00  0.00    -0.267 OA
HETATM   28  N   UNL     1      -1.685   7.401 -33.264  1.00  0.00    -0.311 N 
HETATM   29  H   UNL     1      -2.135   7.947 -33.987  1.00  0.00     0.170 HD
HETATM   30  C   UNL     1       0.077   7.088 -28.793  1.00  0.00     0.001 A 
HETATM   31  C   UNL     1       0.436   5.768 -29.071  1.00  0.00     0.002 A 
ENDBRANCH  19  20
ENDBRANCH  18  19
ENDBRANCH  15  18
ENDBRANCH  13  14
ENDBRANCH   6  13
BRANCH   1  32
HETATM   32  C   UNL     1      -7.943   1.598 -32.022  1.00  0.00     0.006 A 
HETATM   33  C   UNL     1      -9.330   1.860 -31.940  1.00  0.00     0.077 A 
HETATM   34  C   UNL     1     -10.156   1.677 -33.059  1.00  0.00     0.037 A 
HETATM   35  C   UNL     1      -9.628   1.205 -34.258  1.00  0.00     0.003 A 
HETATM   36  C   UNL     1      -8.274   0.919 -34.350  1.00  0.00     0.001 A 
HETATM   37  C   UNL     1      -7.441   1.116 -33.246  1.00  0.00     0.012 A 
BRANCH  33  38
HETATM   38  O   UNL     1      -9.801   2.337 -30.743  1.00  0.00    -0.355 OA
HETATM   39  C   UNL     1     -10.170   3.715 -30.717  1.00  0.00     0.210 C 
ENDBRANCH  33  38
ENDBRANCH   1  32
TORSDOF 7
ENDMDL
MODEL 7
REMARK VINA RESULT:      -9.1      2.657      8.332
REMARK  7 active torsions:
REMARK  status: ('A' for Active; 'I' for Inactive)
REMARK    1  A    between atoms: O_2  and  C_3 
REMARK    2  A    between atoms: C_4  and  C_5 
REMARK    3  A    between atoms: N_10  and  C_12 
REMARK    4  A    between atoms: C_12  and  C_13 
REMARK       I    between atoms: C_13  and  N_14 
REMARK    5  A    between atoms: N_14  and  C_15 
REMARK    6  A    between atoms: C_15  and  C_16 
REMARK    7  A    between atoms: C_16  and  C_17 
ROOT
HETATM    1  C   UNL     1      -4.384   2.026 -30.989  1.00  0.00     0.190 C 
HETATM    2  O   UNL     1      -3.247   2.868 -31.262  1.00  0.00    -0.339 OA
HETATM    3  C   UNL     1      -3.436   3.840 -32.195  1.00  0.00     0.077 A 
HETATM    4  C   UNL     1      -4.313   4.906 -31.989  1.00  0.00     0.001 A 
HETATM    5  C   UNL     1      -5.061   5.056 -30.703  1.00  0.00     0.276 C 
HETATM    6  N   UNL     1      -6.042   3.953 -30.412  1.00  0.00    -0.056 N 
HETATM    7  H   UNL     1      -6.585   3.734 -31.259  1.00  0.00     0.280 HD
HETATM    8  C   UNL     1      -5.370   2.657 -29.975  1.00  0.00     0.273 C 
HETATM    9  C   UNL     1      -2.654   3.761 -33.348  1.00  0.00     0.037 A 
HETATM   10  C   UNL     1      -2.781   4.728 -34.340  1.00  0.00     0.003 A 
HETATM   11  C   UNL     1      -3.677   5.780 -34.170  1.00  0.00     0.001 A 
HETATM   12  C   UNL     1      -4.433   5.874 -33.000  1.00  0.00     0.012 A 
ENDROOT
BRANCH   6  13
HETATM   13  C   UNL     1      -7.089   4.416 -29.391  1.00  0.00     0.337 C 
BRANCH  13  14
HETATM   14  C   UNL     1      -6.591   5.555 -28.501  1.00  0.00     0.243 C 
HETATM   15  N   UNL     1      -5.463   5.262 -27.781  1.00  0.00    -0.359 N 
HETATM   16  H   UNL     1      -5.115   4.303 -27.744  1.00  0.00     0.162 HD
HETATM   17  O   UNL     1      -7.192   6.625 -28.456  1.00  0.00    -0.272 OA
BRANCH  15  18
HETATM   18  C   UNL     1      -4.977   6.086 -26.685  1.00  0.00     0.130 C 
BRANCH  18  19
HETATM   19  C   UNL     1      -4.399   7.409 -27.195  1.00  0.00     0.098 C 
BRANCH  19  20
HETATM   20  C   UNL     1      -3.105   7.219 -27.965  1.00  0.00     0.109 A 
HETATM   21  N   UNL     1      -3.068   7.346 -29.258  1.00  0.00    -0.234 NA
HETATM   22  C   UNL     1      -1.832   7.140 -29.902  1.00  0.00     0.074 A 
HETATM   23  C   UNL     1      -0.675   6.765 -29.212  1.00  0.00     0.061 A 
HETATM   24  C   UNL     1      -1.754   7.321 -31.286  1.00  0.00     0.032 A 
HETATM   25  C   UNL     1      -0.782   6.593 -27.754  1.00  0.00     0.259 A 
HETATM   26  C   UNL     1       0.538   6.567 -29.877  1.00  0.00     0.019 A 
HETATM   27  O   UNL     1       0.166   6.246 -27.063  1.00  0.00    -0.267 OA
HETATM   28  N   UNL     1      -2.020   6.844 -27.218  1.00  0.00    -0.311 N 
HETATM   29  H   UNL     1      -2.078   6.729 -26.215  1.00  0.00     0.170 HD
HETATM   30  C   UNL     1       0.600   6.750 -31.258  1.00  0.00     0.001 A 
HETATM   31  C   UNL     1      -0.545   7.127 -31.961  1.00  0.00     0.002 A 
ENDBRANCH  19  20
ENDBRANCH  18  19
ENDBRANCH  15  18
ENDBRANCH  13  14
ENDBRANCH   6  13
BRANCH   1  32
HETATM   32  C   UNL     1      -5.003   1.283 -32.181  1.00  0.00     0.006 A 
HETATM   33  C   UNL     1      -4.724  -0.087 -32.385  1.00  0.00     0.077 A 
HETATM   34  C   UNL     1      -5.302  -0.780 -33.458  1.00  0.00     0.037 A 
HETATM   35  C   UNL     1      -6.136  -0.121 -34.358  1.00  0.00     0.003 A 
HETATM   36  C   UNL     1      -6.402   1.230 -34.189  1.00  0.00     0.001 A 
HETATM   37  C   UNL     1      -5.844   1.923 -33.112  1.00  0.00     0.012 A 
BRANCH  33  38
HETATM   38  O   UNL     1      -3.910  -0.697 -31.464  1.00  0.00    -0.355 OA
HETATM   39  C   UNL     1      -2.926  -1.589 -31.986  1.00  0.00     0.210 C 
ENDBRANCH  33  38
ENDBRANCH   1  32
TORSDOF 7
ENDMDL
MODEL 8
REMARK VINA RESULT:      -9.0      2.105      3.804
REMARK  7 active torsions:
REMARK  status: ('A' for Active; 'I' for Inactive)
REMARK    1  A    between atoms: O_2  and  C_3 
REMARK    2  A    between atoms: C_4  and  C_5 
REMARK    3  A    between atoms: N_10  and  C_12 
REMARK    4  A    between atoms: C_12  and  C_13 
REMARK       I    between atoms: C_13  and  N_14 
REMARK    5  A    between atoms: N_14  and  C_15 
REMARK    6  A    between atoms: C_15  and  C_16 
REMARK    7  A    between atoms: C_16  and  C_17 
ROOT
HETATM    1  C   UNL     1      -3.514   5.035 -30.981  1.00  0.00     0.190 C 
HETATM    2  O   UNL     1      -3.384   6.009 -29.927  1.00  0.00    -0.339 OA
HETATM    3  C   UNL     1      -3.702   7.289 -30.257  1.00  0.00     0.077 A 
HETATM    4  C   UNL     1      -5.004   7.668 -30.594  1.00  0.00     0.001 A 
HETATM    5  C   UNL     1      -6.129   6.683 -30.564  1.00  0.00     0.276 C 
HETATM    6  N   UNL     1      -6.004   5.555 -31.553  1.00  0.00    -0.056 N 
HETATM    7  H   UNL     1      -5.713   5.922 -32.469  1.00  0.00     0.280 HD
HETATM    8  C   UNL     1      -4.965   4.518 -31.145  1.00  0.00     0.273 C 
HETATM    9  C   UNL     1      -2.676   8.230 -30.174  1.00  0.00     0.037 A 
HETATM   10  C   UNL     1      -2.929   9.563 -30.483  1.00  0.00     0.003 A 
HETATM   11  C   UNL     1      -4.212   9.955 -30.855  1.00  0.00     0.001 A 
HETATM   12  C   UNL     1      -5.245   9.017 -30.904  1.00  0.00     0.012 A 
ENDROOT
BRANCH   6  13
HETATM   13  C   UNL     1      -7.371   4.911 -31.812  1.00  0.00     0.337 C 
BRANCH  13  14
HETATM   14  C   UNL     1      -7.479   4.277 -33.199  1.00  0.00     0.243 C 
HETATM   15  N   UNL     1      -7.206   2.934 -33.232  1.00  0.00    -0.359 N 
HETATM   16  H   UNL     1      -6.808   2.473 -32.413  1.00  0.00     0.162 HD
HETATM   17  O   UNL     1      -7.776   4.955 -34.179  1.00  0.00    -0.272 OA
BRANCH  15  18
HETATM   18  C   UNL     1      -6.987   2.194 -34.466  1.00  0.00     0.130 C 
BRANCH  18  19
HETATM   19  C   UNL     1      -7.722   0.851 -34.448  1.00  0.00     0.098 C 
BRANCH  19  20
HETATM   20  C   UNL     1      -6.775  -0.330 -34.344  1.00  0.00     0.109 A 
HETATM   21  N   UNL     1      -7.154  -1.526 -34.681  1.00  0.00    -0.234 NA
HETATM   22  C   UNL     1      -6.222  -2.574 -34.541  1.00  0.00     0.074 A 
HETATM   23  C   UNL     1      -4.940  -2.377 -34.018  1.00  0.00     0.061 A 
HETATM   24  C   UNL     1      -6.586  -3.861 -34.946  1.00  0.00     0.032 A 
HETATM   25  C   UNL     1      -4.577  -1.010 -33.611  1.00  0.00     0.259 A 
HETATM   26  C   UNL     1      -4.035  -3.435 -33.890  1.00  0.00     0.019 A 
HETATM   27  O   UNL     1      -3.489  -0.738 -33.121  1.00  0.00    -0.267 OA
HETATM   28  N   UNL     1      -5.543  -0.057 -33.813  1.00  0.00    -0.311 N 
HETATM   29  H   UNL     1      -5.277   0.879 -33.536  1.00  0.00     0.170 HD
HETATM   30  C   UNL     1      -4.414  -4.713 -34.296  1.00  0.00     0.001 A 
HETATM   31  C   UNL     1      -5.689  -4.925 -34.824  1.00  0.00     0.002 A 
ENDBRANCH  19  20
ENDBRANCH  18  19
ENDBRANCH  15  18
ENDBRANCH  13  14
ENDBRANCH   6  13
BRANCH   1  32
HETATM   32  C   UNL     1      -2.725   5.294 -32.271  1.00  0.00     0.006 A 
HETATM   33  C   UNL     1      -1.315   5.201 -32.270  1.00  0.00     0.077 A 
HETATM   34  C   UNL     1      -0.586   5.416 -33.449  1.00  0.00     0.037 A 
HETATM   35  C   UNL     1      -1.239   5.753 -34.632  1.00  0.00     0.003 A 
HETATM   36  C   UNL     1      -2.621   5.874 -34.646  1.00  0.00     0.001 A 
HETATM   37  C   UNL     1      -3.355   5.645 -33.481  1.00  0.00     0.012 A 
BRANCH  33  38
HETATM   38  O   UNL     1      -0.718   4.850 -31.085  1.00  0.00    -0.355 OA
HETATM   39  C   UNL     1       0.299   5.730 -30.608  1.00  0.00     0.210 C 
ENDBRANCH  33  38
ENDBRANCH   1  32
TORSDOF 7
ENDMDL
MODEL 9
REMARK VINA RESULT:      -9.0     17.693     19.959
REMARK  7 active torsions:
REMARK  status: ('A' for Active; 'I' for Inactive)
REMARK    1  A    between atoms: O_2  and  C_3 
REMARK    2  A    between atoms: C_4  and  C_5 
REMARK    3  A    between atoms: N_10  and  C_12 
REMARK    4  A    between atoms: C_12  and  C_13 
REMARK       I    between atoms: C_13  and  N_14 
REMARK    5  A    between atoms: N_14  and  C_15 
REMARK    6  A    between atoms: C_15  and  C_16 
REMARK    7  A    between atoms: C_16  and  C_17 
ROOT
HETATM    1  C   UNL     1      -7.801 -15.473 -38.227  1.00  0.00     0.190 C 
HETATM    2  O   UNL     1      -6.516 -15.552 -38.874  1.00  0.00    -0.339 OA
HETATM    3  C   UNL     1      -5.975 -14.369 -39.269  1.00  0.00     0.077 A 
HETATM    4  C   UNL     1      -5.575 -13.393 -38.354  1.00  0.00     0.001 A 
HETATM    5  C   UNL     1      -5.682 -13.622 -36.880  1.00  0.00     0.276 C 
HETATM    6  N   UNL     1      -7.088 -13.787 -36.370  1.00  0.00    -0.056 N 
HETATM    7  H   UNL     1      -7.700 -13.073 -36.789  1.00  0.00     0.280 HD
HETATM    8  C   UNL     1      -7.694 -15.141 -36.717  1.00  0.00     0.273 C 
HETATM    9  C   UNL     1      -5.769 -14.201 -40.639  1.00  0.00     0.037 A 
HETATM   10  C   UNL     1      -5.206 -13.022 -41.117  1.00  0.00     0.003 A 
HETATM   11  C   UNL     1      -4.833 -12.022 -40.224  1.00  0.00     0.001 A 
HETATM   12  C   UNL     1      -5.008 -12.207 -38.851  1.00  0.00     0.012 A 
ENDROOT
BRANCH   6  13
HETATM   13  C   UNL     1      -7.151 -13.512 -34.863  1.00  0.00     0.337 C 
BRANCH  13  14
HETATM   14  C   UNL     1      -6.675 -14.696 -34.020  1.00  0.00     0.243 C 
HETATM   15  N   UNL     1      -5.324 -14.915 -34.061  1.00  0.00    -0.359 N 
HETATM   16  H   UNL     1      -4.745 -14.415 -34.737  1.00  0.00     0.162 HD
HETATM   17  O   UNL     1      -7.476 -15.376 -33.384  1.00  0.00    -0.272 OA
BRANCH  15  18
HETATM   18  C   UNL     1      -4.695 -16.128 -33.561  1.00  0.00     0.130 C 
BRANCH  18  19
HETATM   19  C   UNL     1      -3.202 -16.163 -33.898  1.00  0.00     0.098 C 
BRANCH  19  20
HETATM   20  C   UNL     1      -2.927 -15.839 -35.355  1.00  0.00     0.109 A 
HETATM   21  N   UNL     1      -2.383 -14.711 -35.700  1.00  0.00    -0.234 NA
HETATM   22  C   UNL     1      -2.173 -14.477 -37.074  1.00  0.00     0.074 A 
HETATM   23  C   UNL     1      -2.566 -15.386 -38.062  1.00  0.00     0.061 A 
HETATM   24  C   UNL     1      -1.543 -13.294 -37.469  1.00  0.00     0.032 A 
HETATM   25  C   UNL     1      -3.216 -16.629 -37.619  1.00  0.00     0.259 A 
HETATM   26  C   UNL     1      -2.345 -15.128 -39.418  1.00  0.00     0.019 A 
HETATM   27  O   UNL     1      -3.616 -17.478 -38.404  1.00  0.00    -0.267 OA
HETATM   28  N   UNL     1      -3.350 -16.775 -36.261  1.00  0.00    -0.311 N 
HETATM   29  H   UNL     1      -3.791 -17.638 -35.969  1.00  0.00     0.170 HD
HETATM   30  C   UNL     1      -1.717 -13.943 -39.796  1.00  0.00     0.001 A 
HETATM   31  C   UNL     1      -1.315 -13.027 -38.822  1.00  0.00     0.002 A 
ENDBRANCH  19  20
ENDBRANCH  18  19
ENDBRANCH  15  18
ENDBRANCH  13  14
ENDBRANCH   6  13
BRANCH   1  32
HETATM   32  C   UNL     1      -8.932 -14.786 -39.004  1.00  0.00     0.006 A 
HETATM   33  C   UNL     1      -9.600 -15.477 -40.041  1.00  0.00     0.077 A 
HETATM   34  C   UNL     1     -10.649 -14.866 -40.743  1.00  0.00     0.037 A 
HETATM   35  C   UNL     1     -11.029 -13.558 -40.449  1.00  0.00     0.003 A 
HETATM   36  C   UNL     1     -10.368 -12.856 -39.452  1.00  0.00     0.001 A 
HETATM   37  C   UNL     1      -9.334 -13.464 -38.736  1.00  0.00     0.012 A 
BRANCH  33  38
HETATM   38  O   UNL     1      -9.201 -16.767 -40.283  1.00  0.00    -0.355 OA
HETATM   39  C   UNL     1      -8.575 -17.007 -41.542  1.00  0.00     0.210 C 
ENDBRANCH  33  38
ENDBRANCH   1  32
TORSDOF 7
ENDMDL
MODEL 10
REMARK VINA RESULT:      -8.9      2.880      9.243
REMARK  7 active torsions:
REMARK  status: ('A' for Active; 'I' for Inactive)
REMARK    1  A    between atoms: O_2  and  C_3 
REMARK    2  A    between atoms: C_4  and  C_5 
REMARK    3  A    between atoms: N_10  and  C_12 
REMARK    4  A    between atoms: C_12  and  C_13 
REMARK       I    between atoms: C_13  and  N_14 
REMARK    5  A    between atoms: N_14  and  C_15 
REMARK    6  A    between atoms: C_15  and  C_16 
REMARK    7  A    between atoms: C_16  and  C_17 
ROOT
HETATM    1  C   UNL     1      -6.534   3.077 -33.458  1.00  0.00     0.190 C 
HETATM    2  O   UNL     1      -7.380   3.943 -32.677  1.00  0.00    -0.339 OA
HETATM    3  C   UNL     1      -6.803   4.511 -31.585  1.00  0.00     0.077 A 
HETATM    4  C   UNL     1      -5.766   5.441 -31.692  1.00  0.00     0.001 A 
HETATM    5  C   UNL     1      -5.267   5.893 -33.027  1.00  0.00     0.276 C 
HETATM    6  N   UNL     1      -4.632   4.813 -33.860  1.00  0.00    -0.056 N 
HETATM    7  H   UNL     1      -3.998   4.248 -33.279  1.00  0.00     0.280 HD
HETATM    8  C   UNL     1      -5.648   3.852 -34.464  1.00  0.00     0.273 C 
HETATM    9  C   UNL     1      -7.344   4.176 -30.344  1.00  0.00     0.037 A 
HETATM   10  C   UNL     1      -6.816   4.729 -29.182  1.00  0.00     0.003 A 
HETATM   11  C   UNL     1      -5.759   5.631 -29.265  1.00  0.00     0.001 A 
HETATM   12  C   UNL     1      -5.241   5.991 -30.511  1.00  0.00     0.012 A 
ENDROOT
BRANCH   6  13
HETATM   13  C   UNL     1      -3.726   5.424 -34.936  1.00  0.00     0.337 C 
BRANCH  13  14
HETATM   14  C   UNL     1      -2.271   5.559 -34.485  1.00  0.00     0.243 C 
HETATM   15  N   UNL     1      -2.114   6.066 -33.222  1.00  0.00    -0.359 N 
HETATM   16  H   UNL     1      -2.913   6.461 -32.726  1.00  0.00     0.162 HD
HETATM   17  O   UNL     1      -1.349   5.240 -35.231  1.00  0.00    -0.272 OA
BRANCH  15  18
HETATM   18  C   UNL     1      -0.836   6.526 -32.698  1.00  0.00     0.130 C 
BRANCH  18  19
HETATM   19  C   UNL     1      -0.412   5.718 -31.469  1.00  0.00     0.098 C 
BRANCH  19  20
HETATM   20  C   UNL     1      -0.476   6.529 -30.188  1.00  0.00     0.109 A 
HETATM   21  N   UNL     1       0.582   7.114 -29.711  1.00  0.00    -0.234 NA
HETATM   22  C   UNL     1       0.446   7.837 -28.510  1.00  0.00     0.074 A 
HETATM   23  C   UNL     1      -0.759   7.906 -27.803  1.00  0.00     0.061 A 
HETATM   24  C   UNL     1       1.556   8.519 -28.002  1.00  0.00     0.032 A 
HETATM   25  C   UNL     1      -1.915   7.190 -28.365  1.00  0.00     0.259 A 
HETATM   26  C   UNL     1      -0.866   8.631 -26.613  1.00  0.00     0.019 A 
HETATM   27  O   UNL     1      -3.007   7.169 -27.814  1.00  0.00    -0.267 OA
HETATM   28  N   UNL     1      -1.688   6.539 -29.552  1.00  0.00    -0.311 N 
HETATM   29  H   UNL     1      -2.493   6.057 -29.931  1.00  0.00     0.170 HD
HETATM   30  C   UNL     1       0.251   9.303 -26.119  1.00  0.00     0.001 A 
HETATM   31  C   UNL     1       1.460   9.248 -26.814  1.00  0.00     0.002 A 
ENDBRANCH  19  20
ENDBRANCH  18  19
ENDBRANCH  15  18
ENDBRANCH  13  14
ENDBRANCH   6  13
BRANCH   1  32
HETATM   32  C   UNL     1      -5.878   1.898 -32.728  1.00  0.00     0.006 A 
HETATM   33  C   UNL     1      -6.651   0.774 -32.358  1.00  0.00     0.077 A 
HETATM   34  C   UNL     1      -6.057  -0.317 -31.708  1.00  0.00     0.037 A 
HETATM   35  C   UNL     1      -4.701  -0.297 -31.391  1.00  0.00     0.003 A 
HETATM   36  C   UNL     1      -3.931   0.808 -31.723  1.00  0.00     0.001 A 
HETATM   37  C   UNL     1      -4.512   1.891 -32.386  1.00  0.00     0.012 A 
BRANCH  33  38
HETATM   38  O   UNL     1      -7.978   0.794 -32.706  1.00  0.00    -0.355 OA
HETATM   39  C   UNL     1      -8.910   0.562 -31.650  1.00  0.00     0.210 C 
ENDBRANCH  33  38
ENDBRANCH   1  32
TORSDOF 7
ENDMDL
