MODEL 1
REMARK VINA RESULT:      -8.6      0.000      0.000
REMARK  8 active torsions:
REMARK  status: ('A' for Active; 'I' for Inactive)
REMARK    1  A    between atoms: C_4  and  C_5 
REMARK    2  A    between atoms: C_5  and  N_6 
REMARK       I    between atoms: N_6  and  C_7 
REMARK       I    between atoms: C_7  and  N_8 
REMARK       I    between atoms: N_8  and  C_9 
REMARK    3  A    between atoms: C_9  and  C_10 
REMARK    4  A    between atoms: C_10  and  S_11 
REMARK    5  A    between atoms: S_11  and  C_12 
REMARK    6  A    between atoms: N_13  and  C_14 
REMARK    7  A    between atoms: C_21  and  C_22 
REMARK    8  A    between atoms: C_22  and  N_23 
ROOT
HETATM    1  C   UNL     1      -5.656   2.850 -30.206  1.00  0.00     0.196 A 
HETATM    2  N   UNL     1      -4.838   2.569 -31.285  1.00  0.00    -0.274 N 
HETATM    3  C   UNL     1      -4.964   1.195 -31.449  1.00  0.00     0.161 A 
HETATM    4  N   UNL     1      -5.771   0.707 -30.525  1.00  0.00    -0.132 NA
HETATM    5  N   UNL     1      -6.210   1.747 -29.755  1.00  0.00    -0.122 NA
ENDROOT
BRANCH   1   6
HETATM    6  S   UNL     1      -6.079   4.449 -29.691  1.00  0.00    -0.080 SA
BRANCH   6   7
HETATM    7  C   UNL     1      -7.791   4.575 -30.294  1.00  0.00     0.185 C 
BRANCH   7   8
HETATM    8  C   UNL     1      -7.856   4.888 -31.786  1.00  0.00     0.235 C 
HETATM    9  N   UNL     1      -8.501   3.993 -32.615  1.00  0.00    -0.279 N 
HETATM   10  C   UNL     1      -9.076   2.781 -32.303  1.00  0.00     0.323 C 
HETATM   11  H   UNL     1      -8.446   4.237 -33.591  1.00  0.00     0.173 HD
HETATM   12  N   UNL     1      -9.503   2.112 -33.422  1.00  0.00    -0.339 N 
HETATM   13  O   UNL     1      -9.182   2.330 -31.171  1.00  0.00    -0.247 OA
HETATM   14  H   UNL     1      -9.781   2.652 -34.228  1.00  0.00     0.164 HD
HETATM   15  O   UNL     1      -7.371   5.902 -32.299  1.00  0.00    -0.272 OA
BRANCH  12  16
HETATM   16  C   UNL     1     -10.124   0.810 -33.291  1.00  0.00     0.162 C 
BRANCH  16  17
HETATM   17  C   UNL     1     -11.576   0.875 -33.678  1.00  0.00    -0.040 A 
HETATM   18  C   UNL     1     -12.093   2.018 -34.307  1.00  0.00     0.009 A 
HETATM   19  C   UNL     1     -13.445   2.090 -34.645  1.00  0.00     0.001 A 
HETATM   20  C   UNL     1     -14.295   1.024 -34.355  1.00  0.00     0.000 A 
HETATM   21  C   UNL     1     -13.794  -0.115 -33.726  1.00  0.00     0.001 A 
HETATM   22  C   UNL     1     -12.442  -0.189 -33.387  1.00  0.00     0.009 A 
ENDBRANCH  16  17
ENDBRANCH  12  16
ENDBRANCH   7   8
ENDBRANCH   6   7
ENDBRANCH   1   6
BRANCH   2  23
HETATM   23  C   UNL     1      -4.013   3.447 -32.033  1.00  0.00     0.043 A 
HETATM   24  C   UNL     1      -4.516   4.059 -33.190  1.00  0.00     0.032 A 
HETATM   25  C   UNL     1      -3.710   4.935 -33.922  1.00  0.00     0.026 A 
HETATM   26  C   UNL     1      -2.407   5.194 -33.506  1.00  0.00     0.034 A 
HETATM   27 CL   UNL     1      -1.417   6.270 -34.407  1.00  0.00    -0.084 Cl
HETATM   28  C   UNL     1      -1.898   4.578 -32.363  1.00  0.00     0.026 A 
HETATM   29  C   UNL     1      -2.699   3.703 -31.623  1.00  0.00     0.032 A 
ENDBRANCH   2  23
BRANCH   3  30
HETATM   30  C   UNL     1      -4.189   0.346 -32.390  1.00  0.00     0.315 C 
BRANCH  30  31
HETATM   31  N   UNL     1      -5.040  -0.109 -33.573  1.00  0.00    -0.064 N 
HETATM   32  H   UNL     1      -4.393  -0.083 -34.379  1.00  0.00     0.280 HD
HETATM   33  C   UNL     1      -5.488  -1.548 -33.436  1.00  0.00     0.235 C 
HETATM   34  C   UNL     1      -6.213  -1.980 -34.702  1.00  0.00     0.028 C 
HETATM   35  C   UNL     1      -7.382  -1.055 -35.021  1.00  0.00     0.003 C 
HETATM   36  C   UNL     1      -6.923   0.396 -35.104  1.00  0.00     0.028 C 
HETATM   37  C   UNL     1      -6.183   0.830 -33.846  1.00  0.00     0.235 C 
ENDBRANCH  30  31
ENDBRANCH   3  30
TORSDOF 8
ENDMDL
MODEL 2
REMARK VINA RESULT:      -8.6      3.038      8.090
REMARK  8 active torsions:
REMARK  status: ('A' for Active; 'I' for Inactive)
REMARK    1  A    between atoms: C_4  and  C_5 
REMARK    2  A    between atoms: C_5  and  N_6 
REMARK       I    between atoms: N_6  and  C_7 
REMARK       I    between atoms: C_7  and  N_8 
REMARK       I    between atoms: N_8  and  C_9 
REMARK    3  A    between atoms: C_9  and  C_10 
REMARK    4  A    between atoms: C_10  and  S_11 
REMARK    5  A    between atoms: S_11  and  C_12 
REMARK    6  A    between atoms: N_13  and  C_14 
REMARK    7  A    between atoms: C_21  and  C_22 
REMARK    8  A    between atoms: C_22  and  N_23 
ROOT
HETATM    1  C   UNL     1      -6.854   2.514 -31.479  1.00  0.00     0.196 A 
HETATM    2  N   UNL     1      -7.375   1.391 -32.094  1.00  0.00    -0.274 N 
HETATM    3  C   UNL     1      -8.745   1.509 -31.897  1.00  0.00     0.161 A 
HETATM    4  N   UNL     1      -9.004   2.600 -31.202  1.00  0.00    -0.132 NA
HETATM    5  N   UNL     1      -7.819   3.232 -30.950  1.00  0.00    -0.122 NA
ENDROOT
BRANCH   1   6
HETATM    6  S   UNL     1      -5.203   3.022 -31.608  1.00  0.00    -0.080 SA
BRANCH   6   7
HETATM    7  C   UNL     1      -5.051   3.282 -33.403  1.00  0.00     0.185 C 
BRANCH   7   8
HETATM    8  C   UNL     1      -5.490   4.682 -33.822  1.00  0.00     0.235 C 
HETATM    9  N   UNL     1      -4.529   5.665 -33.932  1.00  0.00    -0.279 N 
HETATM   10  C   UNL     1      -3.180   5.593 -33.662  1.00  0.00     0.323 C 
HETATM   11  H   UNL     1      -4.905   6.573 -34.150  1.00  0.00     0.173 HD
HETATM   12  N   UNL     1      -2.570   6.818 -33.762  1.00  0.00    -0.339 N 
HETATM   13  O   UNL     1      -2.585   4.572 -33.346  1.00  0.00    -0.247 OA
HETATM   14  H   UNL     1      -2.960   7.498 -34.398  1.00  0.00     0.164 HD
HETATM   15  O   UNL     1      -6.660   4.989 -34.077  1.00  0.00    -0.272 OA
BRANCH  12  16
HETATM   16  C   UNL     1      -1.151   6.942 -33.499  1.00  0.00     0.162 C 
BRANCH  16  17
HETATM   17  C   UNL     1      -0.908   7.252 -32.047  1.00  0.00    -0.040 A 
HETATM   18  C   UNL     1       0.162   6.654 -31.363  1.00  0.00     0.009 A 
HETATM   19  C   UNL     1       0.375   6.922 -30.010  1.00  0.00     0.001 A 
HETATM   20  C   UNL     1      -0.478   7.785 -29.326  1.00  0.00     0.000 A 
HETATM   21  C   UNL     1      -1.547   8.382 -29.995  1.00  0.00     0.001 A 
HETATM   22  C   UNL     1      -1.763   8.116 -31.348  1.00  0.00     0.009 A 
ENDBRANCH  16  17
ENDBRANCH  12  16
ENDBRANCH   7   8
ENDBRANCH   6   7
ENDBRANCH   1   6
BRANCH   2  23
HETATM   23  C   UNL     1      -6.692   0.326 -32.736  1.00  0.00     0.043 A 
HETATM   24  C   UNL     1      -6.942   0.053 -34.087  1.00  0.00     0.032 A 
HETATM   25  C   UNL     1      -6.260  -0.987 -34.726  1.00  0.00     0.026 A 
HETATM   26  C   UNL     1      -5.341  -1.755 -34.017  1.00  0.00     0.034 A 
HETATM   27 CL   UNL     1      -4.505  -3.033 -34.803  1.00  0.00    -0.084 Cl
HETATM   28  C   UNL     1      -5.098  -1.495 -32.669  1.00  0.00     0.026 A 
HETATM   29  C   UNL     1      -5.772  -0.454 -32.023  1.00  0.00     0.032 A 
ENDBRANCH   2  23
BRANCH   3  30
HETATM   30  C   UNL     1      -9.775   0.495 -32.243  1.00  0.00     0.315 C 
BRANCH  30  31
HETATM   31  N   UNL     1     -10.921   1.106 -33.046  1.00  0.00    -0.064 N 
HETATM   32  H   UNL     1     -11.353   1.787 -32.399  1.00  0.00     0.280 HD
HETATM   33  C   UNL     1     -10.428   1.904 -34.233  1.00  0.00     0.235 C 
HETATM   34  C   UNL     1     -11.604   2.594 -34.908  1.00  0.00     0.028 C 
HETATM   35  C   UNL     1     -12.682   1.595 -35.312  1.00  0.00     0.003 C 
HETATM   36  C   UNL     1     -13.131   0.764 -34.116  1.00  0.00     0.028 C 
HETATM   37  C   UNL     1     -11.957   0.083 -33.425  1.00  0.00     0.235 C 
ENDBRANCH  30  31
ENDBRANCH   3  30
TORSDOF 8
ENDMDL
MODEL 3
REMARK VINA RESULT:      -8.5      2.987      6.070
REMARK  8 active torsions:
REMARK  status: ('A' for Active; 'I' for Inactive)
REMARK    1  A    between atoms: C_4  and  C_5 
REMARK    2  A    between atoms: C_5  and  N_6 
REMARK       I    between atoms: N_6  and  C_7 
REMARK       I    between atoms: C_7  and  N_8 
REMARK       I    between atoms: N_8  and  C_9 
REMARK    3  A    between atoms: C_9  and  C_10 
REMARK    4  A    between atoms: C_10  and  S_11 
REMARK    5  A    between atoms: S_11  and  C_12 
REMARK    6  A    between atoms: N_13  and  C_14 
REMARK    7  A    between atoms: C_21  and  C_22 
REMARK    8  A    between atoms: C_22  and  N_23 
ROOT
HETATM    1  C   UNL     1      -5.329   6.022 -32.784  1.00  0.00     0.196 A 
HETATM    2  N   UNL     1      -6.602   5.738 -32.323  1.00  0.00    -0.274 N 
HETATM    3  C   UNL     1      -7.148   4.943 -33.324  1.00  0.00     0.161 A 
HETATM    4  N   UNL     1      -6.275   4.795 -34.302  1.00  0.00    -0.132 NA
HETATM    5  N   UNL     1      -5.134   5.463 -33.957  1.00  0.00    -0.122 NA
ENDROOT
BRANCH   1   6
HETATM    6  S   UNL     1      -4.096   6.788 -31.839  1.00  0.00    -0.080 SA
BRANCH   6   7
HETATM    7  C   UNL     1      -3.227   5.345 -31.151  1.00  0.00     0.185 C 
BRANCH   7   8
HETATM    8  C   UNL     1      -2.452   4.576 -32.218  1.00  0.00     0.235 C 
HETATM    9  N   UNL     1      -2.864   3.298 -32.533  1.00  0.00    -0.279 N 
HETATM   10  C   UNL     1      -3.880   2.552 -31.976  1.00  0.00     0.323 C 
HETATM   11  H   UNL     1      -2.265   2.834 -33.197  1.00  0.00     0.173 HD
HETATM   12  N   UNL     1      -3.901   1.269 -32.463  1.00  0.00    -0.339 N 
HETATM   13  O   UNL     1      -4.663   2.961 -31.131  1.00  0.00    -0.247 OA
HETATM   14  H   UNL     1      -3.556   1.104 -33.397  1.00  0.00     0.164 HD
HETATM   15  O   UNL     1      -1.477   5.033 -32.824  1.00  0.00    -0.272 OA
BRANCH  12  16
HETATM   16  C   UNL     1      -4.894   0.331 -31.982  1.00  0.00     0.162 C 
BRANCH  16  17
HETATM   17  C   UNL     1      -5.164  -0.729 -33.015  1.00  0.00    -0.040 A 
HETATM   18  C   UNL     1      -6.322  -0.672 -33.804  1.00  0.00     0.009 A 
HETATM   19  C   UNL     1      -6.587  -1.667 -34.746  1.00  0.00     0.001 A 
HETATM   20  C   UNL     1      -5.701  -2.730 -34.906  1.00  0.00     0.000 A 
HETATM   21  C   UNL     1      -4.548  -2.800 -34.124  1.00  0.00     0.001 A 
HETATM   22  C   UNL     1      -4.282  -1.806 -33.181  1.00  0.00     0.009 A 
ENDBRANCH  16  17
ENDBRANCH  12  16
ENDBRANCH   7   8
ENDBRANCH   6   7
ENDBRANCH   1   6
BRANCH   2  23
HETATM   23  C   UNL     1      -7.242   6.182 -31.139  1.00  0.00     0.043 A 
HETATM   24  C   UNL     1      -7.866   7.436 -31.113  1.00  0.00     0.032 A 
HETATM   25  C   UNL     1      -8.511   7.872 -29.952  1.00  0.00     0.026 A 
HETATM   26  C   UNL     1      -8.525   7.062 -28.819  1.00  0.00     0.034 A 
HETATM   27 CL   UNL     1      -9.316   7.598 -27.392  1.00  0.00    -0.084 Cl
HETATM   28  C   UNL     1      -7.894   5.818 -28.836  1.00  0.00     0.026 A 
HETATM   29  C   UNL     1      -7.251   5.374 -29.995  1.00  0.00     0.032 A 
ENDBRANCH   2  23
BRANCH   3  30
HETATM   30  C   UNL     1      -8.553   4.466 -33.400  1.00  0.00     0.315 C 
BRANCH  30  31
HETATM   31  N   UNL     1      -8.642   2.947 -33.273  1.00  0.00    -0.064 N 
HETATM   32  H   UNL     1      -7.687   2.616 -33.489  1.00  0.00     0.280 HD
HETATM   33  C   UNL     1      -8.931   2.508 -31.854  1.00  0.00     0.235 C 
HETATM   34  C   UNL     1      -8.873   0.990 -31.768  1.00  0.00     0.028 C 
HETATM   35  C   UNL     1      -9.823   0.336 -32.764  1.00  0.00     0.003 C 
HETATM   36  C   UNL     1      -9.552   0.828 -34.181  1.00  0.00     0.028 C 
HETATM   37  C   UNL     1      -9.594   2.348 -34.271  1.00  0.00     0.235 C 
ENDBRANCH  30  31
ENDBRANCH   3  30
TORSDOF 8
ENDMDL
MODEL 4
REMARK VINA RESULT:      -8.4      3.475      7.620
REMARK  8 active torsions:
REMARK  status: ('A' for Active; 'I' for Inactive)
REMARK    1  A    between atoms: C_4  and  C_5 
REMARK    2  A    between atoms: C_5  and  N_6 
REMARK       I    between atoms: N_6  and  C_7 
REMARK       I    between atoms: C_7  and  N_8 
REMARK       I    between atoms: N_8  and  C_9 
REMARK    3  A    between atoms: C_9  and  C_10 
REMARK    4  A    between atoms: C_10  and  S_11 
REMARK    5  A    between atoms: S_11  and  C_12 
REMARK    6  A    between atoms: N_13  and  C_14 
REMARK    7  A    between atoms: C_21  and  C_22 
REMARK    8  A    between atoms: C_22  and  N_23 
ROOT
HETATM    1  C   UNL     1      -7.962   3.800 -32.776  1.00  0.00     0.196 A 
HETATM    2  N   UNL     1      -6.894   3.276 -33.481  1.00  0.00    -0.274 N 
HETATM    3  C   UNL     1      -6.143   4.394 -33.824  1.00  0.00     0.161 A 
HETATM    4  N   UNL     1      -6.735   5.485 -33.377  1.00  0.00    -0.132 NA
HETATM    5  N   UNL     1      -7.869   5.109 -32.713  1.00  0.00    -0.122 NA
ENDROOT
BRANCH   1   6
HETATM    6  S   UNL     1      -9.111   2.849 -31.895  1.00  0.00    -0.080 SA
BRANCH   6   7
HETATM    7  C   UNL     1      -8.516   3.063 -30.189  1.00  0.00     0.185 C 
BRANCH   7   8
HETATM    8  C   UNL     1      -7.107   2.510 -29.995  1.00  0.00     0.235 C 
HETATM    9  N   UNL     1      -6.111   3.378 -29.597  1.00  0.00    -0.279 N 
HETATM   10  C   UNL     1      -6.180   4.738 -29.387  1.00  0.00     0.323 C 
HETATM   11  H   UNL     1      -5.200   2.952 -29.553  1.00  0.00     0.173 HD
HETATM   12  N   UNL     1      -4.946   5.279 -29.127  1.00  0.00    -0.339 N 
HETATM   13  O   UNL     1      -7.205   5.402 -29.443  1.00  0.00    -0.247 OA
HETATM   14  H   UNL     1      -4.248   4.697 -28.687  1.00  0.00     0.164 HD
HETATM   15  O   UNL     1      -6.803   1.324 -30.166  1.00  0.00    -0.272 OA
BRANCH  12  16
HETATM   16  C   UNL     1      -4.818   6.703 -28.893  1.00  0.00     0.162 C 
BRANCH  16  17
HETATM   17  C   UNL     1      -3.680   7.271 -29.697  1.00  0.00    -0.040 A 
HETATM   18  C   UNL     1      -3.917   7.839 -30.958  1.00  0.00     0.009 A 
HETATM   19  C   UNL     1      -2.861   8.345 -31.717  1.00  0.00     0.001 A 
HETATM   20  C   UNL     1      -1.557   8.284 -31.226  1.00  0.00     0.000 A 
HETATM   21  C   UNL     1      -1.309   7.718 -29.977  1.00  0.00     0.001 A 
HETATM   22  C   UNL     1      -2.365   7.211 -29.216  1.00  0.00     0.009 A 
ENDBRANCH  16  17
ENDBRANCH  12  16
ENDBRANCH   7   8
ENDBRANCH   6   7
ENDBRANCH   1   6
BRANCH   2  23
HETATM   23  C   UNL     1      -6.630   1.928 -33.832  1.00  0.00     0.043 A 
HETATM   24  C   UNL     1      -5.632   1.215 -33.155  1.00  0.00     0.032 A 
HETATM   25  C   UNL     1      -5.378  -0.119 -33.489  1.00  0.00     0.026 A 
HETATM   26  C   UNL     1      -6.112  -0.734 -34.499  1.00  0.00     0.034 A 
HETATM   27 CL   UNL     1      -5.800  -2.372 -34.910  1.00  0.00    -0.084 Cl
HETATM   28  C   UNL     1      -7.098  -0.025 -35.185  1.00  0.00     0.026 A 
HETATM   29  C   UNL     1      -7.360   1.308 -34.854  1.00  0.00     0.032 A 
ENDBRANCH   2  23
BRANCH   3  30
HETATM   30  C   UNL     1      -4.949   4.414 -34.708  1.00  0.00     0.315 C 
BRANCH  30  31
HETATM   31  N   UNL     1      -3.719   4.958 -33.985  1.00  0.00    -0.064 N 
HETATM   32  H   UNL     1      -4.043   5.842 -33.559  1.00  0.00     0.280 HD
HETATM   33  C   UNL     1      -3.289   4.069 -32.839  1.00  0.00     0.235 C 
HETATM   34  C   UNL     1      -2.149   4.731 -32.079  1.00  0.00     0.028 C 
HETATM   35  C   UNL     1      -0.982   5.064 -33.001  1.00  0.00     0.003 C 
HETATM   36  C   UNL     1      -1.441   5.917 -34.177  1.00  0.00     0.028 C 
HETATM   37  C   UNL     1      -2.593   5.267 -34.933  1.00  0.00     0.235 C 
ENDBRANCH  30  31
ENDBRANCH   3  30
TORSDOF 8
ENDMDL
MODEL 5
REMARK VINA RESULT:      -8.3      3.913      9.034
REMARK  8 active torsions:
REMARK  status: ('A' for Active; 'I' for Inactive)
REMARK    1  A    between atoms: C_4  and  C_5 
REMARK    2  A    between atoms: C_5  and  N_6 
REMARK       I    between atoms: N_6  and  C_7 
REMARK       I    between atoms: C_7  and  N_8 
REMARK       I    between atoms: N_8  and  C_9 
REMARK    3  A    between atoms: C_9  and  C_10 
REMARK    4  A    between atoms: C_10  and  S_11 
REMARK    5  A    between atoms: S_11  and  C_12 
REMARK    6  A    between atoms: N_13  and  C_14 
REMARK    7  A    between atoms: C_21  and  C_22 
REMARK    8  A    between atoms: C_22  and  N_23 
ROOT
HETATM    1  C   UNL     1      -6.092   4.213 -32.924  1.00  0.00     0.196 A 
HETATM    2  N   UNL     1      -6.732   3.015 -32.664  1.00  0.00    -0.274 N 
HETATM    3  C   UNL     1      -7.647   3.337 -31.669  1.00  0.00     0.161 A 
HETATM    4  N   UNL     1      -7.535   4.613 -31.354  1.00  0.00    -0.132 NA
HETATM    5  N   UNL     1      -6.567   5.161 -32.148  1.00  0.00    -0.122 NA
ENDROOT
BRANCH   1   6
HETATM    6  S   UNL     1      -5.005   4.473 -34.248  1.00  0.00    -0.080 SA
BRANCH   6   7
HETATM    7  C   UNL     1      -3.569   5.193 -33.393  1.00  0.00     0.185 C 
BRANCH   7   8
HETATM    8  C   UNL     1      -2.789   4.150 -32.596  1.00  0.00     0.235 C 
HETATM    9  N   UNL     1      -1.798   4.586 -31.741  1.00  0.00    -0.279 N 
HETATM   10  C   UNL     1      -1.346   5.868 -31.520  1.00  0.00     0.323 C 
HETATM   11  H   UNL     1      -1.289   3.838 -31.301  1.00  0.00     0.173 HD
HETATM   12  N   UNL     1      -0.252   5.891 -30.692  1.00  0.00    -0.339 N 
HETATM   13  O   UNL     1      -1.835   6.875 -32.012  1.00  0.00    -0.247 OA
HETATM   14  H   UNL     1      -0.151   5.155 -30.009  1.00  0.00     0.164 HD
HETATM   15  O   UNL     1      -2.997   2.934 -32.666  1.00  0.00    -0.272 OA
BRANCH  12  16
HETATM   16  C   UNL     1       0.373   7.154 -30.356  1.00  0.00     0.162 C 
BRANCH  16  17
HETATM   17  C   UNL     1       0.568   7.268 -28.869  1.00  0.00    -0.040 A 
HETATM   18  C   UNL     1      -0.074   6.375 -27.998  1.00  0.00     0.009 A 
HETATM   19  C   UNL     1       0.086   6.493 -26.617  1.00  0.00     0.001 A 
HETATM   20  C   UNL     1       0.886   7.507 -26.091  1.00  0.00     0.000 A 
HETATM   21  C   UNL     1       1.526   8.403 -26.947  1.00  0.00     0.001 A 
HETATM   22  C   UNL     1       1.366   8.286 -28.329  1.00  0.00     0.009 A 
ENDBRANCH  16  17
ENDBRANCH  12  16
ENDBRANCH   7   8
ENDBRANCH   6   7
ENDBRANCH   1   6
BRANCH   2  23
HETATM   23  C   UNL     1      -6.495   1.736 -33.227  1.00  0.00     0.043 A 
HETATM   24  C   UNL     1      -5.734   0.794 -32.521  1.00  0.00     0.032 A 
HETATM   25  C   UNL     1      -5.510  -0.473 -33.066  1.00  0.00     0.026 A 
HETATM   26  C   UNL     1      -6.035  -0.796 -34.314  1.00  0.00     0.034 A 
HETATM   27 CL   UNL     1      -5.759  -2.353 -34.984  1.00  0.00    -0.084 Cl
HETATM   28  C   UNL     1      -6.783   0.142 -35.026  1.00  0.00     0.026 A 
HETATM   29  C   UNL     1      -7.015   1.410 -34.486  1.00  0.00     0.032 A 
ENDBRANCH   2  23
BRANCH   3  30
HETATM   30  C   UNL     1      -8.509   2.382 -30.924  1.00  0.00     0.315 C 
BRANCH  30  31
HETATM   31  N   UNL     1      -9.733   1.971 -31.740  1.00  0.00    -0.064 N 
HETATM   32  H   UNL     1     -10.493   1.904 -31.043  1.00  0.00     0.280 HD
HETATM   33  C   UNL     1     -10.153   3.042 -32.722  1.00  0.00     0.235 C 
HETATM   34  C   UNL     1     -11.450   2.630 -33.403  1.00  0.00     0.028 C 
HETATM   35  C   UNL     1     -11.320   1.268 -34.076  1.00  0.00     0.003 C 
HETATM   36  C   UNL     1     -10.847   0.212 -33.085  1.00  0.00     0.028 C 
HETATM   37  C   UNL     1      -9.557   0.625 -32.388  1.00  0.00     0.235 C 
ENDBRANCH  30  31
ENDBRANCH   3  30
TORSDOF 8
ENDMDL
MODEL 6
REMARK VINA RESULT:      -8.3      3.196      8.321
REMARK  8 active torsions:
REMARK  status: ('A' for Active; 'I' for Inactive)
REMARK    1  A    between atoms: C_4  and  C_5 
REMARK    2  A    between atoms: C_5  and  N_6 
REMARK       I    between atoms: N_6  and  C_7 
REMARK       I    between atoms: C_7  and  N_8 
REMARK       I    between atoms: N_8  and  C_9 
REMARK    3  A    between atoms: C_9  and  C_10 
REMARK    4  A    between atoms: C_10  and  S_11 
REMARK    5  A    between atoms: S_11  and  C_12 
REMARK    6  A    between atoms: N_13  and  C_14 
REMARK    7  A    between atoms: C_21  and  C_22 
REMARK    8  A    between atoms: C_22  and  N_23 
ROOT
HETATM    1  C   UNL     1      -7.225   2.561 -30.627  1.00  0.00     0.196 A 
HETATM    2  N   UNL     1      -7.616   1.584 -31.524  1.00  0.00    -0.274 N 
HETATM    3  C   UNL     1      -8.997   1.727 -31.590  1.00  0.00     0.161 A 
HETATM    4  N   UNL     1      -9.385   2.693 -30.779  1.00  0.00    -0.132 NA
HETATM    5  N   UNL     1      -8.273   3.220 -30.185  1.00  0.00    -0.122 NA
ENDROOT
BRANCH   1   6
HETATM    6  S   UNL     1      -5.579   3.010 -30.328  1.00  0.00    -0.080 SA
BRANCH   6   7
HETATM    7  C   UNL     1      -5.024   3.461 -32.001  1.00  0.00     0.185 C 
BRANCH   7   8
HETATM    8  C   UNL     1      -3.655   2.874 -32.333  1.00  0.00     0.235 C 
HETATM    9  N   UNL     1      -2.577   3.732 -32.415  1.00  0.00    -0.279 N 
HETATM   10  C   UNL     1      -2.549   5.103 -32.288  1.00  0.00     0.323 C 
HETATM   11  H   UNL     1      -1.724   3.279 -32.699  1.00  0.00     0.173 HD
HETATM   12  N   UNL     1      -1.308   5.619 -32.566  1.00  0.00    -0.339 N 
HETATM   13  O   UNL     1      -3.511   5.796 -31.987  1.00  0.00    -0.247 OA
HETATM   14  H   UNL     1      -0.498   5.042 -32.394  1.00  0.00     0.164 HD
HETATM   15  O   UNL     1      -3.450   1.671 -32.528  1.00  0.00    -0.272 OA
BRANCH  12  16
HETATM   16  C   UNL     1      -1.089   7.049 -32.499  1.00  0.00     0.162 C 
BRANCH  16  17
HETATM   17  C   UNL     1      -0.787   7.472 -31.087  1.00  0.00    -0.040 A 
HETATM   18  C   UNL     1       0.360   6.997 -30.434  1.00  0.00     0.009 A 
HETATM   19  C   UNL     1       0.630   7.369 -29.116  1.00  0.00     0.001 A 
HETATM   20  C   UNL     1      -0.245   8.216 -28.437  1.00  0.00     0.000 A 
HETATM   21  C   UNL     1      -1.390   8.691 -29.075  1.00  0.00     0.001 A 
HETATM   22  C   UNL     1      -1.662   8.320 -30.393  1.00  0.00     0.009 A 
ENDBRANCH  16  17
ENDBRANCH  12  16
ENDBRANCH   7   8
ENDBRANCH   6   7
ENDBRANCH   1   6
BRANCH   2  23
HETATM   23  C   UNL     1      -6.824   0.616 -32.192  1.00  0.00     0.043 A 
HETATM   24  C   UNL     1      -6.740   0.631 -33.591  1.00  0.00     0.032 A 
HETATM   25  C   UNL     1      -5.950  -0.313 -34.252  1.00  0.00     0.026 A 
HETATM   26  C   UNL     1      -5.253  -1.271 -33.522  1.00  0.00     0.034 A 
HETATM   27 CL   UNL     1      -4.282  -2.432 -34.335  1.00  0.00    -0.084 Cl
HETATM   28  C   UNL     1      -5.343  -1.298 -32.130  1.00  0.00     0.026 A 
HETATM   29  C   UNL     1      -6.129  -0.355 -31.461  1.00  0.00     0.032 A 
ENDBRANCH   2  23
BRANCH   3  30
HETATM   30  C   UNL     1      -9.941   0.835 -32.311  1.00  0.00     0.315 C 
BRANCH  30  31
HETATM   31  N   UNL     1     -10.934   1.628 -33.157  1.00  0.00    -0.064 N 
HETATM   32  H   UNL     1     -11.328   2.324 -32.503  1.00  0.00     0.280 HD
HETATM   33  C   UNL     1     -10.251   2.415 -34.254  1.00  0.00     0.235 C 
HETATM   34  C   UNL     1     -11.274   3.285 -34.971  1.00  0.00     0.028 C 
HETATM   35  C   UNL     1     -12.432   2.455 -35.512  1.00  0.00     0.003 C 
HETATM   36  C   UNL     1     -13.076   1.629 -34.405  1.00  0.00     0.028 C 
HETATM   37  C   UNL     1     -12.055   0.768 -33.673  1.00  0.00     0.235 C 
ENDBRANCH  30  31
ENDBRANCH   3  30
TORSDOF 8
ENDMDL
MODEL 7
REMARK VINA RESULT:      -8.3      3.050      6.598
REMARK  8 active torsions:
REMARK  status: ('A' for Active; 'I' for Inactive)
REMARK    1  A    between atoms: C_4  and  C_5 
REMARK    2  A    between atoms: C_5  and  N_6 
REMARK       I    between atoms: N_6  and  C_7 
REMARK       I    between atoms: C_7  and  N_8 
REMARK       I    between atoms: N_8  and  C_9 
REMARK    3  A    between atoms: C_9  and  C_10 
REMARK    4  A    between atoms: C_10  and  S_11 
REMARK    5  A    between atoms: S_11  and  C_12 
REMARK    6  A    between atoms: N_13  and  C_14 
REMARK    7  A    between atoms: C_21  and  C_22 
REMARK    8  A    between atoms: C_22  and  N_23 
ROOT
HETATM    1  C   UNL     1      -5.544   4.733 -30.031  1.00  0.00     0.196 A 
HETATM    2  N   UNL     1      -4.435   5.517 -30.290  1.00  0.00    -0.274 N 
HETATM    3  C   UNL     1      -4.365   6.366 -29.192  1.00  0.00     0.161 A 
HETATM    4  N   UNL     1      -5.365   6.115 -28.368  1.00  0.00    -0.132 NA
HETATM    5  N   UNL     1      -6.096   5.085 -28.892  1.00  0.00    -0.122 NA
ENDROOT
BRANCH   1   6
HETATM    6  S   UNL     1      -5.984   3.331 -30.949  1.00  0.00    -0.080 SA
BRANCH   6   7
HETATM    7  C   UNL     1      -7.261   4.015 -32.050  1.00  0.00     0.185 C 
BRANCH   7   8
HETATM    8  C   UNL     1      -6.875   3.901 -33.522  1.00  0.00     0.235 C 
HETATM    9  N   UNL     1      -7.045   2.684 -34.151  1.00  0.00    -0.279 N 
HETATM   10  C   UNL     1      -7.480   1.489 -33.624  1.00  0.00     0.323 C 
HETATM   11  H   UNL     1      -6.710   2.672 -35.100  1.00  0.00     0.173 HD
HETATM   12  N   UNL     1      -7.389   0.464 -34.532  1.00  0.00    -0.339 N 
HETATM   13  O   UNL     1      -7.881   1.336 -32.478  1.00  0.00    -0.247 OA
HETATM   14  H   UNL     1      -7.468   0.684 -35.514  1.00  0.00     0.164 HD
HETATM   15  O   UNL     1      -6.425   4.837 -34.191  1.00  0.00    -0.272 OA
BRANCH  12  16
HETATM   16  C   UNL     1      -7.789  -0.875 -34.151  1.00  0.00     0.162 C 
BRANCH  16  17
HETATM   17  C   UNL     1      -6.621  -1.820 -34.233  1.00  0.00    -0.040 A 
HETATM   18  C   UNL     1      -6.782  -3.102 -34.779  1.00  0.00     0.009 A 
HETATM   19  C   UNL     1      -5.705  -3.989 -34.833  1.00  0.00     0.001 A 
HETATM   20  C   UNL     1      -4.460  -3.605 -34.340  1.00  0.00     0.000 A 
HETATM   21  C   UNL     1      -4.289  -2.334 -33.791  1.00  0.00     0.001 A 
HETATM   22  C   UNL     1      -5.365  -1.446 -33.736  1.00  0.00     0.009 A 
ENDBRANCH  16  17
ENDBRANCH  12  16
ENDBRANCH   7   8
ENDBRANCH   6   7
ENDBRANCH   1   6
BRANCH   2  23
HETATM   23  C   UNL     1      -3.584   5.515 -31.424  1.00  0.00     0.043 A 
HETATM   24  C   UNL     1      -2.461   4.676 -31.450  1.00  0.00     0.032 A 
HETATM   25  C   UNL     1      -1.628   4.661 -32.572  1.00  0.00     0.026 A 
HETATM   26  C   UNL     1      -1.909   5.485 -33.658  1.00  0.00     0.034 A 
HETATM   27 CL   UNL     1      -0.884   5.466 -35.037  1.00  0.00    -0.084 Cl
HETATM   28  C   UNL     1      -3.018   6.330 -33.632  1.00  0.00     0.026 A 
HETATM   29  C   UNL     1      -3.859   6.348 -32.515  1.00  0.00     0.032 A 
ENDBRANCH   2  23
BRANCH   3  30
HETATM   30  C   UNL     1      -3.431   7.509 -29.021  1.00  0.00     0.315 C 
BRANCH  30  31
HETATM   31  N   UNL     1      -2.001   7.038 -28.765  1.00  0.00    -0.064 N 
HETATM   32  H   UNL     1      -2.019   6.031 -28.997  1.00  0.00     0.280 HD
HETATM   33  C   UNL     1      -1.011   7.674 -29.715  1.00  0.00     0.235 C 
HETATM   34  C   UNL     1       0.367   7.065 -29.499  1.00  0.00     0.028 C 
HETATM   35  C   UNL     1       0.815   7.196 -28.048  1.00  0.00     0.003 C 
HETATM   36  C   UNL     1      -0.218   6.597 -27.101  1.00  0.00     0.028 C 
HETATM   37  C   UNL     1      -1.602   7.191 -27.323  1.00  0.00     0.235 C 
ENDBRANCH  30  31
ENDBRANCH   3  30
TORSDOF 8
ENDMDL
MODEL 8
REMARK VINA RESULT:      -8.2      3.287      7.445
REMARK  8 active torsions:
REMARK  status: ('A' for Active; 'I' for Inactive)
REMARK    1  A    between atoms: C_4  and  C_5 
REMARK    2  A    between atoms: C_5  and  N_6 
REMARK       I    between atoms: N_6  and  C_7 
REMARK       I    between atoms: C_7  and  N_8 
REMARK       I    between atoms: N_8  and  C_9 
REMARK    3  A    between atoms: C_9  and  C_10 
REMARK    4  A    between atoms: C_10  and  S_11 
REMARK    5  A    between atoms: S_11  and  C_12 
REMARK    6  A    between atoms: N_13  and  C_14 
REMARK    7  A    between atoms: C_21  and  C_22 
REMARK    8  A    between atoms: C_22  and  N_23 
ROOT
HETATM    1  C   UNL     1      -7.115   4.027 -31.767  1.00  0.00     0.196 A 
HETATM    2  N   UNL     1      -6.364   3.590 -32.842  1.00  0.00    -0.274 N 
HETATM    3  C   UNL     1      -7.107   2.538 -33.361  1.00  0.00     0.161 A 
HETATM    4  N   UNL     1      -8.193   2.356 -32.634  1.00  0.00    -0.132 NA
HETATM    5  N   UNL     1      -8.200   3.296 -31.642  1.00  0.00    -0.122 NA
ENDROOT
BRANCH   1   6
HETATM    6  S   UNL     1      -6.794   5.477 -30.876  1.00  0.00    -0.080 SA
BRANCH   6   7
HETATM    7  C   UNL     1      -5.706   4.852 -29.558  1.00  0.00     0.185 C 
BRANCH   7   8
HETATM    8  C   UNL     1      -5.580   5.836 -28.398  1.00  0.00     0.235 C 
HETATM    9  N   UNL     1      -4.561   6.766 -28.437  1.00  0.00    -0.279 N 
HETATM   10  C   UNL     1      -3.564   6.922 -29.374  1.00  0.00     0.323 C 
HETATM   11  H   UNL     1      -4.506   7.335 -27.608  1.00  0.00     0.173 HD
HETATM   12  N   UNL     1      -2.653   7.876 -28.999  1.00  0.00    -0.339 N 
HETATM   13  O   UNL     1      -3.474   6.279 -30.410  1.00  0.00    -0.247 OA
HETATM   14  H   UNL     1      -2.964   8.633 -28.408  1.00  0.00     0.164 HD
HETATM   15  O   UNL     1      -6.341   5.855 -27.426  1.00  0.00    -0.272 OA
BRANCH  12  16
HETATM   16  C   UNL     1      -1.522   8.170 -29.855  1.00  0.00     0.162 C 
BRANCH  16  17
HETATM   17  C   UNL     1      -0.597   6.986 -29.935  1.00  0.00    -0.040 A 
HETATM   18  C   UNL     1      -0.075   6.413 -28.765  1.00  0.00     0.009 A 
HETATM   19  C   UNL     1       0.802   5.330 -28.836  1.00  0.00     0.001 A 
HETATM   20  C   UNL     1       1.169   4.810 -30.076  1.00  0.00     0.000 A 
HETATM   21  C   UNL     1       0.660   5.374 -31.246  1.00  0.00     0.001 A 
HETATM   22  C   UNL     1      -0.217   6.458 -31.176  1.00  0.00     0.009 A 
ENDBRANCH  16  17
ENDBRANCH  12  16
ENDBRANCH   7   8
ENDBRANCH   6   7
ENDBRANCH   1   6
BRANCH   2  23
HETATM   23  C   UNL     1      -5.104   4.054 -33.299  1.00  0.00     0.043 A 
HETATM   24  C   UNL     1      -3.933   3.648 -32.644  1.00  0.00     0.032 A 
HETATM   25  C   UNL     1      -2.689   4.092 -33.100  1.00  0.00     0.026 A 
HETATM   26  C   UNL     1      -2.614   4.943 -34.199  1.00  0.00     0.034 A 
HETATM   27 CL   UNL     1      -1.085   5.489 -34.758  1.00  0.00    -0.084 Cl
HETATM   28  C   UNL     1      -3.777   5.360 -34.846  1.00  0.00     0.026 A 
HETATM   29  C   UNL     1      -5.025   4.917 -34.399  1.00  0.00     0.032 A 
ENDBRANCH   2  23
BRANCH   3  30
HETATM   30  C   UNL     1      -6.691   1.620 -34.453  1.00  0.00     0.315 C 
BRANCH  30  31
HETATM   31  N   UNL     1      -6.364   0.225 -33.925  1.00  0.00    -0.064 N 
HETATM   32  H   UNL     1      -7.062   0.063 -33.180  1.00  0.00     0.280 HD
HETATM   33  C   UNL     1      -6.597  -0.850 -34.964  1.00  0.00     0.235 C 
HETATM   34  C   UNL     1      -6.385  -2.220 -34.338  1.00  0.00     0.028 C 
HETATM   35  C   UNL     1      -5.003  -2.339 -33.707  1.00  0.00     0.003 C 
HETATM   36  C   UNL     1      -4.763  -1.219 -32.701  1.00  0.00     0.028 C 
HETATM   37  C   UNL     1      -4.990   0.155 -33.318  1.00  0.00     0.235 C 
ENDBRANCH  30  31
ENDBRANCH   3  30
TORSDOF 8
ENDMDL
MODEL 9
REMARK VINA RESULT:      -8.2      1.469      2.067
REMARK  8 active torsions:
REMARK  status: ('A' for Active; 'I' for Inactive)
REMARK    1  A    between atoms: C_4  and  C_5 
REMARK    2  A    between atoms: C_5  and  N_6 
REMARK       I    between atoms: N_6  and  C_7 
REMARK       I    between atoms: C_7  and  N_8 
REMARK       I    between atoms: N_8  and  C_9 
REMARK    3  A    between atoms: C_9  and  C_10 
REMARK    4  A    between atoms: C_10  and  S_11 
REMARK    5  A    between atoms: S_11  and  C_12 
REMARK    6  A    between atoms: N_13  and  C_14 
REMARK    7  A    between atoms: C_21  and  C_22 
REMARK    8  A    between atoms: C_22  and  N_23 
ROOT
HETATM    1  C   UNL     1      -6.577   2.859 -31.043  1.00  0.00     0.196 A 
HETATM    2  N   UNL     1      -5.973   2.699 -32.277  1.00  0.00    -0.274 N 
HETATM    3  C   UNL     1      -6.628   1.604 -32.828  1.00  0.00     0.161 A 
HETATM    4  N   UNL     1      -7.525   1.145 -31.976  1.00  0.00    -0.132 NA
HETATM    5  N   UNL     1      -7.497   1.938 -30.863  1.00  0.00    -0.122 NA
ENDROOT
BRANCH   1   6
HETATM    6  S   UNL     1      -6.327   4.221 -30.003  1.00  0.00    -0.080 SA
BRANCH   6   7
HETATM    7  C   UNL     1      -7.345   5.486 -30.823  1.00  0.00     0.185 C 
BRANCH   7   8
HETATM    8  C   UNL     1      -8.735   5.599 -30.205  1.00  0.00     0.235 C 
HETATM    9  N   UNL     1      -9.818   5.178 -30.949  1.00  0.00    -0.279 N 
HETATM   10  C   UNL     1      -9.850   4.698 -32.240  1.00  0.00     0.323 C 
HETATM   11  H   UNL     1     -10.704   5.343 -30.498  1.00  0.00     0.173 HD
HETATM   12  N   UNL     1     -11.134   4.507 -32.685  1.00  0.00    -0.339 N 
HETATM   13  O   UNL     1      -8.863   4.483 -32.928  1.00  0.00    -0.247 OA
HETATM   14  H   UNL     1     -11.851   4.290 -32.007  1.00  0.00     0.164 HD
HETATM   15  O   UNL     1      -8.951   6.039 -29.071  1.00  0.00    -0.272 OA
BRANCH  12  16
HETATM   16  C   UNL     1     -11.367   4.019 -34.028  1.00  0.00     0.162 C 
BRANCH  16  17
HETATM   17  C   UNL     1     -12.005   2.657 -33.992  1.00  0.00    -0.040 A 
HETATM   18  C   UNL     1     -13.344   2.490 -34.377  1.00  0.00     0.009 A 
HETATM   19  C   UNL     1     -13.945   1.231 -34.322  1.00  0.00     0.001 A 
HETATM   20  C   UNL     1     -13.217   0.129 -33.879  1.00  0.00     0.000 A 
HETATM   21  C   UNL     1     -11.887   0.284 -33.490  1.00  0.00     0.001 A 
HETATM   22  C   UNL     1     -11.284   1.542 -33.544  1.00  0.00     0.009 A 
ENDBRANCH  16  17
ENDBRANCH  12  16
ENDBRANCH   7   8
ENDBRANCH   6   7
ENDBRANCH   1   6
BRANCH   2  23
HETATM   23  C   UNL     1      -4.901   3.431 -32.849  1.00  0.00     0.043 A 
HETATM   24  C   UNL     1      -5.163   4.400 -33.826  1.00  0.00     0.032 A 
HETATM   25  C   UNL     1      -4.111   5.133 -34.382  1.00  0.00     0.026 A 
HETATM   26  C   UNL     1      -2.803   4.893 -33.970  1.00  0.00     0.034 A 
HETATM   27 CL   UNL     1      -1.510   5.793 -34.653  1.00  0.00    -0.084 Cl
HETATM   28  C   UNL     1      -2.536   3.921 -33.006  1.00  0.00     0.026 A 
HETATM   29  C   UNL     1      -3.583   3.187 -32.443  1.00  0.00     0.032 A 
ENDBRANCH   2  23
BRANCH   3  30
HETATM   30  C   UNL     1      -6.279   0.918 -34.098  1.00  0.00     0.315 C 
BRANCH  30  31
HETATM   31  N   UNL     1      -5.970  -0.561 -33.876  1.00  0.00    -0.064 N 
HETATM   32  H   UNL     1      -6.467  -0.797 -33.000  1.00  0.00     0.280 HD
HETATM   33  C   UNL     1      -6.569  -1.439 -34.952  1.00  0.00     0.235 C 
HETATM   34  C   UNL     1      -6.343  -2.903 -34.601  1.00  0.00     0.028 C 
HETATM   35  C   UNL     1      -4.865  -3.205 -34.387  1.00  0.00     0.003 C 
HETATM   36  C   UNL     1      -4.265  -2.277 -33.337  1.00  0.00     0.028 C 
HETATM   37  C   UNL     1      -4.501  -0.811 -33.674  1.00  0.00     0.235 C 
ENDBRANCH  30  31
ENDBRANCH   3  30
TORSDOF 8
ENDMDL
MODEL 10
REMARK VINA RESULT:      -8.1      3.840      8.521
REMARK  8 active torsions:
REMARK  status: ('A' for Active; 'I' for Inactive)
REMARK    1  A    between atoms: C_4  and  C_5 
REMARK    2  A    between atoms: C_5  and  N_6 
REMARK       I    between atoms: N_6  and  C_7 
REMARK       I    between atoms: C_7  and  N_8 
REMARK       I    between atoms: N_8  and  C_9 
REMARK    3  A    between atoms: C_9  and  C_10 
REMARK    4  A    between atoms: C_10  and  S_11 
REMARK    5  A    between atoms: S_11  and  C_12 
REMARK    6  A    between atoms: N_13  and  C_14 
REMARK    7  A    between atoms: C_21  and  C_22 
REMARK    8  A    between atoms: C_22  and  N_23 
ROOT
HETATM    1  C   UNL     1      -4.852   3.128 -32.897  1.00  0.00     0.196 A 
HETATM    2  N   UNL     1      -5.638   2.017 -32.652  1.00  0.00    -0.274 N 
HETATM    3  C   UNL     1      -4.736   1.069 -32.185  1.00  0.00     0.161 A 
HETATM    4  N   UNL     1      -3.518   1.575 -32.180  1.00  0.00    -0.132 NA
HETATM    5  N   UNL     1      -3.595   2.868 -32.617  1.00  0.00    -0.122 NA
ENDROOT
BRANCH   1   6
HETATM    6  S   UNL     1      -5.473   4.700 -33.275  1.00  0.00    -0.080 SA
BRANCH   6   7
HETATM    7  C   UNL     1      -4.322   5.769 -32.355  1.00  0.00     0.185 C 
BRANCH   7   8
HETATM    8  C   UNL     1      -3.092   6.137 -33.180  1.00  0.00     0.235 C 
HETATM    9  N   UNL     1      -1.846   5.898 -32.638  1.00  0.00    -0.279 N 
HETATM   10  C   UNL     1      -1.521   5.406 -31.394  1.00  0.00     0.323 C 
HETATM   11  H   UNL     1      -1.088   6.226 -33.215  1.00  0.00     0.173 HD
HETATM   12  N   UNL     1      -0.168   5.435 -31.167  1.00  0.00    -0.339 N 
HETATM   13  O   UNL     1      -2.330   5.006 -30.568  1.00  0.00    -0.247 OA
HETATM   14  H   UNL     1       0.454   5.361 -31.959  1.00  0.00     0.164 HD
HETATM   15  O   UNL     1      -3.144   6.631 -34.311  1.00  0.00    -0.272 OA
BRANCH  12  16
HETATM   16  C   UNL     1       0.363   4.969 -29.903  1.00  0.00     0.162 C 
BRANCH  16  17
HETATM   17  C   UNL     1       0.443   6.099 -28.913  1.00  0.00    -0.040 A 
HETATM   18  C   UNL     1       0.844   7.378 -29.328  1.00  0.00     0.009 A 
HETATM   19  C   UNL     1       0.943   8.423 -28.408  1.00  0.00     0.001 A 
HETATM   20  C   UNL     1       0.646   8.200 -27.064  1.00  0.00     0.000 A 
HETATM   21  C   UNL     1       0.251   6.932 -26.640  1.00  0.00     0.001 A 
HETATM   22  C   UNL     1       0.152   5.885 -27.559  1.00  0.00     0.009 A 
ENDBRANCH  16  17
ENDBRANCH  12  16
ENDBRANCH   7   8
ENDBRANCH   6   7
ENDBRANCH   1   6
BRANCH   2  23
HETATM   23  C   UNL     1      -7.028   1.842 -32.868  1.00  0.00     0.043 A 
HETATM   24  C   UNL     1      -7.511   1.631 -34.166  1.00  0.00     0.032 A 
HETATM   25  C   UNL     1      -8.879   1.444 -34.381  1.00  0.00     0.026 A 
HETATM   26  C   UNL     1      -9.762   1.476 -33.305  1.00  0.00     0.034 A 
HETATM   27 CL   UNL     1     -11.444   1.247 -33.569  1.00  0.00    -0.084 Cl
HETATM   28  C   UNL     1      -9.289   1.698 -32.012  1.00  0.00     0.026 A 
HETATM   29  C   UNL     1      -7.921   1.882 -31.789  1.00  0.00     0.032 A 
ENDBRANCH   2  23
BRANCH   3  30
HETATM   30  C   UNL     1      -5.031  -0.359 -31.897  1.00  0.00     0.315 C 
BRANCH  30  31
HETATM   31  N   UNL     1      -5.203  -1.170 -33.178  1.00  0.00    -0.064 N 
HETATM   32  H   UNL     1      -4.970  -0.506 -33.935  1.00  0.00     0.280 HD
HETATM   33  C   UNL     1      -4.200  -2.298 -33.281  1.00  0.00     0.235 C 
HETATM   34  C   UNL     1      -4.335  -2.980 -34.635  1.00  0.00     0.028 C 
HETATM   35  C   UNL     1      -5.758  -3.469 -34.875  1.00  0.00     0.003 C 
HETATM   36  C   UNL     1      -6.761  -2.333 -34.717  1.00  0.00     0.028 C 
HETATM   37  C   UNL     1      -6.620  -1.636 -33.370  1.00  0.00     0.235 C 
ENDBRANCH  30  31
ENDBRANCH   3  30
TORSDOF 8
ENDMDL
