MODEL 1
REMARK VINA RESULT:      -7.5      0.000      0.000
REMARK  7 active torsions:
REMARK  status: ('A' for Active; 'I' for Inactive)
REMARK    1  A    between atoms: C_6  and  N_7 
REMARK       I    between atoms: N_7  and  C_8 
REMARK       I    between atoms: C_8  and  N_9 
REMARK    2  A    between atoms: N_9  and  C_10 
REMARK    3  A    between atoms: C_10  and  C_11 
REMARK    4  A    between atoms: C_11  and  O_12 
REMARK    5  A    between atoms: C_11  and  C_13 
REMARK    6  A    between atoms: C_13  and  N_14 
REMARK       I    between atoms: N_14  and  C_15 
REMARK       I    between atoms: C_15  and  N_16 
REMARK    7  A    between atoms: N_16  and  C_17 
ROOT
HETATM    1  C   UNL     1      -3.208   2.956 -31.944  1.00  0.00     0.153 C 
ENDROOT
BRANCH   1   2
HETATM    2  C   UNL     1      -4.223   3.579 -32.920  1.00  0.00     0.157 C 
BRANCH   2   3
HETATM    3  N   UNL     1      -5.591   3.472 -32.437  1.00  0.00    -0.340 N 
HETATM    4  C   UNL     1      -6.543   2.753 -33.123  1.00  0.00     0.320 C 
HETATM    5  N   UNL     1      -7.681   2.592 -32.366  1.00  0.00    -0.306 N 
HETATM    6  O   UNL     1      -6.340   2.301 -34.241  1.00  0.00    -0.247 OA
HETATM    7  H   UNL     1      -7.514   2.620 -31.372  1.00  0.00     0.171 HD
HETATM    8  H   UNL     1      -5.670   3.508 -31.431  1.00  0.00     0.164 HD
BRANCH   5   9
HETATM    9  C   UNL     1      -8.857   1.922 -32.781  1.00  0.00     0.077 A 
HETATM   10  C   UNL     1      -9.881   2.420 -33.595  1.00  0.00     0.152 A 
HETATM   11  N   UNL     1     -10.976   1.701 -33.959  1.00  0.00    -0.247 NA
HETATM   12 CL   UNL     1     -10.056   4.076 -34.041  1.00  0.00    -0.060 Cl
HETATM   13  C   UNL     1     -11.071   0.441 -33.493  1.00  0.00     0.118 A 
HETATM   14  C   UNL     1     -10.140  -0.133 -32.648  1.00  0.00     0.022 A 
HETATM   15  C   UNL     1      -9.028   0.622 -32.282  1.00  0.00     0.034 A 
ENDBRANCH   5   9
ENDBRANCH   2   3
ENDBRANCH   1   2
BRANCH   1  16
HETATM   16  O   UNL     1      -3.022   3.871 -30.851  1.00  0.00    -0.392 OA
HETATM   17  H   UNL     1      -2.202   3.613 -30.376  1.00  0.00     0.210 HD
ENDBRANCH   1  16
BRANCH   1  18
HETATM   18  C   UNL     1      -3.632   1.553 -31.470  1.00  0.00     0.157 C 
BRANCH  18  19
HETATM   19  N   UNL     1      -3.462   0.536 -32.505  1.00  0.00    -0.340 N 
HETATM   20  C   UNL     1      -4.350  -0.507 -32.635  1.00  0.00     0.320 C 
HETATM   21  N   UNL     1      -4.053  -1.270 -33.738  1.00  0.00    -0.306 N 
HETATM   22  O   UNL     1      -5.292  -0.652 -31.870  1.00  0.00    -0.247 OA
HETATM   23  H   UNL     1      -3.616  -0.735 -34.474  1.00  0.00     0.171 HD
HETATM   24  H   UNL     1      -2.532   0.393 -32.871  1.00  0.00     0.164 HD
BRANCH  21  25
HETATM   25  C   UNL     1      -4.764  -2.428 -34.141  1.00  0.00     0.077 A 
HETATM   26  C   UNL     1      -6.036  -2.483 -34.727  1.00  0.00     0.152 A 
HETATM   27 CL   UNL     1      -7.123  -1.149 -34.821  1.00  0.00    -0.060 Cl
HETATM   28  N   UNL     1      -6.644  -3.636 -35.109  1.00  0.00    -0.247 NA
HETATM   29  C   UNL     1      -5.978  -4.786 -34.894  1.00  0.00     0.118 A 
HETATM   30  C   UNL     1      -4.741  -4.848 -34.279  1.00  0.00     0.022 A 
HETATM   31  C   UNL     1      -4.135  -3.655 -33.892  1.00  0.00     0.034 A 
ENDBRANCH  21  25
ENDBRANCH  18  19
ENDBRANCH   1  18
TORSDOF 7
ENDMDL
MODEL 2
REMARK VINA RESULT:      -7.3      2.600      6.703
REMARK  7 active torsions:
REMARK  status: ('A' for Active; 'I' for Inactive)
REMARK    1  A    between atoms: C_6  and  N_7 
REMARK       I    between atoms: N_7  and  C_8 
REMARK       I    between atoms: C_8  and  N_9 
REMARK    2  A    between atoms: N_9  and  C_10 
REMARK    3  A    between atoms: C_10  and  C_11 
REMARK    4  A    between atoms: C_11  and  O_12 
REMARK    5  A    between atoms: C_11  and  C_13 
REMARK    6  A    between atoms: C_13  and  N_14 
REMARK       I    between atoms: N_14  and  C_15 
REMARK       I    between atoms: C_15  and  N_16 
REMARK    7  A    between atoms: N_16  and  C_17 
ROOT
HETATM    1  C   UNL     1      -9.790   3.207 -33.040  1.00  0.00     0.153 C 
ENDROOT
BRANCH   1   2
HETATM    2  C   UNL     1      -9.870   2.207 -34.209  1.00  0.00     0.157 C 
BRANCH   2   3
HETATM    3  N   UNL     1      -9.380   0.888 -33.842  1.00  0.00    -0.340 N 
HETATM    4  C   UNL     1      -8.174   0.414 -34.305  1.00  0.00     0.320 C 
HETATM    5  N   UNL     1      -7.810  -0.738 -33.644  1.00  0.00    -0.306 N 
HETATM    6  O   UNL     1      -7.527   0.999 -35.162  1.00  0.00    -0.247 OA
HETATM    7  H   UNL     1      -8.198  -0.812 -32.716  1.00  0.00     0.171 HD
HETATM    8  H   UNL     1      -9.682   0.583 -32.928  1.00  0.00     0.164 HD
BRANCH   5   9
HETATM    9  C   UNL     1      -6.638  -1.493 -33.891  1.00  0.00     0.077 A 
HETATM   10  C   UNL     1      -5.323  -1.163 -33.543  1.00  0.00     0.152 A 
HETATM   11  N   UNL     1      -4.249  -1.955 -33.807  1.00  0.00    -0.247 NA
HETATM   12 CL   UNL     1      -4.821   0.385 -32.978  1.00  0.00    -0.060 Cl
HETATM   13  C   UNL     1      -4.481  -3.116 -34.450  1.00  0.00     0.118 A 
HETATM   14  C   UNL     1      -5.733  -3.516 -34.877  1.00  0.00     0.022 A 
HETATM   15  C   UNL     1      -6.819  -2.689 -34.602  1.00  0.00     0.034 A 
ENDBRANCH   5   9
ENDBRANCH   2   3
ENDBRANCH   1   2
BRANCH   1  16
HETATM   16  O   UNL     1      -9.335   2.495 -31.877  1.00  0.00    -0.392 OA
HETATM   17  H   UNL     1     -10.121   2.275 -31.330  1.00  0.00     0.210 HD
ENDBRANCH   1  16
BRANCH   1  18
HETATM   18  C   UNL     1      -8.904   4.424 -33.368  1.00  0.00     0.157 C 
BRANCH  18  19
HETATM   19  N   UNL     1      -7.602   4.042 -33.908  1.00  0.00    -0.340 N 
HETATM   20  C   UNL     1      -6.440   4.609 -33.439  1.00  0.00     0.320 C 
HETATM   21  N   UNL     1      -5.339   4.020 -34.012  1.00  0.00    -0.306 N 
HETATM   22  O   UNL     1      -6.447   5.484 -32.584  1.00  0.00    -0.247 OA
HETATM   23  H   UNL     1      -5.501   3.054 -34.257  1.00  0.00     0.171 HD
HETATM   24  H   UNL     1      -7.578   3.655 -34.840  1.00  0.00     0.164 HD
BRANCH  21  25
HETATM   25  C   UNL     1      -3.995   4.386 -33.757  1.00  0.00     0.077 A 
HETATM   26  C   UNL     1      -3.204   4.009 -32.663  1.00  0.00     0.152 A 
HETATM   27 CL   UNL     1      -3.808   3.238 -31.244  1.00  0.00    -0.060 Cl
HETATM   28  N   UNL     1      -1.909   4.385 -32.499  1.00  0.00    -0.247 NA
HETATM   29  C   UNL     1      -1.371   5.176 -33.446  1.00  0.00     0.118 A 
HETATM   30  C   UNL     1      -2.076   5.645 -34.540  1.00  0.00     0.022 A 
HETATM   31  C   UNL     1      -3.405   5.251 -34.687  1.00  0.00     0.034 A 
ENDBRANCH  21  25
ENDBRANCH  18  19
ENDBRANCH   1  18
TORSDOF 7
ENDMDL
MODEL 3
REMARK VINA RESULT:      -7.3      3.029      7.576
REMARK  7 active torsions:
REMARK  status: ('A' for Active; 'I' for Inactive)
REMARK    1  A    between atoms: C_6  and  N_7 
REMARK       I    between atoms: N_7  and  C_8 
REMARK       I    between atoms: C_8  and  N_9 
REMARK    2  A    between atoms: N_9  and  C_10 
REMARK    3  A    between atoms: C_10  and  C_11 
REMARK    4  A    between atoms: C_11  and  O_12 
REMARK    5  A    between atoms: C_11  and  C_13 
REMARK    6  A    between atoms: C_13  and  N_14 
REMARK       I    between atoms: N_14  and  C_15 
REMARK       I    between atoms: C_15  and  N_16 
REMARK    7  A    between atoms: N_16  and  C_17 
ROOT
HETATM    1  C   UNL     1      -7.163   2.364 -31.168  1.00  0.00     0.153 C 
ENDROOT
BRANCH   1   2
HETATM    2  C   UNL     1      -6.834   2.085 -32.646  1.00  0.00     0.157 C 
BRANCH   2   3
HETATM    3  N   UNL     1      -5.621   1.298 -32.803  1.00  0.00    -0.340 N 
HETATM    4  C   UNL     1      -5.638  -0.075 -32.723  1.00  0.00     0.320 C 
HETATM    5  N   UNL     1      -4.438  -0.609 -33.138  1.00  0.00    -0.306 N 
HETATM    6  O   UNL     1      -6.629  -0.698 -32.367  1.00  0.00    -0.247 OA
HETATM    7  H   UNL     1      -3.940  -0.026 -33.792  1.00  0.00     0.171 HD
HETATM    8  H   UNL     1      -4.939   1.721 -33.416  1.00  0.00     0.164 HD
BRANCH   5   9
HETATM    9  C   UNL     1      -4.116  -1.987 -33.161  1.00  0.00     0.077 A 
HETATM   10  C   UNL     1      -4.491  -2.935 -34.121  1.00  0.00     0.152 A 
HETATM   11  N   UNL     1      -4.126  -4.244 -34.076  1.00  0.00    -0.247 NA
HETATM   12 CL   UNL     1      -5.674  -2.668 -35.346  1.00  0.00    -0.060 Cl
HETATM   13  C   UNL     1      -3.366  -4.637 -33.036  1.00  0.00     0.118 A 
HETATM   14  C   UNL     1      -2.977  -3.795 -32.011  1.00  0.00     0.022 A 
HETATM   15  C   UNL     1      -3.366  -2.459 -32.073  1.00  0.00     0.034 A 
ENDBRANCH   5   9
ENDBRANCH   2   3
ENDBRANCH   1   2
BRANCH   1  16
HETATM   16  O   UNL     1      -8.163   1.419 -30.750  1.00  0.00    -0.392 OA
HETATM   17  H   UNL     1      -8.090   1.313 -29.776  1.00  0.00     0.210 HD
ENDBRANCH   1  16
BRANCH   1  18
HETATM   18  C   UNL     1      -5.912   2.330 -30.270  1.00  0.00     0.157 C 
BRANCH  18  19
HETATM   19  N   UNL     1      -5.262   3.634 -30.165  1.00  0.00    -0.340 N 
HETATM   20  C   UNL     1      -4.133   3.931 -30.893  1.00  0.00     0.320 C 
HETATM   21  N   UNL     1      -3.766   5.243 -30.718  1.00  0.00    -0.306 N 
HETATM   22  O   UNL     1      -3.602   3.108 -31.625  1.00  0.00    -0.247 OA
HETATM   23  H   UNL     1      -4.554   5.844 -30.527  1.00  0.00     0.171 HD
HETATM   24  H   UNL     1      -5.413   4.165 -29.319  1.00  0.00     0.164 HD
BRANCH  21  25
HETATM   25  C   UNL     1      -2.637   5.858 -31.314  1.00  0.00     0.077 A 
HETATM   26  C   UNL     1      -2.487   6.242 -32.653  1.00  0.00     0.152 A 
HETATM   27 CL   UNL     1      -3.557   5.784 -33.924  1.00  0.00    -0.060 Cl
HETATM   28  N   UNL     1      -1.377   6.851 -33.146  1.00  0.00    -0.247 NA
HETATM   29  C   UNL     1      -0.365   7.080 -32.288  1.00  0.00     0.118 A 
HETATM   30  C   UNL     1      -0.390   6.698 -30.959  1.00  0.00     0.022 A 
HETATM   31  C   UNL     1      -1.537   6.071 -30.473  1.00  0.00     0.034 A 
ENDBRANCH  21  25
ENDBRANCH  18  19
ENDBRANCH   1  18
TORSDOF 7
ENDMDL
MODEL 4
REMARK VINA RESULT:      -7.2      1.579      6.464
REMARK  7 active torsions:
REMARK  status: ('A' for Active; 'I' for Inactive)
REMARK    1  A    between atoms: C_6  and  N_7 
REMARK       I    between atoms: N_7  and  C_8 
REMARK       I    between atoms: C_8  and  N_9 
REMARK    2  A    between atoms: N_9  and  C_10 
REMARK    3  A    between atoms: C_10  and  C_11 
REMARK    4  A    between atoms: C_11  and  O_12 
REMARK    5  A    between atoms: C_11  and  C_13 
REMARK    6  A    between atoms: C_13  and  N_14 
REMARK       I    between atoms: N_14  and  C_15 
REMARK       I    between atoms: C_15  and  N_16 
REMARK    7  A    between atoms: N_16  and  C_17 
ROOT
HETATM    1  C   UNL     1      -5.766   2.799 -31.891  1.00  0.00     0.153 C 
ENDROOT
BRANCH   1   2
HETATM    2  C   UNL     1      -4.557   1.959 -31.442  1.00  0.00     0.157 C 
BRANCH   2   3
HETATM    3  N   UNL     1      -4.151   0.992 -32.450  1.00  0.00    -0.340 N 
HETATM    4  C   UNL     1      -4.584  -0.313 -32.412  1.00  0.00     0.320 C 
HETATM    5  N   UNL     1      -4.274  -0.971 -33.581  1.00  0.00    -0.306 N 
HETATM    6  O   UNL     1      -5.199  -0.771 -31.458  1.00  0.00    -0.247 OA
HETATM    7  H   UNL     1      -4.194  -0.362 -34.379  1.00  0.00     0.171 HD
HETATM    8  H   UNL     1      -3.979   1.400 -33.357  1.00  0.00     0.164 HD
BRANCH   5   9
HETATM    9  C   UNL     1      -4.558  -2.329 -33.861  1.00  0.00     0.077 A 
HETATM   10  C   UNL     1      -5.678  -2.847 -34.523  1.00  0.00     0.152 A 
HETATM   11  N   UNL     1      -5.869  -4.171 -34.765  1.00  0.00    -0.247 NA
HETATM   12 CL   UNL     1      -7.096  -1.942 -34.897  1.00  0.00    -0.060 Cl
HETATM   13  C   UNL     1      -4.922  -5.022 -34.326  1.00  0.00     0.118 A 
HETATM   14  C   UNL     1      -3.801  -4.622 -33.623  1.00  0.00     0.022 A 
HETATM   15  C   UNL     1      -3.626  -3.262 -33.381  1.00  0.00     0.034 A 
ENDBRANCH   5   9
ENDBRANCH   2   3
ENDBRANCH   1   2
BRANCH   1  16
HETATM   16  O   UNL     1      -5.768   2.844 -33.328  1.00  0.00    -0.392 OA
HETATM   17  H   UNL     1      -6.211   2.030 -33.656  1.00  0.00     0.210 HD
ENDBRANCH   1  16
BRANCH   1  18
HETATM   18  C   UNL     1      -7.095   2.270 -31.318  1.00  0.00     0.157 C 
BRANCH  18  19
HETATM   19  N   UNL     1      -7.907   1.588 -32.323  1.00  0.00    -0.340 N 
HETATM   20  C   UNL     1      -9.246   1.869 -32.471  1.00  0.00     0.320 C 
HETATM   21  N   UNL     1      -9.774   1.192 -33.543  1.00  0.00    -0.306 N 
HETATM   22  O   UNL     1      -9.822   2.667 -31.745  1.00  0.00    -0.247 OA
HETATM   23  H   UNL     1      -9.094   1.025 -34.270  1.00  0.00     0.171 HD
HETATM   24  H   UNL     1      -7.592   0.684 -32.643  1.00  0.00     0.164 HD
BRANCH  21  25
HETATM   25  C   UNL     1     -11.129   1.250 -33.953  1.00  0.00     0.077 A 
HETATM   26  C   UNL     1     -11.720   2.193 -34.804  1.00  0.00     0.152 A 
HETATM   27 CL   UNL     1     -10.965   3.658 -35.309  1.00  0.00    -0.060 Cl
HETATM   28  N   UNL     1     -13.028   2.168 -35.171  1.00  0.00    -0.247 NA
HETATM   29  C   UNL     1     -13.792   1.179 -34.668  1.00  0.00     0.118 A 
HETATM   30  C   UNL     1     -13.321   0.227 -33.783  1.00  0.00     0.022 A 
HETATM   31  C   UNL     1     -11.977   0.272 -33.416  1.00  0.00     0.034 A 
ENDBRANCH  21  25
ENDBRANCH  18  19
ENDBRANCH   1  18
TORSDOF 7
ENDMDL
MODEL 5
REMARK VINA RESULT:      -7.2      1.227      5.991
REMARK  7 active torsions:
REMARK  status: ('A' for Active; 'I' for Inactive)
REMARK    1  A    between atoms: C_6  and  N_7 
REMARK       I    between atoms: N_7  and  C_8 
REMARK       I    between atoms: C_8  and  N_9 
REMARK    2  A    between atoms: N_9  and  C_10 
REMARK    3  A    between atoms: C_10  and  C_11 
REMARK    4  A    between atoms: C_11  and  O_12 
REMARK    5  A    between atoms: C_11  and  C_13 
REMARK    6  A    between atoms: C_13  and  N_14 
REMARK       I    between atoms: N_14  and  C_15 
REMARK       I    between atoms: C_15  and  N_16 
REMARK    7  A    between atoms: N_16  and  C_17 
ROOT
HETATM    1  C   UNL     1      -4.038   3.108 -31.199  1.00  0.00     0.153 C 
ENDROOT
BRANCH   1   2
HETATM    2  C   UNL     1      -4.525   1.685 -30.871  1.00  0.00     0.157 C 
BRANCH   2   3
HETATM    3  N   UNL     1      -3.970   0.689 -31.775  1.00  0.00    -0.340 N 
HETATM    4  C   UNL     1      -4.661  -0.456 -32.096  1.00  0.00     0.320 C 
HETATM    5  N   UNL     1      -4.056  -1.122 -33.139  1.00  0.00    -0.306 N 
HETATM    6  O   UNL     1      -5.697  -0.776 -31.530  1.00  0.00    -0.247 OA
HETATM    7  H   UNL     1      -3.522  -0.521 -33.748  1.00  0.00     0.171 HD
HETATM    8  H   UNL     1      -3.356   1.076 -32.477  1.00  0.00     0.164 HD
BRANCH   5   9
HETATM    9  C   UNL     1      -4.497  -2.344 -33.701  1.00  0.00     0.077 A 
HETATM   10  C   UNL     1      -5.610  -2.550 -34.525  1.00  0.00     0.152 A 
HETATM   11  N   UNL     1      -5.959  -3.761 -35.037  1.00  0.00    -0.247 NA
HETATM   12 CL   UNL     1      -6.849  -1.385 -34.804  1.00  0.00    -0.060 Cl
HETATM   13  C   UNL     1      -5.183  -4.814 -34.715  1.00  0.00     0.118 A 
HETATM   14  C   UNL     1      -4.089  -4.729 -33.874  1.00  0.00     0.022 A 
HETATM   15  C   UNL     1      -3.752  -3.481 -33.356  1.00  0.00     0.034 A 
ENDBRANCH   5   9
ENDBRANCH   2   3
ENDBRANCH   1   2
BRANCH   1  16
HETATM   16  O   UNL     1      -2.601   3.092 -31.225  1.00  0.00    -0.392 OA
HETATM   17  H   UNL     1      -2.280   3.864 -30.708  1.00  0.00     0.210 HD
ENDBRANCH   1  16
BRANCH   1  18
HETATM   18  C   UNL     1      -4.643   3.650 -32.508  1.00  0.00     0.157 C 
BRANCH  18  19
HETATM   19  N   UNL     1      -6.085   3.861 -32.415  1.00  0.00    -0.340 N 
HETATM   20  C   UNL     1      -6.969   3.077 -33.119  1.00  0.00     0.320 C 
HETATM   21  N   UNL     1      -8.267   3.385 -32.792  1.00  0.00    -0.306 N 
HETATM   22  O   UNL     1      -6.589   2.201 -33.883  1.00  0.00    -0.247 OA
HETATM   23  H   UNL     1      -8.359   3.721 -31.844  1.00  0.00     0.171 HD
HETATM   24  H   UNL     1      -6.406   4.778 -32.139  1.00  0.00     0.164 HD
BRANCH  21  25
HETATM   25  C   UNL     1      -9.414   2.772 -33.354  1.00  0.00     0.077 A 
HETATM   26  C   UNL     1      -9.954   1.520 -33.030  1.00  0.00     0.152 A 
HETATM   27 CL   UNL     1      -9.157   0.336 -32.063  1.00  0.00    -0.060 Cl
HETATM   28  N   UNL     1     -11.076   1.008 -33.600  1.00  0.00    -0.247 NA
HETATM   29  C   UNL     1     -11.688   1.756 -34.538  1.00  0.00     0.118 A 
HETATM   30  C   UNL     1     -11.213   2.981 -34.967  1.00  0.00     0.022 A 
HETATM   31  C   UNL     1     -10.058   3.487 -34.372  1.00  0.00     0.034 A 
ENDBRANCH  21  25
ENDBRANCH  18  19
ENDBRANCH   1  18
TORSDOF 7
ENDMDL
MODEL 6
REMARK VINA RESULT:      -7.1      3.299      7.009
REMARK  7 active torsions:
REMARK  status: ('A' for Active; 'I' for Inactive)
REMARK    1  A    between atoms: C_6  and  N_7 
REMARK       I    between atoms: N_7  and  C_8 
REMARK       I    between atoms: C_8  and  N_9 
REMARK    2  A    between atoms: N_9  and  C_10 
REMARK    3  A    between atoms: C_10  and  C_11 
REMARK    4  A    between atoms: C_11  and  O_12 
REMARK    5  A    between atoms: C_11  and  C_13 
REMARK    6  A    between atoms: C_13  and  N_14 
REMARK       I    between atoms: N_14  and  C_15 
REMARK       I    between atoms: C_15  and  N_16 
REMARK    7  A    between atoms: N_16  and  C_17 
ROOT
HETATM    1  C   UNL     1      -7.528   3.289 -29.707  1.00  0.00     0.153 C 
ENDROOT
BRANCH   1   2
HETATM    2  C   UNL     1      -8.096   2.987 -31.106  1.00  0.00     0.157 C 
BRANCH   2   3
HETATM    3  N   UNL     1      -7.086   2.459 -32.010  1.00  0.00    -0.340 N 
HETATM    4  C   UNL     1      -6.916   1.105 -32.188  1.00  0.00     0.320 C 
HETATM    5  N   UNL     1      -6.082   0.848 -33.253  1.00  0.00    -0.306 N 
HETATM    6  O   UNL     1      -7.487   0.277 -31.492  1.00  0.00    -0.247 OA
HETATM    7  H   UNL     1      -6.080   1.576 -33.950  1.00  0.00     0.171 HD
HETATM    8  H   UNL     1      -6.891   3.061 -32.796  1.00  0.00     0.164 HD
BRANCH   5   9
HETATM    9  C   UNL     1      -5.683  -0.437 -33.694  1.00  0.00     0.077 A 
HETATM   10  C   UNL     1      -4.479  -1.096 -33.419  1.00  0.00     0.152 A 
HETATM   11  N   UNL     1      -4.178  -2.343 -33.873  1.00  0.00    -0.247 NA
HETATM   12 CL   UNL     1      -3.099  -0.353 -32.703  1.00  0.00    -0.060 Cl
HETATM   13  C   UNL     1      -5.099  -2.960 -34.638  1.00  0.00     0.118 A 
HETATM   14  C   UNL     1      -6.299  -2.382 -35.006  1.00  0.00     0.022 A 
HETATM   15  C   UNL     1      -6.586  -1.104 -34.535  1.00  0.00     0.034 A 
ENDBRANCH   5   9
ENDBRANCH   2   3
ENDBRANCH   1   2
BRANCH   1  16
HETATM   16  O   UNL     1      -6.613   2.236 -29.361  1.00  0.00    -0.392 OA
HETATM   17  H   UNL     1      -6.951   1.796 -28.550  1.00  0.00     0.210 HD
ENDBRANCH   1  16
BRANCH   1  18
HETATM   18  C   UNL     1      -6.877   4.683 -29.625  1.00  0.00     0.157 C 
BRANCH  18  19
HETATM   19  N   UNL     1      -5.458   4.660 -29.971  1.00  0.00    -0.340 N 
HETATM   20  C   UNL     1      -5.011   5.127 -31.185  1.00  0.00     0.320 C 
HETATM   21  N   UNL     1      -3.638   5.109 -31.243  1.00  0.00    -0.306 N 
HETATM   22  O   UNL     1      -5.780   5.542 -32.041  1.00  0.00    -0.247 OA
HETATM   23  H   UNL     1      -3.210   5.234 -30.337  1.00  0.00     0.171 HD
HETATM   24  H   UNL     1      -4.872   3.990 -29.495  1.00  0.00     0.164 HD
BRANCH  21  25
HETATM   25  C   UNL     1      -2.867   5.509 -32.362  1.00  0.00     0.077 A 
HETATM   26  C   UNL     1      -2.398   6.797 -32.656  1.00  0.00     0.152 A 
HETATM   27 CL   UNL     1      -2.911   8.228 -31.843  1.00  0.00    -0.060 Cl
HETATM   28  N   UNL     1      -1.640   7.098 -33.742  1.00  0.00    -0.247 NA
HETATM   29  C   UNL     1      -1.341   6.091 -34.584  1.00  0.00     0.118 A 
HETATM   30  C   UNL     1      -1.792   4.795 -34.415  1.00  0.00     0.022 A 
HETATM   31  C   UNL     1      -2.571   4.507 -33.296  1.00  0.00     0.034 A 
ENDBRANCH  21  25
ENDBRANCH  18  19
ENDBRANCH   1  18
TORSDOF 7
ENDMDL
MODEL 7
REMARK VINA RESULT:      -7.1      2.737      5.738
REMARK  7 active torsions:
REMARK  status: ('A' for Active; 'I' for Inactive)
REMARK    1  A    between atoms: C_6  and  N_7 
REMARK       I    between atoms: N_7  and  C_8 
REMARK       I    between atoms: C_8  and  N_9 
REMARK    2  A    between atoms: N_9  and  C_10 
REMARK    3  A    between atoms: C_10  and  C_11 
REMARK    4  A    between atoms: C_11  and  O_12 
REMARK    5  A    between atoms: C_11  and  C_13 
REMARK    6  A    between atoms: C_13  and  N_14 
REMARK       I    between atoms: N_14  and  C_15 
REMARK       I    between atoms: C_15  and  N_16 
REMARK    7  A    between atoms: N_16  and  C_17 
ROOT
HETATM    1  C   UNL     1      -9.385   3.634 -33.273  1.00  0.00     0.153 C 
ENDROOT
BRANCH   1   2
HETATM    2  C   UNL     1      -8.575   4.870 -33.706  1.00  0.00     0.157 C 
BRANCH   2   3
HETATM    3  N   UNL     1      -7.243   4.522 -34.174  1.00  0.00    -0.340 N 
HETATM    4  C   UNL     1      -6.115   5.060 -33.600  1.00  0.00     0.320 C 
HETATM    5  N   UNL     1      -4.981   4.412 -34.037  1.00  0.00    -0.306 N 
HETATM    6  O   UNL     1      -6.166   5.967 -32.780  1.00  0.00    -0.247 OA
HETATM    7  H   UNL     1      -5.144   3.459 -34.323  1.00  0.00     0.171 HD
HETATM    8  H   UNL     1      -7.176   3.586 -34.547  1.00  0.00     0.164 HD
BRANCH   5   9
HETATM    9  C   UNL     1      -3.655   4.729 -33.658  1.00  0.00     0.077 A 
HETATM   10  C   UNL     1      -2.914   4.180 -32.604  1.00  0.00     0.152 A 
HETATM   11  N   UNL     1      -1.633   4.532 -32.315  1.00  0.00    -0.247 NA
HETATM   12 CL   UNL     1      -3.574   3.186 -31.361  1.00  0.00    -0.060 Cl
HETATM   13  C   UNL     1      -1.061   5.473 -33.091  1.00  0.00     0.118 A 
HETATM   14  C   UNL     1      -1.717   6.111 -34.127  1.00  0.00     0.022 A 
HETATM   15  C   UNL     1      -3.030   5.739 -34.404  1.00  0.00     0.034 A 
ENDBRANCH   5   9
ENDBRANCH   2   3
ENDBRANCH   1   2
BRANCH   1  16
HETATM   16  O   UNL     1      -9.459   2.736 -34.393  1.00  0.00    -0.392 OA
HETATM   17  H   UNL     1     -10.184   2.096 -34.221  1.00  0.00     0.210 HD
ENDBRANCH   1  16
BRANCH   1  18
HETATM   18  C   UNL     1      -8.802   2.960 -32.016  1.00  0.00     0.157 C 
BRANCH  18  19
HETATM   19  N   UNL     1      -8.586   1.527 -32.198  1.00  0.00    -0.340 N 
HETATM   20  C   UNL     1      -7.422   1.043 -32.749  1.00  0.00     0.320 C 
HETATM   21  N   UNL     1      -7.398  -0.330 -32.719  1.00  0.00    -0.306 N 
HETATM   22  O   UNL     1      -6.538   1.788 -33.148  1.00  0.00    -0.247 OA
HETATM   23  H   UNL     1      -7.918  -0.710 -31.942  1.00  0.00     0.171 HD
HETATM   24  H   UNL     1      -9.403   0.936 -32.263  1.00  0.00     0.164 HD
BRANCH  21  25
HETATM   25  C   UNL     1      -6.348  -1.135 -33.226  1.00  0.00     0.077 A 
HETATM   26  C   UNL     1      -5.074  -1.320 -32.671  1.00  0.00     0.152 A 
HETATM   27 CL   UNL     1      -4.424  -0.370 -31.388  1.00  0.00    -0.060 Cl
HETATM   28  N   UNL     1      -4.125  -2.131 -33.206  1.00  0.00    -0.247 NA
HETATM   29  C   UNL     1      -4.437  -2.780 -34.344  1.00  0.00     0.118 A 
HETATM   30  C   UNL     1      -5.645  -2.632 -35.000  1.00  0.00     0.022 A 
HETATM   31  C   UNL     1      -6.605  -1.792 -34.437  1.00  0.00     0.034 A 
ENDBRANCH  21  25
ENDBRANCH  18  19
ENDBRANCH   1  18
TORSDOF 7
ENDMDL
MODEL 8
REMARK VINA RESULT:      -7.1      2.416      6.706
REMARK  7 active torsions:
REMARK  status: ('A' for Active; 'I' for Inactive)
REMARK    1  A    between atoms: C_6  and  N_7 
REMARK       I    between atoms: N_7  and  C_8 
REMARK       I    between atoms: C_8  and  N_9 
REMARK    2  A    between atoms: N_9  and  C_10 
REMARK    3  A    between atoms: C_10  and  C_11 
REMARK    4  A    between atoms: C_11  and  O_12 
REMARK    5  A    between atoms: C_11  and  C_13 
REMARK    6  A    between atoms: C_13  and  N_14 
REMARK       I    between atoms: N_14  and  C_15 
REMARK       I    between atoms: C_15  and  N_16 
REMARK    7  A    between atoms: N_16  and  C_17 
ROOT
HETATM    1  C   UNL     1     -10.570   2.540 -33.175  1.00  0.00     0.153 C 
ENDROOT
BRANCH   1   2
HETATM    2  C   UNL     1     -10.574   1.200 -33.934  1.00  0.00     0.157 C 
BRANCH   2   3
HETATM    3  N   UNL     1      -9.275   0.887 -34.508  1.00  0.00    -0.340 N 
HETATM    4  C   UNL     1      -8.303   0.239 -33.780  1.00  0.00     0.320 C 
HETATM    5  N   UNL     1      -7.264  -0.160 -34.590  1.00  0.00    -0.306 N 
HETATM    6  O   UNL     1      -8.415   0.031 -32.580  1.00  0.00    -0.247 OA
HETATM    7  H   UNL     1      -7.533  -0.313 -35.550  1.00  0.00     0.171 HD
HETATM    8  H   UNL     1      -9.301   0.721 -35.503  1.00  0.00     0.164 HD
BRANCH   5   9
HETATM    9  C   UNL     1      -6.096  -0.834 -34.158  1.00  0.00     0.077 A 
HETATM   10  C   UNL     1      -5.784  -2.189 -34.318  1.00  0.00     0.152 A 
HETATM   11  N   UNL     1      -4.628  -2.757 -33.883  1.00  0.00    -0.247 NA
HETATM   12 CL   UNL     1      -6.901  -3.393 -34.842  1.00  0.00    -0.060 Cl
HETATM   13  C   UNL     1      -3.746  -1.957 -33.254  1.00  0.00     0.118 A 
HETATM   14  C   UNL     1      -3.974  -0.617 -33.003  1.00  0.00     0.022 A 
HETATM   15  C   UNL     1      -5.166  -0.055 -33.453  1.00  0.00     0.034 A 
ENDBRANCH   5   9
ENDBRANCH   2   3
ENDBRANCH   1   2
BRANCH   1  16
HETATM   16  O   UNL     1     -10.208   2.278 -31.809  1.00  0.00    -0.392 OA
HETATM   17  H   UNL     1     -10.865   2.722 -31.230  1.00  0.00     0.210 HD
ENDBRANCH   1  16
BRANCH   1  18
HETATM   18  C   UNL     1      -9.653   3.587 -33.836  1.00  0.00     0.157 C 
BRANCH  18  19
HETATM   19  N   UNL     1      -8.582   4.034 -32.949  1.00  0.00    -0.340 N 
HETATM   20  C   UNL     1      -7.266   3.727 -33.207  1.00  0.00     0.320 C 
HETATM   21  N   UNL     1      -6.432   4.341 -32.304  1.00  0.00    -0.306 N 
HETATM   22  O   UNL     1      -6.939   3.036 -34.162  1.00  0.00    -0.247 OA
HETATM   23  H   UNL     1      -6.808   5.213 -31.961  1.00  0.00     0.171 HD
HETATM   24  H   UNL     1      -8.824   4.239 -31.990  1.00  0.00     0.164 HD
BRANCH  21  25
HETATM   25  C   UNL     1      -5.021   4.214 -32.284  1.00  0.00     0.077 A 
HETATM   26  C   UNL     1      -4.266   3.231 -31.631  1.00  0.00     0.152 A 
HETATM   27 CL   UNL     1      -4.901   2.123 -30.474  1.00  0.00    -0.060 Cl
HETATM   28  N   UNL     1      -2.910   3.161 -31.678  1.00  0.00    -0.247 NA
HETATM   29  C   UNL     1      -2.268   4.108 -32.389  1.00  0.00     0.118 A 
HETATM   30  C   UNL     1      -2.912   5.150 -33.030  1.00  0.00     0.022 A 
HETATM   31  C   UNL     1      -4.304   5.205 -32.967  1.00  0.00     0.034 A 
ENDBRANCH  21  25
ENDBRANCH  18  19
ENDBRANCH   1  18
TORSDOF 7
ENDMDL
MODEL 9
REMARK VINA RESULT:      -7.1      3.968      6.865
REMARK  7 active torsions:
REMARK  status: ('A' for Active; 'I' for Inactive)
REMARK    1  A    between atoms: C_6  and  N_7 
REMARK       I    between atoms: N_7  and  C_8 
REMARK       I    between atoms: C_8  and  N_9 
REMARK    2  A    between atoms: N_9  and  C_10 
REMARK    3  A    between atoms: C_10  and  C_11 
REMARK    4  A    between atoms: C_11  and  O_12 
REMARK    5  A    between atoms: C_11  and  C_13 
REMARK    6  A    between atoms: C_13  and  N_14 
REMARK       I    between atoms: N_14  and  C_15 
REMARK       I    between atoms: C_15  and  N_16 
REMARK    7  A    between atoms: N_16  and  C_17 
ROOT
HETATM    1  C   UNL     1      -5.319   6.331 -27.169  1.00  0.00     0.153 C 
ENDROOT
BRANCH   1   2
HETATM    2  C   UNL     1      -6.589   6.151 -28.021  1.00  0.00     0.157 C 
BRANCH   2   3
HETATM    3  N   UNL     1      -6.932   4.750 -28.212  1.00  0.00    -0.340 N 
HETATM    4  C   UNL     1      -6.679   4.103 -29.400  1.00  0.00     0.320 C 
HETATM    5  N   UNL     1      -6.861   2.745 -29.271  1.00  0.00    -0.306 N 
HETATM    6  O   UNL     1      -6.301   4.697 -30.401  1.00  0.00    -0.247 OA
HETATM    7  H   UNL     1      -6.725   2.405 -28.331  1.00  0.00     0.171 HD
HETATM    8  H   UNL     1      -6.891   4.203 -27.365  1.00  0.00     0.164 HD
BRANCH   5   9
HETATM    9  C   UNL     1      -6.705   1.792 -30.306  1.00  0.00     0.077 A 
HETATM   10  C   UNL     1      -7.586   1.526 -31.361  1.00  0.00     0.152 A 
HETATM   11  N   UNL     1      -7.353   0.598 -32.327  1.00  0.00    -0.247 NA
HETATM   12 CL   UNL     1      -9.199   2.125 -31.461  1.00  0.00    -0.060 Cl
HETATM   13  C   UNL     1      -6.207  -0.105 -32.243  1.00  0.00     0.118 A 
HETATM   14  C   UNL     1      -5.290   0.045 -31.219  1.00  0.00     0.022 A 
HETATM   15  C   UNL     1      -5.550   0.998 -30.237  1.00  0.00     0.034 A 
ENDBRANCH   5   9
ENDBRANCH   2   3
ENDBRANCH   1   2
BRANCH   1  16
HETATM   16  O   UNL     1      -4.927   5.038 -26.676  1.00  0.00    -0.392 OA
HETATM   17  H   UNL     1      -4.309   4.640 -27.328  1.00  0.00     0.210 HD
ENDBRANCH   1  16
BRANCH   1  18
HETATM   18  C   UNL     1      -4.187   7.033 -27.943  1.00  0.00     0.157 C 
BRANCH  18  19
HETATM   19  N   UNL     1      -4.356   6.940 -29.391  1.00  0.00    -0.340 N 
HETATM   20  C   UNL     1      -3.321   6.544 -30.207  1.00  0.00     0.320 C 
HETATM   21  N   UNL     1      -3.741   6.425 -31.510  1.00  0.00    -0.306 N 
HETATM   22  O   UNL     1      -2.209   6.294 -29.765  1.00  0.00    -0.247 OA
HETATM   23  H   UNL     1      -4.716   6.173 -31.581  1.00  0.00     0.171 HD
HETATM   24  H   UNL     1      -5.083   7.498 -29.813  1.00  0.00     0.164 HD
BRANCH  21  25
HETATM   25  C   UNL     1      -2.915   6.054 -32.599  1.00  0.00     0.077 A 
HETATM   26  C   UNL     1      -2.857   4.807 -33.236  1.00  0.00     0.152 A 
HETATM   27 CL   UNL     1      -3.592   3.369 -32.631  1.00  0.00    -0.060 Cl
HETATM   28  N   UNL     1      -2.052   4.533 -34.295  1.00  0.00    -0.247 NA
HETATM   29  C   UNL     1      -1.258   5.526 -34.740  1.00  0.00     0.118 A 
HETATM   30  C   UNL     1      -1.202   6.778 -34.155  1.00  0.00     0.022 A 
HETATM   31  C   UNL     1      -2.033   7.037 -33.067  1.00  0.00     0.034 A 
ENDBRANCH  21  25
ENDBRANCH  18  19
ENDBRANCH   1  18
TORSDOF 7
ENDMDL
MODEL 10
REMARK VINA RESULT:      -7.1     14.358     16.223
REMARK  7 active torsions:
REMARK  status: ('A' for Active; 'I' for Inactive)
REMARK    1  A    between atoms: C_6  and  N_7 
REMARK       I    between atoms: N_7  and  C_8 
REMARK       I    between atoms: C_8  and  N_9 
REMARK    2  A    between atoms: N_9  and  C_10 
REMARK    3  A    between atoms: C_10  and  C_11 
REMARK    4  A    between atoms: C_11  and  O_12 
REMARK    5  A    between atoms: C_11  and  C_13 
REMARK    6  A    between atoms: C_13  and  N_14 
REMARK       I    between atoms: N_14  and  C_15 
REMARK       I    between atoms: C_15  and  N_16 
REMARK    7  A    between atoms: N_16  and  C_17 
ROOT
HETATM    1  C   UNL     1      -5.924 -14.957 -32.869  1.00  0.00     0.153 C 
ENDROOT
BRANCH   1   2
HETATM    2  C   UNL     1      -4.882 -15.978 -33.361  1.00  0.00     0.157 C 
BRANCH   2   3
HETATM    3  N   UNL     1      -3.664 -15.340 -33.835  1.00  0.00    -0.340 N 
HETATM    4  C   UNL     1      -3.332 -15.324 -35.170  1.00  0.00     0.320 C 
HETATM    5  N   UNL     1      -2.279 -14.469 -35.407  1.00  0.00    -0.306 N 
HETATM    6  O   UNL     1      -3.949 -15.970 -36.005  1.00  0.00    -0.247 OA
HETATM    7  H   UNL     1      -2.206 -13.721 -34.735  1.00  0.00     0.171 HD
HETATM    8  H   UNL     1      -3.374 -14.553 -33.273  1.00  0.00     0.164 HD
BRANCH   5   9
HETATM    9  C   UNL     1      -1.677 -14.234 -36.666  1.00  0.00     0.077 A 
HETATM   10  C   UNL     1      -0.592 -14.915 -37.233  1.00  0.00     0.152 A 
HETATM   11  N   UNL     1      -0.081 -14.635 -38.461  1.00  0.00    -0.247 NA
HETATM   12 CL   UNL     1       0.424 -16.015 -36.380  1.00  0.00    -0.060 Cl
HETATM   13  C   UNL     1      -0.656 -13.635 -39.156  1.00  0.00     0.118 A 
HETATM   14  C   UNL     1      -1.701 -12.871 -38.672  1.00  0.00     0.022 A 
HETATM   15  C   UNL     1      -2.208 -13.170 -37.410  1.00  0.00     0.034 A 
ENDBRANCH   5   9
ENDBRANCH   2   3
ENDBRANCH   1   2
BRANCH   1  16
HETATM   16  O   UNL     1      -5.254 -13.703 -32.659  1.00  0.00    -0.392 OA
HETATM   17  H   UNL     1      -5.511 -13.097 -33.388  1.00  0.00     0.210 HD
ENDBRANCH   1  16
BRANCH   1  18
HETATM   18  C   UNL     1      -7.122 -14.830 -33.829  1.00  0.00     0.157 C 
BRANCH  18  19
HETATM   19  N   UNL     1      -6.966 -13.730 -34.777  1.00  0.00    -0.340 N 
HETATM   20  C   UNL     1      -6.967 -13.951 -36.135  1.00  0.00     0.320 C 
HETATM   21  N   UNL     1      -6.918 -12.765 -36.826  1.00  0.00    -0.306 N 
HETATM   22  O   UNL     1      -7.057 -15.076 -36.606  1.00  0.00    -0.247 OA
HETATM   23  H   UNL     1      -7.352 -12.005 -36.324  1.00  0.00     0.171 HD
HETATM   24  H   UNL     1      -6.503 -12.893 -34.451  1.00  0.00     0.164 HD
BRANCH  21  25
HETATM   25  C   UNL     1      -6.887 -12.648 -38.238  1.00  0.00     0.077 A 
HETATM   26  C   UNL     1      -7.956 -12.817 -39.129  1.00  0.00     0.152 A 
HETATM   27 CL   UNL     1      -9.485 -13.487 -38.699  1.00  0.00    -0.060 Cl
HETATM   28  N   UNL     1      -7.852 -12.664 -40.475  1.00  0.00    -0.247 NA
HETATM   29  C   UNL     1      -6.641 -12.343 -40.968  1.00  0.00     0.118 A 
HETATM   30  C   UNL     1      -5.511 -12.200 -40.184  1.00  0.00     0.022 A 
HETATM   31  C   UNL     1      -5.638 -12.364 -38.806  1.00  0.00     0.034 A 
ENDBRANCH  21  25
ENDBRANCH  18  19
ENDBRANCH   1  18
TORSDOF 7
ENDMDL
