MODEL 1
REMARK VINA RESULT:      -8.9      0.000      0.000
REMARK  3 active torsions:
REMARK  status: ('A' for Active; 'I' for Inactive)
REMARK    1  A    between atoms: C_2  and  O_3 
REMARK    2  A    between atoms: O_3  and  C_4 
REMARK    3  A    between atoms: C_8  and  N_9 
REMARK       I    between atoms: N_9  and  C_10 
REMARK       I    between atoms: C_10  and  N_11 
ROOT
HETATM    1  N   UNL     1      -4.545   3.595 -31.644  1.00  0.00    -0.309 N 
HETATM    2  C   UNL     1      -3.774   2.466 -31.499  1.00  0.00     0.323 C 
HETATM    3  N   UNL     1      -4.414   1.261 -31.781  1.00  0.00    -0.328 N 
HETATM    4  C   UNL     1      -3.643   0.042 -31.478  1.00  0.00     0.185 C 
HETATM    5  C   UNL     1      -4.106  -1.076 -32.344  1.00  0.00     0.035 A 
HETATM    6  C   UNL     1      -5.189  -1.079 -33.194  1.00  0.00    -0.020 A 
HETATM    7  C   UNL     1      -6.038   0.127 -33.352  1.00  0.00     0.061 C 
HETATM    8  C   UNL     1      -5.840   1.075 -32.150  1.00  0.00     0.132 C 
HETATM    9  N   UNL     1      -3.496  -2.297 -32.430  1.00  0.00    -0.357 N 
HETATM   10  H   UNL     1      -2.663  -2.578 -31.930  1.00  0.00     0.166 HD
HETATM   11  C   UNL     1      -4.175  -3.097 -33.325  1.00  0.00     0.043 A 
HETATM   12  C   UNL     1      -5.250  -2.351 -33.821  1.00  0.00    -0.001 A 
HETATM   13  C   UNL     1      -3.917  -4.410 -33.736  1.00  0.00     0.030 A 
HETATM   14  C   UNL     1      -4.782  -4.978 -34.676  1.00  0.00     0.002 A 
HETATM   15  C   UNL     1      -5.860  -4.258 -35.186  1.00  0.00     0.001 A 
HETATM   16  C   UNL     1      -6.105  -2.946 -34.768  1.00  0.00     0.014 A 
HETATM   17  O   UNL     1      -2.595   2.490 -31.150  1.00  0.00    -0.247 OA
HETATM   18  H   UNL     1      -5.538   3.472 -31.548  1.00  0.00     0.170 HD
ENDROOT
BRANCH   1  19
HETATM   19  C   UNL     1      -4.104   4.936 -31.666  1.00  0.00     0.038 A 
HETATM   20  C   UNL     1      -3.260   5.465 -32.643  1.00  0.00     0.056 A 
HETATM   21  C   UNL     1      -2.897   6.818 -32.609  1.00  0.00     0.069 A 
HETATM   22  C   UNL     1      -3.386   7.671 -31.609  1.00  0.00     0.090 A 
HETATM   23 CL   UNL     1      -1.845   7.407 -33.852  1.00  0.00    -0.081 Cl
HETATM   24  C   UNL     1      -4.227   7.140 -30.630  1.00  0.00     0.041 A 
HETATM   25  C   UNL     1      -4.584   5.786 -30.663  1.00  0.00     0.032 A 
BRANCH  22  26
HETATM   26  O   UNL     1      -2.985   8.981 -31.656  1.00  0.00    -0.350 OA
BRANCH  26  27
HETATM   27  C   UNL     1      -3.518   9.871 -30.679  1.00  0.00     0.171 C 
HETATM   28  C   UNL     1      -2.375  10.325 -29.789  1.00  0.00     0.034 C 
ENDBRANCH  26  27
ENDBRANCH  22  26
ENDBRANCH   1  19
TORSDOF 3
ENDMDL
MODEL 2
REMARK VINA RESULT:      -8.3      5.834      9.844
REMARK  3 active torsions:
REMARK  status: ('A' for Active; 'I' for Inactive)
REMARK    1  A    between atoms: C_2  and  O_3 
REMARK    2  A    between atoms: O_3  and  C_4 
REMARK    3  A    between atoms: C_8  and  N_9 
REMARK       I    between atoms: N_9  and  C_10 
REMARK       I    between atoms: C_10  and  N_11 
ROOT
HETATM    1  N   UNL     1      -7.147   0.588 -33.646  1.00  0.00    -0.309 N 
HETATM    2  C   UNL     1      -7.661   1.044 -32.454  1.00  0.00     0.323 C 
HETATM    3  N   UNL     1      -8.610   2.059 -32.559  1.00  0.00    -0.328 N 
HETATM    4  C   UNL     1      -9.048   2.657 -31.285  1.00  0.00     0.185 C 
HETATM    5  C   UNL     1     -10.416   3.221 -31.436  1.00  0.00     0.035 A 
HETATM    6  C   UNL     1     -11.143   3.345 -32.599  1.00  0.00    -0.020 A 
HETATM    7  C   UNL     1     -10.598   2.869 -33.894  1.00  0.00     0.061 C 
HETATM    8  C   UNL     1      -9.064   2.730 -33.803  1.00  0.00     0.132 C 
HETATM    9  N   UNL     1     -11.176   3.705 -30.407  1.00  0.00    -0.357 N 
HETATM   10  H   UNL     1     -10.906   3.727 -29.434  1.00  0.00     0.166 HD
HETATM   11  C   UNL     1     -12.390   4.147 -30.891  1.00  0.00     0.043 A 
HETATM   12  C   UNL     1     -12.394   3.931 -32.272  1.00  0.00    -0.001 A 
HETATM   13  C   UNL     1     -13.479   4.708 -30.213  1.00  0.00     0.030 A 
HETATM   14  C   UNL     1     -14.601   5.062 -30.968  1.00  0.00     0.002 A 
HETATM   15  C   UNL     1     -14.632   4.859 -32.346  1.00  0.00     0.001 A 
HETATM   16  C   UNL     1     -13.537   4.295 -33.010  1.00  0.00     0.014 A 
HETATM   17  O   UNL     1      -7.326   0.601 -31.357  1.00  0.00    -0.247 OA
HETATM   18  H   UNL     1      -7.172   1.232 -34.417  1.00  0.00     0.170 HD
ENDROOT
BRANCH   1  19
HETATM   19  C   UNL     1      -6.372  -0.573 -33.856  1.00  0.00     0.038 A 
HETATM   20  C   UNL     1      -6.873  -1.762 -34.385  1.00  0.00     0.056 A 
HETATM   21  C   UNL     1      -6.027  -2.859 -34.592  1.00  0.00     0.069 A 
HETATM   22  C   UNL     1      -4.659  -2.781 -34.290  1.00  0.00     0.090 A 
HETATM   23 CL   UNL     1      -6.717  -4.304 -35.251  1.00  0.00    -0.081 Cl
HETATM   24  C   UNL     1      -4.159  -1.592 -33.757  1.00  0.00     0.041 A 
HETATM   25  C   UNL     1      -5.009  -0.499 -33.545  1.00  0.00     0.032 A 
BRANCH  22  26
HETATM   26  O   UNL     1      -3.903  -3.898 -34.530  1.00  0.00    -0.350 OA
BRANCH  26  27
HETATM   27  C   UNL     1      -3.763  -4.842 -33.471  1.00  0.00     0.171 C 
HETATM   28  C   UNL     1      -2.997  -4.170 -32.346  1.00  0.00     0.034 C 
ENDBRANCH  26  27
ENDBRANCH  22  26
ENDBRANCH   1  19
TORSDOF 3
ENDMDL
MODEL 3
REMARK VINA RESULT:      -8.1      4.014      9.727
REMARK  3 active torsions:
REMARK  status: ('A' for Active; 'I' for Inactive)
REMARK    1  A    between atoms: C_2  and  O_3 
REMARK    2  A    between atoms: O_3  and  C_4 
REMARK    3  A    between atoms: C_8  and  N_9 
REMARK       I    between atoms: N_9  and  C_10 
REMARK       I    between atoms: C_10  and  N_11 
ROOT
HETATM    1  N   UNL     1      -4.574   4.291 -32.011  1.00  0.00    -0.309 N 
HETATM    2  C   UNL     1      -3.258   4.206 -31.619  1.00  0.00     0.323 C 
HETATM    3  N   UNL     1      -2.662   5.409 -31.247  1.00  0.00    -0.328 N 
HETATM    4  C   UNL     1      -1.215   5.349 -30.977  1.00  0.00     0.185 C 
HETATM    5  C   UNL     1      -0.831   6.436 -30.038  1.00  0.00     0.035 A 
HETATM    6  C   UNL     1      -1.625   7.468 -29.587  1.00  0.00    -0.020 A 
HETATM    7  C   UNL     1      -3.042   7.581 -30.010  1.00  0.00     0.061 C 
HETATM    8  C   UNL     1      -3.277   6.760 -31.295  1.00  0.00     0.132 C 
HETATM    9  N   UNL     1       0.402   6.566 -29.460  1.00  0.00    -0.357 N 
HETATM   10  H   UNL     1       1.185   5.941 -29.593  1.00  0.00     0.166 HD
HETATM   11  C   UNL     1       0.420   7.676 -28.641  1.00  0.00     0.043 A 
HETATM   12  C   UNL     1      -0.847   8.264 -28.704  1.00  0.00    -0.001 A 
HETATM   13  C   UNL     1       1.451   8.194 -27.849  1.00  0.00     0.030 A 
HETATM   14  C   UNL     1       1.181   9.346 -27.104  1.00  0.00     0.002 A 
HETATM   15  C   UNL     1      -0.073   9.953 -27.149  1.00  0.00     0.001 A 
HETATM   16  C   UNL     1      -1.095   9.423 -27.944  1.00  0.00     0.014 A 
HETATM   17  O   UNL     1      -2.627   3.151 -31.586  1.00  0.00    -0.247 OA
HETATM   18  H   UNL     1      -4.874   5.180 -32.370  1.00  0.00     0.170 HD
ENDROOT
BRANCH   1  19
HETATM   19  C   UNL     1      -5.481   3.226 -32.199  1.00  0.00     0.038 A 
HETATM   20  C   UNL     1      -5.698   2.591 -33.421  1.00  0.00     0.056 A 
HETATM   21  C   UNL     1      -6.594   1.518 -33.514  1.00  0.00     0.069 A 
HETATM   22  C   UNL     1      -7.276   1.047 -32.382  1.00  0.00     0.090 A 
HETATM   23 CL   UNL     1      -6.815   0.776 -35.063  1.00  0.00    -0.081 Cl
HETATM   24  C   UNL     1      -7.061   1.687 -31.160  1.00  0.00     0.041 A 
HETATM   25  C   UNL     1      -6.169   2.764 -31.071  1.00  0.00     0.032 A 
BRANCH  22  26
HETATM   26  O   UNL     1      -8.127  -0.011 -32.562  1.00  0.00    -0.350 OA
BRANCH  26  27
HETATM   27  C   UNL     1      -9.497   0.177 -32.214  1.00  0.00     0.171 C 
HETATM   28  C   UNL     1     -10.212   0.740 -33.429  1.00  0.00     0.034 C 
ENDBRANCH  26  27
ENDBRANCH  22  26
ENDBRANCH   1  19
TORSDOF 3
ENDMDL
MODEL 4
REMARK VINA RESULT:      -8.1      6.951     10.360
REMARK  3 active torsions:
REMARK  status: ('A' for Active; 'I' for Inactive)
REMARK    1  A    between atoms: C_2  and  O_3 
REMARK    2  A    between atoms: O_3  and  C_4 
REMARK    3  A    between atoms: C_8  and  N_9 
REMARK       I    between atoms: N_9  and  C_10 
REMARK       I    between atoms: C_10  and  N_11 
ROOT
HETATM    1  N   UNL     1      -9.173   0.543 -34.154  1.00  0.00    -0.309 N 
HETATM    2  C   UNL     1      -9.597   1.754 -33.657  1.00  0.00     0.323 C 
HETATM    3  N   UNL     1     -10.955   2.024 -33.811  1.00  0.00    -0.328 N 
HETATM    4  C   UNL     1     -11.385   3.379 -33.422  1.00  0.00     0.185 C 
HETATM    5  C   UNL     1     -12.821   3.362 -33.036  1.00  0.00     0.035 A 
HETATM    6  C   UNL     1     -13.705   2.314 -33.160  1.00  0.00    -0.020 A 
HETATM    7  C   UNL     1     -13.267   1.006 -33.706  1.00  0.00     0.061 C 
HETATM    8  C   UNL     1     -11.959   1.179 -34.506  1.00  0.00     0.132 C 
HETATM    9  N   UNL     1     -13.488   4.416 -32.475  1.00  0.00    -0.357 N 
HETATM   10  H   UNL     1     -13.087   5.316 -32.251  1.00  0.00     0.166 HD
HETATM   11  C   UNL     1     -14.801   4.065 -32.237  1.00  0.00     0.043 A 
HETATM   12  C   UNL     1     -14.964   2.743 -32.662  1.00  0.00    -0.001 A 
HETATM   13  C   UNL     1     -15.845   4.810 -31.675  1.00  0.00     0.030 A 
HETATM   14  C   UNL     1     -17.090   4.187 -31.546  1.00  0.00     0.002 A 
HETATM   15  C   UNL     1     -17.280   2.870 -31.961  1.00  0.00     0.001 A 
HETATM   16  C   UNL     1     -16.228   2.138 -32.519  1.00  0.00     0.014 A 
HETATM   17  O   UNL     1      -8.850   2.560 -33.105  1.00  0.00    -0.247 OA
HETATM   18  H   UNL     1      -9.726   0.148 -34.895  1.00  0.00     0.170 HD
ENDROOT
BRANCH   1  19
HETATM   19  C   UNL     1      -7.932  -0.089 -33.925  1.00  0.00     0.038 A 
HETATM   20  C   UNL     1      -7.187   0.052 -32.755  1.00  0.00     0.056 A 
HETATM   21  C   UNL     1      -5.979  -0.638 -32.594  1.00  0.00     0.069 A 
HETATM   22  C   UNL     1      -5.503  -1.499 -33.594  1.00  0.00     0.090 A 
HETATM   23 CL   UNL     1      -5.105  -0.414 -31.116  1.00  0.00    -0.081 Cl
HETATM   24  C   UNL     1      -6.247  -1.638 -34.767  1.00  0.00     0.041 A 
HETATM   25  C   UNL     1      -7.452  -0.941 -34.927  1.00  0.00     0.032 A 
BRANCH  22  26
HETATM   26  O   UNL     1      -4.316  -2.141 -33.352  1.00  0.00    -0.350 OA
BRANCH  26  27
HETATM   27  C   UNL     1      -4.031  -3.313 -34.111  1.00  0.00     0.171 C 
HETATM   28  C   UNL     1      -3.500  -4.368 -33.156  1.00  0.00     0.034 C 
ENDBRANCH  26  27
ENDBRANCH  22  26
ENDBRANCH   1  19
TORSDOF 3
ENDMDL
MODEL 5
REMARK VINA RESULT:      -8.1      3.497      9.925
REMARK  3 active torsions:
REMARK  status: ('A' for Active; 'I' for Inactive)
REMARK    1  A    between atoms: C_2  and  O_3 
REMARK    2  A    between atoms: O_3  and  C_4 
REMARK    3  A    between atoms: C_8  and  N_9 
REMARK       I    between atoms: N_9  and  C_10 
REMARK       I    between atoms: C_10  and  N_11 
ROOT
HETATM    1  N   UNL     1      -4.310   4.409 -32.115  1.00  0.00    -0.309 N 
HETATM    2  C   UNL     1      -2.988   4.386 -31.736  1.00  0.00     0.323 C 
HETATM    3  N   UNL     1      -2.466   5.603 -31.302  1.00  0.00    -0.328 N 
HETATM    4  C   UNL     1      -1.016   5.621 -31.044  1.00  0.00     0.185 C 
HETATM    5  C   UNL     1      -0.693   6.678 -30.049  1.00  0.00     0.035 A 
HETATM    6  C   UNL     1      -1.546   7.631 -29.538  1.00  0.00    -0.020 A 
HETATM    7  C   UNL     1      -2.971   7.677 -29.946  1.00  0.00     0.061 C 
HETATM    8  C   UNL     1      -3.166   6.913 -31.273  1.00  0.00     0.132 C 
HETATM    9  N   UNL     1       0.534   6.854 -29.471  1.00  0.00    -0.357 N 
HETATM   10  H   UNL     1       1.354   6.289 -29.643  1.00  0.00     0.166 HD
HETATM   11  C   UNL     1       0.490   7.917 -28.594  1.00  0.00     0.043 A 
HETATM   12  C   UNL     1      -0.813   8.426 -28.618  1.00  0.00    -0.001 A 
HETATM   13  C   UNL     1       1.493   8.457 -27.780  1.00  0.00     0.030 A 
HETATM   14  C   UNL     1       1.158   9.547 -26.972  1.00  0.00     0.002 A 
HETATM   15  C   UNL     1      -0.132  10.074 -26.977  1.00  0.00     0.001 A 
HETATM   16  C   UNL     1      -1.125   9.524 -27.794  1.00  0.00     0.014 A 
HETATM   17  O   UNL     1      -2.291   3.373 -31.764  1.00  0.00    -0.247 OA
HETATM   18  H   UNL     1      -4.670   5.295 -32.424  1.00  0.00     0.170 HD
ENDROOT
BRANCH   1  19
HETATM   19  C   UNL     1      -5.150   3.300 -32.356  1.00  0.00     0.038 A 
HETATM   20  C   UNL     1      -5.383   2.281 -31.434  1.00  0.00     0.056 A 
HETATM   21  C   UNL     1      -6.260   1.232 -31.742  1.00  0.00     0.069 A 
HETATM   22  C   UNL     1      -6.935   1.194 -32.971  1.00  0.00     0.090 A 
HETATM   23 CL   UNL     1      -6.501  -0.001 -30.551  1.00  0.00    -0.081 Cl
HETATM   24  C   UNL     1      -6.698   2.213 -33.895  1.00  0.00     0.041 A 
HETATM   25  C   UNL     1      -5.816   3.257 -33.587  1.00  0.00     0.032 A 
BRANCH  22  26
HETATM   26  O   UNL     1      -7.778   0.136 -33.187  1.00  0.00    -0.350 OA
BRANCH  26  27
HETATM   27  C   UNL     1      -7.631  -0.590 -34.405  1.00  0.00     0.171 C 
HETATM   28  C   UNL     1      -6.465  -1.548 -34.238  1.00  0.00     0.034 C 
ENDBRANCH  26  27
ENDBRANCH  22  26
ENDBRANCH   1  19
TORSDOF 3
ENDMDL
MODEL 6
REMARK VINA RESULT:      -8.0      5.450      8.955
REMARK  3 active torsions:
REMARK  status: ('A' for Active; 'I' for Inactive)
REMARK    1  A    between atoms: C_2  and  O_3 
REMARK    2  A    between atoms: O_3  and  C_4 
REMARK    3  A    between atoms: C_8  and  N_9 
REMARK       I    between atoms: N_9  and  C_10 
REMARK       I    between atoms: C_10  and  N_11 
ROOT
HETATM    1  N   UNL     1      -8.215   2.855 -33.802  1.00  0.00    -0.309 N 
HETATM    2  C   UNL     1      -7.276   2.608 -32.827  1.00  0.00     0.323 C 
HETATM    3  N   UNL     1      -5.995   3.085 -33.092  1.00  0.00    -0.328 N 
HETATM    4  C   UNL     1      -4.953   2.690 -32.128  1.00  0.00     0.185 C 
HETATM    5  C   UNL     1      -3.856   3.694 -32.130  1.00  0.00     0.035 A 
HETATM    6  C   UNL     1      -3.699   4.756 -32.992  1.00  0.00    -0.020 A 
HETATM    7  C   UNL     1      -4.696   5.028 -34.056  1.00  0.00     0.061 C 
HETATM    8  C   UNL     1      -5.535   3.762 -34.331  1.00  0.00     0.132 C 
HETATM    9  N   UNL     1      -2.816   3.712 -31.242  1.00  0.00    -0.357 N 
HETATM   10  H   UNL     1      -2.677   3.060 -30.482  1.00  0.00     0.166 HD
HETATM   11  C   UNL     1      -1.981   4.774 -31.521  1.00  0.00     0.043 A 
HETATM   12  C   UNL     1      -2.516   5.449 -32.623  1.00  0.00    -0.001 A 
HETATM   13  C   UNL     1      -0.807   5.189 -30.881  1.00  0.00     0.030 A 
HETATM   14  C   UNL     1      -0.161   6.323 -31.382  1.00  0.00     0.002 A 
HETATM   15  C   UNL     1      -0.671   7.014 -32.479  1.00  0.00     0.001 A 
HETATM   16  C   UNL     1      -1.846   6.589 -33.108  1.00  0.00     0.014 A 
HETATM   17  O   UNL     1      -7.526   2.013 -31.780  1.00  0.00    -0.247 OA
HETATM   18  H   UNL     1      -7.865   2.982 -34.735  1.00  0.00     0.170 HD
ENDROOT
BRANCH   1  19
HETATM   19  C   UNL     1      -9.616   2.710 -33.698  1.00  0.00     0.038 A 
HETATM   20  C   UNL     1     -10.277   1.482 -33.701  1.00  0.00     0.056 A 
HETATM   21  C   UNL     1     -11.669   1.426 -33.559  1.00  0.00     0.069 A 
HETATM   22  C   UNL     1     -12.425   2.596 -33.392  1.00  0.00     0.090 A 
HETATM   23 CL   UNL     1     -12.424  -0.132 -33.574  1.00  0.00    -0.081 Cl
HETATM   24  C   UNL     1     -11.763   3.824 -33.392  1.00  0.00     0.041 A 
HETATM   25  C   UNL     1     -10.371   3.878 -33.540  1.00  0.00     0.032 A 
BRANCH  22  26
HETATM   26  O   UNL     1     -13.780   2.448 -33.253  1.00  0.00    -0.350 OA
BRANCH  26  27
HETATM   27  C   UNL     1     -14.366   2.853 -32.018  1.00  0.00     0.171 C 
HETATM   28  C   UNL     1     -15.762   2.258 -31.948  1.00  0.00     0.034 C 
ENDBRANCH  26  27
ENDBRANCH  22  26
ENDBRANCH   1  19
TORSDOF 3
ENDMDL
MODEL 7
REMARK VINA RESULT:      -7.7      4.810      9.173
REMARK  3 active torsions:
REMARK  status: ('A' for Active; 'I' for Inactive)
REMARK    1  A    between atoms: C_2  and  O_3 
REMARK    2  A    between atoms: O_3  and  C_4 
REMARK    3  A    between atoms: C_8  and  N_9 
REMARK       I    between atoms: N_9  and  C_10 
REMARK       I    between atoms: C_10  and  N_11 
ROOT
HETATM    1  N   UNL     1      -7.640   2.309 -32.497  1.00  0.00    -0.309 N 
HETATM    2  C   UNL     1      -7.283   3.316 -31.630  1.00  0.00     0.323 C 
HETATM    3  N   UNL     1      -5.915   3.463 -31.410  1.00  0.00    -0.328 N 
HETATM    4  C   UNL     1      -5.536   4.433 -30.368  1.00  0.00     0.185 C 
HETATM    5  C   UNL     1      -4.171   4.957 -30.638  1.00  0.00     0.035 A 
HETATM    6  C   UNL     1      -3.285   4.521 -31.598  1.00  0.00    -0.020 A 
HETATM    7  C   UNL     1      -3.650   3.428 -32.532  1.00  0.00     0.061 C 
HETATM    8  C   UNL     1      -4.828   2.613 -31.958  1.00  0.00     0.132 C 
HETATM    9  N   UNL     1      -3.583   5.986 -29.955  1.00  0.00    -0.357 N 
HETATM   10  H   UNL     1      -4.006   6.513 -29.202  1.00  0.00     0.166 HD
HETATM   11  C   UNL     1      -2.321   6.221 -30.459  1.00  0.00     0.043 A 
HETATM   12  C   UNL     1      -2.108   5.308 -31.497  1.00  0.00    -0.001 A 
HETATM   13  C   UNL     1      -1.363   7.170 -30.083  1.00  0.00     0.030 A 
HETATM   14  C   UNL     1      -0.154   7.186 -30.785  1.00  0.00     0.002 A 
HETATM   15  C   UNL     1       0.085   6.287 -31.823  1.00  0.00     0.001 A 
HETATM   16  C   UNL     1      -0.882   5.345 -32.189  1.00  0.00     0.014 A 
HETATM   17  O   UNL     1      -8.096   4.053 -31.075  1.00  0.00    -0.247 OA
HETATM   18  H   UNL     1      -6.990   1.548 -32.587  1.00  0.00     0.170 HD
ENDROOT
BRANCH   1  19
HETATM   19  C   UNL     1      -8.906   2.094 -33.084  1.00  0.00     0.038 A 
HETATM   20  C   UNL     1      -9.500   2.961 -34.000  1.00  0.00     0.056 A 
HETATM   21  C   UNL     1     -10.747   2.654 -34.561  1.00  0.00     0.069 A 
HETATM   22  C   UNL     1     -11.413   1.465 -34.231  1.00  0.00     0.090 A 
HETATM   23 CL   UNL     1     -11.427   3.776 -35.691  1.00  0.00    -0.081 Cl
HETATM   24  C   UNL     1     -10.819   0.599 -33.311  1.00  0.00     0.041 A 
HETATM   25  C   UNL     1      -9.575   0.911 -32.747  1.00  0.00     0.032 A 
BRANCH  22  26
HETATM   26  O   UNL     1     -12.624   1.241 -34.831  1.00  0.00    -0.350 OA
BRANCH  26  27
HETATM   27  C   UNL     1     -13.515   0.323 -34.202  1.00  0.00     0.171 C 
HETATM   28  C   UNL     1     -14.862   1.009 -34.053  1.00  0.00     0.034 C 
ENDBRANCH  26  27
ENDBRANCH  22  26
ENDBRANCH   1  19
TORSDOF 3
ENDMDL
MODEL 8
REMARK VINA RESULT:      -7.6      5.804      9.866
REMARK  3 active torsions:
REMARK  status: ('A' for Active; 'I' for Inactive)
REMARK    1  A    between atoms: C_2  and  O_3 
REMARK    2  A    between atoms: O_3  and  C_4 
REMARK    3  A    between atoms: C_8  and  N_9 
REMARK       I    between atoms: N_9  and  C_10 
REMARK       I    between atoms: C_10  and  N_11 
ROOT
HETATM    1  N   UNL     1      -7.171   1.366 -33.231  1.00  0.00    -0.309 N 
HETATM    2  C   UNL     1      -7.868   1.593 -32.067  1.00  0.00     0.323 C 
HETATM    3  N   UNL     1      -8.770   2.654 -32.105  1.00  0.00    -0.328 N 
HETATM    4  C   UNL     1      -9.404   3.000 -30.820  1.00  0.00     0.185 C 
HETATM    5  C   UNL     1     -10.718   3.652 -31.065  1.00  0.00     0.035 A 
HETATM    6  C   UNL     1     -11.240   4.048 -32.277  1.00  0.00    -0.020 A 
HETATM    7  C   UNL     1     -10.495   3.820 -33.539  1.00  0.00     0.061 C 
HETATM    8  C   UNL     1      -9.000   3.588 -33.236  1.00  0.00     0.132 C 
HETATM    9  N   UNL     1     -11.631   3.953 -30.092  1.00  0.00    -0.357 N 
HETATM   10  H   UNL     1     -11.526   3.761 -29.105  1.00  0.00     0.166 HD
HETATM   11  C   UNL     1     -12.740   4.545 -30.658  1.00  0.00     0.043 A 
HETATM   12  C   UNL     1     -12.519   4.618 -32.037  1.00  0.00    -0.001 A 
HETATM   13  C   UNL     1     -13.917   5.010 -30.060  1.00  0.00     0.030 A 
HETATM   14  C   UNL     1     -14.893   5.567 -30.892  1.00  0.00     0.002 A 
HETATM   15  C   UNL     1     -14.697   5.653 -32.269  1.00  0.00     0.001 A 
HETATM   16  C   UNL     1     -13.517   5.182 -32.854  1.00  0.00     0.014 A 
HETATM   17  O   UNL     1      -7.727   0.918 -31.048  1.00  0.00    -0.247 OA
HETATM   18  H   UNL     1      -7.057   2.154 -33.843  1.00  0.00     0.170 HD
ENDROOT
BRANCH   1  19
HETATM   19  C   UNL     1      -6.391   0.234 -33.554  1.00  0.00     0.038 A 
HETATM   20  C   UNL     1      -5.232  -0.137 -32.873  1.00  0.00     0.056 A 
HETATM   21  C   UNL     1      -4.535  -1.297 -33.238  1.00  0.00     0.069 A 
HETATM   22  C   UNL     1      -4.996  -2.118 -34.278  1.00  0.00     0.090 A 
HETATM   23 CL   UNL     1      -3.103  -1.696 -32.350  1.00  0.00    -0.081 Cl
HETATM   24  C   UNL     1      -6.154  -1.744 -34.961  1.00  0.00     0.041 A 
HETATM   25  C   UNL     1      -6.846  -0.580 -34.598  1.00  0.00     0.032 A 
BRANCH  22  26
HETATM   26  O   UNL     1      -4.257  -3.236 -34.564  1.00  0.00    -0.350 OA
BRANCH  26  27
HETATM   27  C   UNL     1      -4.847  -4.505 -34.293  1.00  0.00     0.171 C 
HETATM   28  C   UNL     1      -3.874  -5.299 -33.440  1.00  0.00     0.034 C 
ENDBRANCH  26  27
ENDBRANCH  22  26
ENDBRANCH   1  19
TORSDOF 3
ENDMDL
MODEL 9
REMARK VINA RESULT:      -7.6      3.863      4.580
REMARK  3 active torsions:
REMARK  status: ('A' for Active; 'I' for Inactive)
REMARK    1  A    between atoms: C_2  and  O_3 
REMARK    2  A    between atoms: O_3  and  C_4 
REMARK    3  A    between atoms: C_8  and  N_9 
REMARK       I    between atoms: N_9  and  C_10 
REMARK       I    between atoms: C_10  and  N_11 
ROOT
HETATM    1  N   UNL     1      -7.056   3.608 -31.424  1.00  0.00    -0.309 N 
HETATM    2  C   UNL     1      -7.836   2.577 -31.892  1.00  0.00     0.323 C 
HETATM    3  N   UNL     1      -7.192   1.669 -32.730  1.00  0.00    -0.328 N 
HETATM    4  C   UNL     1      -8.056   0.654 -33.357  1.00  0.00     0.185 C 
HETATM    5  C   UNL     1      -7.259  -0.559 -33.681  1.00  0.00     0.035 A 
HETATM    6  C   UNL     1      -5.893  -0.709 -33.586  1.00  0.00    -0.020 A 
HETATM    7  C   UNL     1      -5.037   0.398 -33.094  1.00  0.00     0.061 C 
HETATM    8  C   UNL     1      -5.789   1.741 -33.211  1.00  0.00     0.132 C 
HETATM    9  N   UNL     1      -7.785  -1.741 -34.123  1.00  0.00    -0.357 N 
HETATM   10  H   UNL     1      -8.767  -1.931 -34.272  1.00  0.00     0.166 HD
HETATM   11  C   UNL     1      -6.774  -2.658 -34.323  1.00  0.00     0.043 A 
HETATM   12  C   UNL     1      -5.569  -2.030 -33.991  1.00  0.00    -0.001 A 
HETATM   13  C   UNL     1      -6.835  -3.987 -34.759  1.00  0.00     0.030 A 
HETATM   14  C   UNL     1      -5.633  -4.692 -34.862  1.00  0.00     0.002 A 
HETATM   15  C   UNL     1      -4.418  -4.091 -34.539  1.00  0.00     0.001 A 
HETATM   16  C   UNL     1      -4.371  -2.763 -34.103  1.00  0.00     0.014 A 
HETATM   17  O   UNL     1      -9.024   2.440 -31.604  1.00  0.00    -0.247 OA
HETATM   18  H   UNL     1      -6.262   3.857 -31.987  1.00  0.00     0.170 HD
ENDROOT
BRANCH   1  19
HETATM   19  C   UNL     1      -7.368   4.515 -30.387  1.00  0.00     0.038 A 
HETATM   20  C   UNL     1      -6.483   4.874 -29.371  1.00  0.00     0.056 A 
HETATM   21  C   UNL     1      -6.862   5.808 -28.398  1.00  0.00     0.069 A 
HETATM   22  C   UNL     1      -8.127   6.415 -28.435  1.00  0.00     0.090 A 
HETATM   23 CL   UNL     1      -5.715   6.207 -27.164  1.00  0.00    -0.081 Cl
HETATM   24  C   UNL     1      -9.013   6.052 -29.450  1.00  0.00     0.041 A 
HETATM   25  C   UNL     1      -8.633   5.113 -30.418  1.00  0.00     0.032 A 
BRANCH  22  26
HETATM   26  O   UNL     1      -8.412   7.322 -27.448  1.00  0.00    -0.350 OA
BRANCH  26  27
HETATM   27  C   UNL     1      -9.607   8.088 -27.580  1.00  0.00     0.171 C 
HETATM   28  C   UNL     1     -10.336   8.047 -26.249  1.00  0.00     0.034 C 
ENDBRANCH  26  27
ENDBRANCH  22  26
ENDBRANCH   1  19
TORSDOF 3
ENDMDL
MODEL 10
REMARK VINA RESULT:      -7.5      2.368      2.974
REMARK  3 active torsions:
REMARK  status: ('A' for Active; 'I' for Inactive)
REMARK    1  A    between atoms: C_2  and  O_3 
REMARK    2  A    between atoms: O_3  and  C_4 
REMARK    3  A    between atoms: C_8  and  N_9 
REMARK       I    between atoms: N_9  and  C_10 
REMARK       I    between atoms: C_10  and  N_11 
ROOT
HETATM    1  N   UNL     1      -4.646   3.523 -31.646  1.00  0.00    -0.309 N 
HETATM    2  C   UNL     1      -5.630   2.846 -32.328  1.00  0.00     0.323 C 
HETATM    3  N   UNL     1      -5.214   1.700 -33.003  1.00  0.00    -0.328 N 
HETATM    4  C   UNL     1      -6.227   1.059 -33.860  1.00  0.00     0.185 C 
HETATM    5  C   UNL     1      -5.922  -0.388 -34.008  1.00  0.00     0.035 A 
HETATM    6  C   UNL     1      -4.794  -1.051 -33.575  1.00  0.00    -0.020 A 
HETATM    7  C   UNL     1      -3.719  -0.333 -32.849  1.00  0.00     0.061 C 
HETATM    8  C   UNL     1      -3.826   1.184 -33.111  1.00  0.00     0.132 C 
HETATM    9  N   UNL     1      -6.747  -1.301 -34.606  1.00  0.00    -0.357 N 
HETATM   10  H   UNL     1      -7.655  -1.104 -35.004  1.00  0.00     0.166 HD
HETATM   11  C   UNL     1      -6.165  -2.551 -34.571  1.00  0.00     0.043 A 
HETATM   12  C   UNL     1      -4.931  -2.420 -33.926  1.00  0.00    -0.001 A 
HETATM   13  C   UNL     1      -6.638  -3.778 -35.049  1.00  0.00     0.030 A 
HETATM   14  C   UNL     1      -5.827  -4.903 -34.867  1.00  0.00     0.002 A 
HETATM   15  C   UNL     1      -4.593  -4.801 -34.228  1.00  0.00     0.001 A 
HETATM   16  C   UNL     1      -4.133  -3.568 -33.753  1.00  0.00     0.014 A 
HETATM   17  O   UNL     1      -6.807   3.204 -32.355  1.00  0.00    -0.247 OA
HETATM   18  H   UNL     1      -3.707   3.400 -31.982  1.00  0.00     0.170 HD
ENDROOT
BRANCH   1  19
HETATM   19  C   UNL     1      -4.818   4.552 -30.694  1.00  0.00     0.038 A 
HETATM   20  C   UNL     1      -4.370   5.860 -30.869  1.00  0.00     0.056 A 
HETATM   21  C   UNL     1      -4.611   6.830 -29.888  1.00  0.00     0.069 A 
HETATM   22  C   UNL     1      -5.322   6.513 -28.721  1.00  0.00     0.090 A 
HETATM   23 CL   UNL     1      -4.025   8.435 -30.170  1.00  0.00    -0.081 Cl
HETATM   24  C   UNL     1      -5.767   5.202 -28.545  1.00  0.00     0.041 A 
HETATM   25  C   UNL     1      -5.519   4.233 -29.525  1.00  0.00     0.032 A 
BRANCH  22  26
HETATM   26  O   UNL     1      -5.520   7.524 -27.817  1.00  0.00    -0.350 OA
BRANCH  26  27
HETATM   27  C   UNL     1      -4.934   7.380 -26.525  1.00  0.00     0.171 C 
HETATM   28  C   UNL     1      -3.434   7.573 -26.670  1.00  0.00     0.034 C 
ENDBRANCH  26  27
ENDBRANCH  22  26
ENDBRANCH   1  19
TORSDOF 3
ENDMDL
