MODEL 1
REMARK VINA RESULT:      -8.5      0.000      0.000
REMARK  5 active torsions:
REMARK  status: ('A' for Active; 'I' for Inactive)
REMARK    1  A    between atoms: C_2  and  C_3 
REMARK    2  A    between atoms: C_8  and  N_9 
REMARK       I    between atoms: N_9  and  C_10 
REMARK       I    between atoms: C_10  and  N_11 
REMARK    3  A    between atoms: N_11  and  C_12 
REMARK    4  A    between atoms: C_12  and  C_13 
REMARK    5  A    between atoms: C_13  and  C_14 
ROOT
HETATM    1  N   UNL     1     -10.206   1.557 -34.935  1.00  0.00    -0.305 N 
HETATM    2  C   UNL     1      -8.945   1.867 -34.482  1.00  0.00     0.320 C 
HETATM    3  N   UNL     1      -8.025   0.924 -34.887  1.00  0.00    -0.342 N 
HETATM    4  O   UNL     1      -8.636   2.855 -33.833  1.00  0.00    -0.247 OA
HETATM    5  H   UNL     1     -10.242   0.976 -35.759  1.00  0.00     0.171 HD
HETATM    6  H   UNL     1      -8.372   0.002 -35.107  1.00  0.00     0.164 HD
ENDROOT
BRANCH   3   7
HETATM    7  C   UNL     1      -6.624   1.011 -34.499  1.00  0.00     0.138 C 
BRANCH   7   8
HETATM    8  C   UNL     1      -6.219   0.090 -33.316  1.00  0.00     0.003 C 
HETATM    9  C   UNL     1      -4.995   0.704 -32.582  1.00  0.00     0.016 C 
HETATM   10  C   UNL     1      -4.981   0.043 -31.205  1.00  0.00     0.001 C 
HETATM   11  C   UNL     1      -6.433  -0.334 -30.921  1.00  0.00     0.001 C 
HETATM   12  C   UNL     1      -7.224   0.148 -32.137  1.00  0.00     0.016 C 
BRANCH   8  13
HETATM   13  C   UNL     1      -5.966  -1.339 -33.844  1.00  0.00    -0.048 A 
HETATM   14  C   UNL     1      -4.663  -1.833 -34.040  1.00  0.00     0.008 A 
HETATM   15  C   UNL     1      -4.440  -3.124 -34.530  1.00  0.00     0.001 A 
HETATM   16  C   UNL     1      -5.512  -3.944 -34.860  1.00  0.00     0.000 A 
HETATM   17  C   UNL     1      -6.809  -3.471 -34.705  1.00  0.00     0.001 A 
HETATM   18  C   UNL     1      -7.033  -2.184 -34.207  1.00  0.00     0.008 A 
ENDBRANCH   8  13
ENDBRANCH   7   8
ENDBRANCH   3   7
BRANCH   1  19
HETATM   19  C   UNL     1     -11.370   2.228 -34.585  1.00  0.00     0.095 A 
HETATM   20  C   UNL     1     -12.452   1.617 -33.982  1.00  0.00     0.107 A 
HETATM   21  O   UNL     1     -13.429   2.534 -33.768  1.00  0.00    -0.215 OA
HETATM   22  N   UNL     1     -13.006   3.771 -34.197  1.00  0.00    -0.131 NA
HETATM   23  C   UNL     1     -11.768   3.595 -34.680  1.00  0.00     0.087 A 
HETATM   24  C   UNL     1     -11.029   4.786 -35.162  1.00  0.00     0.075 C 
BRANCH  20  25
HETATM   25  C   UNL     1     -12.778   0.234 -33.561  1.00  0.00     0.065 C 
HETATM   26  C   UNL     1     -14.248  -0.088 -33.778  1.00  0.00     0.012 C 
ENDBRANCH  20  25
ENDBRANCH   1  19
TORSDOF 5
ENDMDL
MODEL 2
REMARK VINA RESULT:      -8.4      5.078      7.742
REMARK  5 active torsions:
REMARK  status: ('A' for Active; 'I' for Inactive)
REMARK    1  A    between atoms: C_2  and  C_3 
REMARK    2  A    between atoms: C_8  and  N_9 
REMARK       I    between atoms: N_9  and  C_10 
REMARK       I    between atoms: C_10  and  N_11 
REMARK    3  A    between atoms: N_11  and  C_12 
REMARK    4  A    between atoms: C_12  and  C_13 
REMARK    5  A    between atoms: C_13  and  C_14 
ROOT
HETATM    1  N   UNL     1      -2.606   5.239 -31.481  1.00  0.00    -0.305 N 
HETATM    2  C   UNL     1      -3.843   4.642 -31.554  1.00  0.00     0.320 C 
HETATM    3  N   UNL     1      -3.838   3.409 -30.937  1.00  0.00    -0.342 N 
HETATM    4  O   UNL     1      -4.846   5.122 -32.060  1.00  0.00    -0.247 OA
HETATM    5  H   UNL     1      -2.021   4.935 -30.718  1.00  0.00     0.171 HD
HETATM    6  H   UNL     1      -2.950   2.938 -30.850  1.00  0.00     0.164 HD
ENDROOT
BRANCH   3   7
HETATM    7  C   UNL     1      -5.023   2.563 -30.915  1.00  0.00     0.138 C 
BRANCH   7   8
HETATM    8  C   UNL     1      -4.874   1.217 -31.675  1.00  0.00     0.003 C 
HETATM    9  C   UNL     1      -3.569   1.245 -32.518  1.00  0.00     0.016 C 
HETATM   10  C   UNL     1      -3.252  -0.221 -32.812  1.00  0.00     0.001 C 
HETATM   11  C   UNL     1      -3.871  -1.010 -31.663  1.00  0.00     0.001 C 
HETATM   12  C   UNL     1      -4.498   0.037 -30.742  1.00  0.00     0.016 C 
BRANCH   8  13
HETATM   13  C   UNL     1      -6.144   0.961 -32.515  1.00  0.00    -0.048 A 
HETATM   14  C   UNL     1      -7.271   0.319 -31.971  1.00  0.00     0.008 A 
HETATM   15  C   UNL     1      -8.415   0.079 -32.740  1.00  0.00     0.001 A 
HETATM   16  C   UNL     1      -8.451   0.453 -34.078  1.00  0.00     0.000 A 
HETATM   17  C   UNL     1      -7.340   1.062 -34.649  1.00  0.00     0.001 A 
HETATM   18  C   UNL     1      -6.201   1.310 -33.879  1.00  0.00     0.008 A 
ENDBRANCH   8  13
ENDBRANCH   7   8
ENDBRANCH   3   7
BRANCH   1  19
HETATM   19  C   UNL     1      -2.247   6.417 -32.122  1.00  0.00     0.095 A 
HETATM   20  C   UNL     1      -1.975   6.499 -33.473  1.00  0.00     0.107 A 
HETATM   21  O   UNL     1      -1.656   7.779 -33.794  1.00  0.00    -0.215 OA
HETATM   22  N   UNL     1      -1.737   8.573 -32.673  1.00  0.00    -0.131 NA
HETATM   23  C   UNL     1      -2.099   7.762 -31.668  1.00  0.00     0.087 A 
HETATM   24  C   UNL     1      -2.328   8.362 -30.332  1.00  0.00     0.075 C 
BRANCH  20  25
HETATM   25  C   UNL     1      -1.930   5.534 -34.597  1.00  0.00     0.065 C 
HETATM   26  C   UNL     1      -3.314   5.272 -35.168  1.00  0.00     0.012 C 
ENDBRANCH  20  25
ENDBRANCH   1  19
TORSDOF 5
ENDMDL
MODEL 3
REMARK VINA RESULT:      -8.3      1.689      3.047
REMARK  5 active torsions:
REMARK  status: ('A' for Active; 'I' for Inactive)
REMARK    1  A    between atoms: C_2  and  C_3 
REMARK    2  A    between atoms: C_8  and  N_9 
REMARK       I    between atoms: N_9  and  C_10 
REMARK       I    between atoms: C_10  and  N_11 
REMARK    3  A    between atoms: N_11  and  C_12 
REMARK    4  A    between atoms: C_12  and  C_13 
REMARK    5  A    between atoms: C_13  and  C_14 
ROOT
HETATM    1  N   UNL     1     -10.767   1.763 -32.805  1.00  0.00    -0.305 N 
HETATM    2  C   UNL     1      -9.787   0.809 -32.664  1.00  0.00     0.320 C 
HETATM    3  N   UNL     1      -8.890   1.158 -31.678  1.00  0.00    -0.342 N 
HETATM    4  O   UNL     1      -9.708  -0.239 -33.288  1.00  0.00    -0.247 OA
HETATM    5  H   UNL     1     -10.939   2.334 -31.992  1.00  0.00     0.171 HD
HETATM    6  H   UNL     1      -8.808   2.139 -31.452  1.00  0.00     0.164 HD
ENDROOT
BRANCH   3   7
HETATM    7  C   UNL     1      -7.737   0.325 -31.366  1.00  0.00     0.138 C 
BRANCH   7   8
HETATM    8  C   UNL     1      -6.415   0.761 -32.055  1.00  0.00     0.003 C 
HETATM    9  C   UNL     1      -6.669   2.052 -32.882  1.00  0.00     0.016 C 
HETATM   10  C   UNL     1      -5.287   2.666 -33.098  1.00  0.00     0.001 C 
HETATM   11  C   UNL     1      -4.442   2.194 -31.917  1.00  0.00     0.001 C 
HETATM   12  C   UNL     1      -5.382   1.347 -31.059  1.00  0.00     0.016 C 
BRANCH   8  13
HETATM   13  C   UNL     1      -5.867  -0.411 -32.897  1.00  0.00    -0.048 A 
HETATM   14  C   UNL     1      -6.536  -0.869 -34.047  1.00  0.00     0.008 A 
HETATM   15  C   UNL     1      -6.042  -1.939 -34.800  1.00  0.00     0.001 A 
HETATM   16  C   UNL     1      -4.880  -2.594 -34.410  1.00  0.00     0.000 A 
HETATM   17  C   UNL     1      -4.215  -2.181 -33.261  1.00  0.00     0.001 A 
HETATM   18  C   UNL     1      -4.704  -1.107 -32.514  1.00  0.00     0.008 A 
ENDBRANCH   8  13
ENDBRANCH   7   8
ENDBRANCH   3   7
BRANCH   1  19
HETATM   19  C   UNL     1     -11.736   1.776 -33.800  1.00  0.00     0.095 A 
HETATM   20  C   UNL     1     -11.801   2.737 -34.789  1.00  0.00     0.107 A 
HETATM   21  O   UNL     1     -12.853   2.475 -35.607  1.00  0.00    -0.215 OA
HETATM   22  N   UNL     1     -13.486   1.326 -35.193  1.00  0.00    -0.131 NA
HETATM   23  C   UNL     1     -12.815   0.898 -34.115  1.00  0.00     0.087 A 
HETATM   24  C   UNL     1     -13.241  -0.375 -33.485  1.00  0.00     0.075 C 
BRANCH  20  25
HETATM   25  C   UNL     1     -11.025   3.954 -35.125  1.00  0.00     0.065 C 
HETATM   26  C   UNL     1     -11.931   5.157 -35.335  1.00  0.00     0.012 C 
ENDBRANCH  20  25
ENDBRANCH   1  19
TORSDOF 5
ENDMDL
MODEL 4
REMARK VINA RESULT:      -8.3      4.797      7.158
REMARK  5 active torsions:
REMARK  status: ('A' for Active; 'I' for Inactive)
REMARK    1  A    between atoms: C_2  and  C_3 
REMARK    2  A    between atoms: C_8  and  N_9 
REMARK       I    between atoms: N_9  and  C_10 
REMARK       I    between atoms: C_10  and  N_11 
REMARK    3  A    between atoms: N_11  and  C_12 
REMARK    4  A    between atoms: C_12  and  C_13 
REMARK    5  A    between atoms: C_13  and  C_14 
ROOT
HETATM    1  N   UNL     1      -4.010   5.015 -32.818  1.00  0.00    -0.305 N 
HETATM    2  C   UNL     1      -4.818   4.459 -33.781  1.00  0.00     0.320 C 
HETATM    3  N   UNL     1      -5.416   3.305 -33.324  1.00  0.00    -0.342 N 
HETATM    4  O   UNL     1      -5.030   4.916 -34.895  1.00  0.00    -0.247 OA
HETATM    5  H   UNL     1      -4.242   4.779 -31.865  1.00  0.00     0.171 HD
HETATM    6  H   UNL     1      -4.960   2.814 -32.569  1.00  0.00     0.164 HD
ENDROOT
BRANCH   3   7
HETATM    7  C   UNL     1      -6.290   2.511 -34.175  1.00  0.00     0.138 C 
BRANCH   7   8
HETATM    8  C   UNL     1      -7.008   1.337 -33.454  1.00  0.00     0.003 C 
HETATM    9  C   UNL     1      -7.126   1.660 -31.939  1.00  0.00     0.016 C 
HETATM   10  C   UNL     1      -8.233   0.744 -31.419  1.00  0.00     0.001 C 
HETATM   11  C   UNL     1      -9.136   0.476 -32.620  1.00  0.00     0.001 C 
HETATM   12  C   UNL     1      -8.524   1.269 -33.774  1.00  0.00     0.016 C 
BRANCH   8  13
HETATM   13  C   UNL     1      -6.255   0.021 -33.745  1.00  0.00    -0.048 A 
HETATM   14  C   UNL     1      -6.757  -0.932 -34.650  1.00  0.00     0.008 A 
HETATM   15  C   UNL     1      -6.077  -2.128 -34.902  1.00  0.00     0.001 A 
HETATM   16  C   UNL     1      -4.890  -2.412 -34.237  1.00  0.00     0.000 A 
HETATM   17  C   UNL     1      -4.386  -1.502 -33.316  1.00  0.00     0.001 A 
HETATM   18  C   UNL     1      -5.061  -0.303 -33.071  1.00  0.00     0.008 A 
ENDBRANCH   8  13
ENDBRANCH   7   8
ENDBRANCH   3   7
BRANCH   1  19
HETATM   19  C   UNL     1      -3.164   6.100 -33.009  1.00  0.00     0.095 A 
HETATM   20  C   UNL     1      -3.244   7.268 -32.278  1.00  0.00     0.107 A 
HETATM   21  O   UNL     1      -2.286   8.133 -32.698  1.00  0.00    -0.215 OA
HETATM   22  N   UNL     1      -1.537   7.547 -33.693  1.00  0.00    -0.131 NA
HETATM   23  C   UNL     1      -2.055   6.324 -33.877  1.00  0.00     0.087 A 
HETATM   24  C   UNL     1      -1.400   5.428 -34.860  1.00  0.00     0.075 C 
BRANCH  20  25
HETATM   25  C   UNL     1      -4.126   7.775 -31.200  1.00  0.00     0.065 C 
HETATM   26  C   UNL     1      -3.809   9.221 -30.849  1.00  0.00     0.012 C 
ENDBRANCH  20  25
ENDBRANCH   1  19
TORSDOF 5
ENDMDL
MODEL 5
REMARK VINA RESULT:      -8.3      5.188      7.959
REMARK  5 active torsions:
REMARK  status: ('A' for Active; 'I' for Inactive)
REMARK    1  A    between atoms: C_2  and  C_3 
REMARK    2  A    between atoms: C_8  and  N_9 
REMARK       I    between atoms: N_9  and  C_10 
REMARK       I    between atoms: C_10  and  N_11 
REMARK    3  A    between atoms: N_11  and  C_12 
REMARK    4  A    between atoms: C_12  and  C_13 
REMARK    5  A    between atoms: C_13  and  C_14 
ROOT
HETATM    1  N   UNL     1      -2.551   4.539 -31.027  1.00  0.00    -0.305 N 
HETATM    2  C   UNL     1      -2.883   3.672 -32.042  1.00  0.00     0.320 C 
HETATM    3  N   UNL     1      -3.218   2.431 -31.547  1.00  0.00    -0.342 N 
HETATM    4  O   UNL     1      -2.918   3.939 -33.234  1.00  0.00    -0.247 OA
HETATM    5  H   UNL     1      -2.946   4.323 -30.125  1.00  0.00     0.171 HD
HETATM    6  H   UNL     1      -2.854   2.179 -30.640  1.00  0.00     0.164 HD
ENDROOT
BRANCH   3   7
HETATM    7  C   UNL     1      -3.571   1.328 -32.430  1.00  0.00     0.138 C 
BRANCH   7   8
HETATM    8  C   UNL     1      -4.923   0.637 -32.099  1.00  0.00     0.003 C 
HETATM    9  C   UNL     1      -4.944   0.243 -30.596  1.00  0.00     0.016 C 
HETATM   10  C   UNL     1      -6.420   0.046 -30.255  1.00  0.00     0.001 C 
HETATM   11  C   UNL     1      -7.185   0.937 -31.230  1.00  0.00     0.001 C 
HETATM   12  C   UNL     1      -6.115   1.628 -32.074  1.00  0.00     0.016 C 
BRANCH   8  13
HETATM   13  C   UNL     1      -5.132  -0.560 -33.052  1.00  0.00    -0.048 A 
HETATM   14  C   UNL     1      -4.273  -1.675 -33.035  1.00  0.00     0.008 A 
HETATM   15  C   UNL     1      -4.460  -2.751 -33.909  1.00  0.00     0.001 A 
HETATM   16  C   UNL     1      -5.493  -2.729 -34.837  1.00  0.00     0.000 A 
HETATM   17  C   UNL     1      -6.338  -1.627 -34.896  1.00  0.00     0.001 A 
HETATM   18  C   UNL     1      -6.157  -0.556 -34.017  1.00  0.00     0.008 A 
ENDBRANCH   8  13
ENDBRANCH   7   8
ENDBRANCH   3   7
BRANCH   1  19
HETATM   19  C   UNL     1      -2.037   5.817 -31.201  1.00  0.00     0.095 A 
HETATM   20  C   UNL     1      -0.686   6.101 -31.208  1.00  0.00     0.107 A 
HETATM   21  O   UNL     1      -0.504   7.433 -31.399  1.00  0.00    -0.215 OA
HETATM   22  N   UNL     1      -1.724   8.051 -31.550  1.00  0.00    -0.131 NA
HETATM   23  C   UNL     1      -2.647   7.084 -31.440  1.00  0.00     0.087 A 
HETATM   24  C   UNL     1      -4.071   7.452 -31.627  1.00  0.00     0.075 C 
BRANCH  20  25
HETATM   25  C   UNL     1       0.556   5.311 -31.032  1.00  0.00     0.065 C 
HETATM   26  C   UNL     1       0.763   4.906 -29.581  1.00  0.00     0.012 C 
ENDBRANCH  20  25
ENDBRANCH   1  19
TORSDOF 5
ENDMDL
MODEL 6
REMARK VINA RESULT:      -8.2      5.175      7.898
REMARK  5 active torsions:
REMARK  status: ('A' for Active; 'I' for Inactive)
REMARK    1  A    between atoms: C_2  and  C_3 
REMARK    2  A    between atoms: C_8  and  N_9 
REMARK       I    between atoms: N_9  and  C_10 
REMARK       I    between atoms: C_10  and  N_11 
REMARK    3  A    between atoms: N_11  and  C_12 
REMARK    4  A    between atoms: C_12  and  C_13 
REMARK    5  A    between atoms: C_13  and  C_14 
ROOT
HETATM    1  N   UNL     1      -2.725   5.144 -31.642  1.00  0.00    -0.305 N 
HETATM    2  C   UNL     1      -3.919   4.475 -31.780  1.00  0.00     0.320 C 
HETATM    3  N   UNL     1      -3.971   3.374 -30.953  1.00  0.00    -0.342 N 
HETATM    4  O   UNL     1      -4.848   4.801 -32.505  1.00  0.00    -0.247 OA
HETATM    5  H   UNL     1      -2.253   5.015 -30.760  1.00  0.00     0.171 HD
HETATM    6  H   UNL     1      -3.093   2.976 -30.654  1.00  0.00     0.164 HD
ENDROOT
BRANCH   3   7
HETATM    7  C   UNL     1      -5.121   2.481 -30.945  1.00  0.00     0.138 C 
BRANCH   7   8
HETATM    8  C   UNL     1      -4.909   1.144 -31.707  1.00  0.00     0.003 C 
HETATM    9  C   UNL     1      -3.568   1.205 -32.489  1.00  0.00     0.016 C 
HETATM   10  C   UNL     1      -3.208  -0.251 -32.780  1.00  0.00     0.001 C 
HETATM   11  C   UNL     1      -3.863  -1.062 -31.665  1.00  0.00     0.001 C 
HETATM   12  C   UNL     1      -4.552  -0.036 -30.767  1.00  0.00     0.016 C 
BRANCH   8  13
HETATM   13  C   UNL     1      -6.134   0.870 -32.607  1.00  0.00    -0.048 A 
HETATM   14  C   UNL     1      -6.181   1.309 -33.943  1.00  0.00     0.008 A 
HETATM   15  C   UNL     1      -7.297   1.069 -34.750  1.00  0.00     0.001 A 
HETATM   16  C   UNL     1      -8.404   0.405 -34.236  1.00  0.00     0.000 A 
HETATM   17  C   UNL     1      -8.397  -0.014 -32.911  1.00  0.00     0.001 A 
HETATM   18  C   UNL     1      -7.278   0.218 -32.107  1.00  0.00     0.008 A 
ENDBRANCH   8  13
ENDBRANCH   7   8
ENDBRANCH   3   7
BRANCH   1  19
HETATM   19  C   UNL     1      -2.307   6.208 -32.430  1.00  0.00     0.095 A 
HETATM   20  C   UNL     1      -2.052   7.471 -31.934  1.00  0.00     0.107 A 
HETATM   21  O   UNL     1      -1.662   8.286 -32.947  1.00  0.00    -0.215 OA
HETATM   22  N   UNL     1      -1.624   7.576 -34.125  1.00  0.00    -0.131 NA
HETATM   23  C   UNL     1      -2.002   6.326 -33.819  1.00  0.00     0.087 A 
HETATM   24  C   UNL     1      -1.994   5.309 -34.897  1.00  0.00     0.075 C 
BRANCH  20  25
HETATM   25  C   UNL     1      -2.133   8.113 -30.601  1.00  0.00     0.065 C 
HETATM   26  C   UNL     1      -2.615   9.552 -30.698  1.00  0.00     0.012 C 
ENDBRANCH  20  25
ENDBRANCH   1  19
TORSDOF 5
ENDMDL
MODEL 7
REMARK VINA RESULT:      -8.0      1.555      1.939
REMARK  5 active torsions:
REMARK  status: ('A' for Active; 'I' for Inactive)
REMARK    1  A    between atoms: C_2  and  C_3 
REMARK    2  A    between atoms: C_8  and  N_9 
REMARK       I    between atoms: N_9  and  C_10 
REMARK       I    between atoms: C_10  and  N_11 
REMARK    3  A    between atoms: N_11  and  C_12 
REMARK    4  A    between atoms: C_12  and  C_13 
REMARK    5  A    between atoms: C_13  and  C_14 
ROOT
HETATM    1  N   UNL     1     -10.192   2.543 -33.707  1.00  0.00    -0.305 N 
HETATM    2  C   UNL     1      -9.763   1.239 -33.794  1.00  0.00     0.320 C 
HETATM    3  N   UNL     1      -8.606   1.143 -34.535  1.00  0.00    -0.342 N 
HETATM    4  O   UNL     1     -10.294   0.270 -33.269  1.00  0.00    -0.247 OA
HETATM    5  H   UNL     1      -9.476   3.244 -33.823  1.00  0.00     0.171 HD
HETATM    6  H   UNL     1      -8.417   1.880 -35.198  1.00  0.00     0.164 HD
ENDROOT
BRANCH   3   7
HETATM    7  C   UNL     1      -7.976  -0.142 -34.802  1.00  0.00     0.138 C 
BRANCH   7   8
HETATM    8  C   UNL     1      -6.813  -0.508 -33.840  1.00  0.00     0.003 C 
HETATM    9  C   UNL     1      -5.723   0.598 -33.908  1.00  0.00     0.016 C 
HETATM   10  C   UNL     1      -4.905   0.431 -32.629  1.00  0.00     0.001 C 
HETATM   11  C   UNL     1      -5.857  -0.196 -31.614  1.00  0.00     0.001 C 
HETATM   12  C   UNL     1      -7.192  -0.341 -32.346  1.00  0.00     0.016 C 
BRANCH   8  13
HETATM   13  C   UNL     1      -6.283  -1.915 -34.191  1.00  0.00    -0.048 A 
HETATM   14  C   UNL     1      -7.156  -2.988 -34.454  1.00  0.00     0.008 A 
HETATM   15  C   UNL     1      -6.671  -4.264 -34.760  1.00  0.00     0.001 A 
HETATM   16  C   UNL     1      -5.303  -4.506 -34.786  1.00  0.00     0.000 A 
HETATM   17  C   UNL     1      -4.419  -3.472 -34.501  1.00  0.00     0.001 A 
HETATM   18  C   UNL     1      -4.903  -2.195 -34.204  1.00  0.00     0.008 A 
ENDBRANCH   8  13
ENDBRANCH   7   8
ENDBRANCH   3   7
BRANCH   1  19
HETATM   19  C   UNL     1     -11.394   2.956 -33.149  1.00  0.00     0.095 A 
HETATM   20  C   UNL     1     -12.630   2.617 -33.663  1.00  0.00     0.107 A 
HETATM   21  O   UNL     1     -13.606   3.170 -32.898  1.00  0.00    -0.215 OA
HETATM   22  N   UNL     1     -13.040   3.861 -31.852  1.00  0.00    -0.131 NA
HETATM   23  C   UNL     1     -11.713   3.728 -31.993  1.00  0.00     0.087 A 
HETATM   24  C   UNL     1     -10.836   4.325 -30.957  1.00  0.00     0.075 C 
BRANCH  20  25
HETATM   25  C   UNL     1     -13.105   1.838 -34.831  1.00  0.00     0.065 C 
HETATM   26  C   UNL     1     -13.758   0.531 -34.407  1.00  0.00     0.012 C 
ENDBRANCH  20  25
ENDBRANCH   1  19
TORSDOF 5
ENDMDL
MODEL 8
REMARK VINA RESULT:      -8.0      1.541      1.987
REMARK  5 active torsions:
REMARK  status: ('A' for Active; 'I' for Inactive)
REMARK    1  A    between atoms: C_2  and  C_3 
REMARK    2  A    between atoms: C_8  and  N_9 
REMARK       I    between atoms: N_9  and  C_10 
REMARK       I    between atoms: C_10  and  N_11 
REMARK    3  A    between atoms: N_11  and  C_12 
REMARK    4  A    between atoms: C_12  and  C_13 
REMARK    5  A    between atoms: C_13  and  C_14 
ROOT
HETATM    1  N   UNL     1     -10.533   2.262 -33.077  1.00  0.00    -0.305 N 
HETATM    2  C   UNL     1      -9.664   1.206 -32.935  1.00  0.00     0.320 C 
HETATM    3  N   UNL     1      -8.878   1.355 -31.813  1.00  0.00    -0.342 N 
HETATM    4  O   UNL     1      -9.591   0.230 -33.668  1.00  0.00    -0.247 OA
HETATM    5  H   UNL     1     -10.761   2.754 -32.227  1.00  0.00     0.171 HD
HETATM    6  H   UNL     1      -8.744   2.291 -31.461  1.00  0.00     0.164 HD
ENDROOT
BRANCH   3   7
HETATM    7  C   UNL     1      -7.851   0.382 -31.467  1.00  0.00     0.138 C 
BRANCH   7   8
HETATM    8  C   UNL     1      -6.420   0.750 -31.949  1.00  0.00     0.003 C 
HETATM    9  C   UNL     1      -6.473   2.085 -32.742  1.00  0.00     0.016 C 
HETATM   10  C   UNL     1      -5.038   2.608 -32.739  1.00  0.00     0.001 C 
HETATM   11  C   UNL     1      -4.398   2.035 -31.477  1.00  0.00     0.001 C 
HETATM   12  C   UNL     1      -5.500   1.225 -30.795  1.00  0.00     0.016 C 
BRANCH   8  13
HETATM   13  C   UNL     1      -5.837  -0.426 -32.762  1.00  0.00    -0.048 A 
HETATM   14  C   UNL     1      -4.662  -1.089 -32.361  1.00  0.00     0.008 A 
HETATM   15  C   UNL     1      -4.130  -2.146 -33.107  1.00  0.00     0.001 A 
HETATM   16  C   UNL     1      -4.746  -2.551 -34.286  1.00  0.00     0.000 A 
HETATM   17  C   UNL     1      -5.890  -1.894 -34.721  1.00  0.00     0.001 A 
HETATM   18  C   UNL     1      -6.426  -0.844 -33.971  1.00  0.00     0.008 A 
ENDBRANCH   8  13
ENDBRANCH   7   8
ENDBRANCH   3   7
BRANCH   1  19
HETATM   19  C   UNL     1     -11.357   2.480 -34.172  1.00  0.00     0.095 A 
HETATM   20  C   UNL     1     -12.462   1.704 -34.462  1.00  0.00     0.107 A 
HETATM   21  O   UNL     1     -13.059   2.169 -35.590  1.00  0.00    -0.215 OA
HETATM   22  N   UNL     1     -12.380   3.273 -36.053  1.00  0.00    -0.131 NA
HETATM   23  C   UNL     1     -11.364   3.469 -35.201  1.00  0.00     0.087 A 
HETATM   24  C   UNL     1     -10.487   4.645 -35.417  1.00  0.00     0.075 C 
BRANCH  20  25
HETATM   25  C   UNL     1     -13.098   0.511 -33.855  1.00  0.00     0.065 C 
HETATM   26  C   UNL     1     -14.604   0.508 -34.065  1.00  0.00     0.012 C 
ENDBRANCH  20  25
ENDBRANCH   1  19
TORSDOF 5
ENDMDL
MODEL 9
REMARK VINA RESULT:      -8.0      2.025      2.380
REMARK  5 active torsions:
REMARK  status: ('A' for Active; 'I' for Inactive)
REMARK    1  A    between atoms: C_2  and  C_3 
REMARK    2  A    between atoms: C_8  and  N_9 
REMARK       I    between atoms: N_9  and  C_10 
REMARK       I    between atoms: C_10  and  N_11 
REMARK    3  A    between atoms: N_11  and  C_12 
REMARK    4  A    between atoms: C_12  and  C_13 
REMARK    5  A    between atoms: C_13  and  C_14 
ROOT
HETATM    1  N   UNL     1      -9.943   2.534 -33.923  1.00  0.00    -0.305 N 
HETATM    2  C   UNL     1      -8.623   2.233 -34.168  1.00  0.00     0.320 C 
HETATM    3  N   UNL     1      -8.484   0.944 -34.635  1.00  0.00    -0.342 N 
HETATM    4  O   UNL     1      -7.675   2.993 -34.034  1.00  0.00    -0.247 OA
HETATM    5  H   UNL     1     -10.616   1.992 -34.443  1.00  0.00     0.171 HD
HETATM    6  H   UNL     1      -9.215   0.287 -34.406  1.00  0.00     0.164 HD
ENDROOT
BRANCH   3   7
HETATM    7  C   UNL     1      -7.175   0.378 -34.931  1.00  0.00     0.138 C 
BRANCH   7   8
HETATM    8  C   UNL     1      -6.474  -0.302 -33.723  1.00  0.00     0.003 C 
HETATM    9  C   UNL     1      -5.241   0.544 -33.301  1.00  0.00     0.016 C 
HETATM   10  C   UNL     1      -4.927   0.108 -31.872  1.00  0.00     0.001 C 
HETATM   11  C   UNL     1      -6.254  -0.374 -31.292  1.00  0.00     0.001 C 
HETATM   12  C   UNL     1      -7.281  -0.172 -32.406  1.00  0.00     0.016 C 
BRANCH   8  13
HETATM   13  C   UNL     1      -6.122  -1.760 -34.092  1.00  0.00    -0.048 A 
HETATM   14  C   UNL     1      -4.788  -2.201 -34.164  1.00  0.00     0.008 A 
HETATM   15  C   UNL     1      -4.474  -3.519 -34.510  1.00  0.00     0.001 A 
HETATM   16  C   UNL     1      -5.484  -4.423 -34.816  1.00  0.00     0.000 A 
HETATM   17  C   UNL     1      -6.810  -4.007 -34.781  1.00  0.00     0.001 A 
HETATM   18  C   UNL     1      -7.124  -2.692 -34.427  1.00  0.00     0.008 A 
ENDBRANCH   8  13
ENDBRANCH   7   8
ENDBRANCH   3   7
BRANCH   1  19
HETATM   19  C   UNL     1     -10.401   3.697 -33.320  1.00  0.00     0.095 A 
HETATM   20  C   UNL     1     -10.347   3.923 -31.959  1.00  0.00     0.107 A 
HETATM   21  O   UNL     1     -10.869   5.146 -31.681  1.00  0.00    -0.215 OA
HETATM   22  N   UNL     1     -11.252   5.762 -32.850  1.00  0.00    -0.131 NA
HETATM   23  C   UNL     1     -10.966   4.901 -33.837  1.00  0.00     0.087 A 
HETATM   24  C   UNL     1     -11.217   5.329 -35.234  1.00  0.00     0.075 C 
BRANCH  20  25
HETATM   25  C   UNL     1      -9.889   3.148 -30.782  1.00  0.00     0.065 C 
HETATM   26  C   UNL     1      -8.376   3.191 -30.634  1.00  0.00     0.012 C 
ENDBRANCH  20  25
ENDBRANCH   1  19
TORSDOF 5
ENDMDL
MODEL 10
REMARK VINA RESULT:      -7.9      2.792      7.475
REMARK  5 active torsions:
REMARK  status: ('A' for Active; 'I' for Inactive)
REMARK    1  A    between atoms: C_2  and  C_3 
REMARK    2  A    between atoms: C_8  and  N_9 
REMARK       I    between atoms: N_9  and  C_10 
REMARK       I    between atoms: C_10  and  N_11 
REMARK    3  A    between atoms: N_11  and  C_12 
REMARK    4  A    between atoms: C_12  and  C_13 
REMARK    5  A    between atoms: C_13  and  C_14 
ROOT
HETATM    1  N   UNL     1      -5.337  -0.518 -33.901  1.00  0.00    -0.305 N 
HETATM    2  C   UNL     1      -6.697  -0.638 -34.063  1.00  0.00     0.320 C 
HETATM    3  N   UNL     1      -7.240   0.516 -34.584  1.00  0.00    -0.342 N 
HETATM    4  O   UNL     1      -7.367  -1.631 -33.819  1.00  0.00    -0.247 OA
HETATM    5  H   UNL     1      -4.885   0.158 -34.497  1.00  0.00     0.171 HD
HETATM    6  H   UNL     1      -6.727   1.374 -34.445  1.00  0.00     0.164 HD
ENDROOT
BRANCH   3   7
HETATM    7  C   UNL     1      -8.672   0.650 -34.812  1.00  0.00     0.138 C 
BRANCH   7   8
HETATM    8  C   UNL     1      -9.411   1.550 -33.784  1.00  0.00     0.003 C 
HETATM    9  C   UNL     1      -8.985   1.145 -32.346  1.00  0.00     0.016 C 
HETATM   10  C   UNL     1      -9.342   2.345 -31.471  1.00  0.00     0.001 C 
HETATM   11  C   UNL     1      -9.285   3.556 -32.398  1.00  0.00     0.001 C 
HETATM   12  C   UNL     1      -8.874   3.005 -33.762  1.00  0.00     0.016 C 
BRANCH   8  13
HETATM   13  C   UNL     1     -10.933   1.456 -34.025  1.00  0.00    -0.048 A 
HETATM   14  C   UNL     1     -11.704   0.416 -33.472  1.00  0.00     0.008 A 
HETATM   15  C   UNL     1     -13.081   0.329 -33.703  1.00  0.00     0.001 A 
HETATM   16  C   UNL     1     -13.718   1.263 -34.510  1.00  0.00     0.000 A 
HETATM   17  C   UNL     1     -12.975   2.283 -35.093  1.00  0.00     0.001 A 
HETATM   18  C   UNL     1     -11.601   2.376 -34.856  1.00  0.00     0.008 A 
ENDBRANCH   8  13
ENDBRANCH   7   8
ENDBRANCH   3   7
BRANCH   1  19
HETATM   19  C   UNL     1      -4.519  -1.449 -33.273  1.00  0.00     0.095 A 
HETATM   20  C   UNL     1      -4.272  -2.711 -33.776  1.00  0.00     0.107 A 
HETATM   21  O   UNL     1      -3.438  -3.378 -32.938  1.00  0.00    -0.215 OA
HETATM   22  N   UNL     1      -3.095  -2.566 -31.882  1.00  0.00    -0.131 NA
HETATM   23  C   UNL     1      -3.734  -1.404 -32.082  1.00  0.00     0.087 A 
HETATM   24  C   UNL     1      -3.498  -0.300 -31.121  1.00  0.00     0.075 C 
BRANCH  20  25
HETATM   25  C   UNL     1      -4.720  -3.474 -34.965  1.00  0.00     0.065 C 
HETATM   26  C   UNL     1      -5.622  -4.636 -34.578  1.00  0.00     0.012 C 
ENDBRANCH  20  25
ENDBRANCH   1  19
TORSDOF 5
ENDMDL
