MODEL 1
REMARK VINA RESULT:      -9.4      0.000      0.000
REMARK  7 active torsions:
REMARK  status: ('A' for Active; 'I' for Inactive)
REMARK    1  A    between atoms: S_2  and  C_3 
REMARK    2  A    between atoms: C_3  and  C_4 
REMARK    3  A    between atoms: C_4  and  C_5 
REMARK    4  A    between atoms: C_5  and  N_6 
REMARK    5  A    between atoms: C_5  and  C_26 
REMARK       I    between atoms: N_6  and  C_7 
REMARK    6  A    between atoms: C_7  and  C_8 
REMARK    7  A    between atoms: C_8  and  N_9 
ROOT
HETATM    1  N   UNL     1      -4.351   4.404 -33.150  1.00  0.00    -0.348 N 
HETATM    2  C   UNL     1      -3.744   5.022 -34.223  1.00  0.00     0.236 C 
HETATM    3  O   UNL     1      -4.373   5.301 -35.247  1.00  0.00    -0.272 OA
HETATM    4  H   UNL     1      -3.776   3.779 -32.588  1.00  0.00     0.163 HD
ENDROOT
BRANCH   2   5
HETATM    5  C   UNL     1      -2.222   5.146 -34.188  1.00  0.00     0.239 C 
BRANCH   5   6
HETATM    6  N   UNL     1      -1.670   5.918 -33.095  1.00  0.00    -0.259 N 
HETATM    7  C   UNL     1      -1.529   7.266 -33.115  1.00  0.00     0.326 A 
HETATM    8  O   UNL     1      -1.665   7.991 -34.087  1.00  0.00    -0.247 OA
HETATM    9  N   UNL     1      -1.193   7.700 -31.860  1.00  0.00    -0.320 N 
HETATM   10  C   UNL     1      -1.109   6.617 -30.898  1.00  0.00     0.144 A 
HETATM   11  H   UNL     1      -1.141   8.683 -31.633  1.00  0.00     0.165 HD
HETATM   12  C   UNL     1      -2.133   6.813 -29.785  1.00  0.00    -0.014 A 
HETATM   13  C   UNL     1       0.328   6.472 -30.376  1.00  0.00     0.047 C 
HETATM   14  C   UNL     1      -1.433   5.428 -31.837  1.00  0.00     0.261 A 
HETATM   15  C   UNL     1      -1.728   7.224 -28.495  1.00  0.00    -0.049 A 
HETATM   16  C   UNL     1      -3.509   6.624 -30.024  1.00  0.00     0.011 A 
HETATM   17  C   UNL     1      -2.688   7.394 -27.483  1.00  0.00     0.007 A 
HETATM   18  C   UNL     1      -0.275   7.421 -28.136  1.00  0.00     0.039 C 
HETATM   19  C   UNL     1      -4.040   7.181 -27.738  1.00  0.00     0.001 A 
HETATM   20  C   UNL     1      -4.451   6.800 -29.009  1.00  0.00     0.001 A 
HETATM   21  C   UNL     1       0.640   7.556 -29.347  1.00  0.00     0.008 C 
HETATM   22  O   UNL     1      -1.501   4.251 -31.508  1.00  0.00    -0.270 OA
ENDBRANCH   5   6
ENDBRANCH   2   5
BRANCH   1  23
HETATM   23  C   UNL     1      -5.789   4.137 -33.172  1.00  0.00     0.155 C 
BRANCH  23  24
HETATM   24  C   UNL     1      -6.466   4.541 -31.853  1.00  0.00     0.043 C 
BRANCH  24  25
HETATM   25  C   UNL     1      -7.982   4.357 -31.830  1.00  0.00     0.076 C 
BRANCH  25  26
HETATM   26  S   UNL     1      -8.629   3.230 -30.545  1.00  0.00    -0.173 SA
HETATM   27  C   UNL     1      -9.073   1.800 -31.566  1.00  0.00     0.089 C 
ENDBRANCH  25  26
ENDBRANCH  24  25
ENDBRANCH  23  24
BRANCH  23  28
HETATM   28  C   UNL     1      -6.016   2.676 -33.467  1.00  0.00     0.128 A 
HETATM   29  N   UNL     1      -6.794   2.147 -34.393  1.00  0.00    -0.231 NA
HETATM   30  C   UNL     1      -6.559   0.793 -34.345  1.00  0.00     0.085 A 
HETATM   31  C   UNL     1      -5.647   0.482 -33.342  1.00  0.00     0.062 A 
HETATM   32  C   UNL     1      -7.081  -0.237 -35.140  1.00  0.00     0.034 A 
HETATM   33  N   UNL     1      -5.319   1.695 -32.798  1.00  0.00    -0.341 N 
HETATM   34  C   UNL     1      -5.230  -0.822 -33.064  1.00  0.00     0.032 A 
HETATM   35  H   UNL     1      -4.660   1.869 -32.048  1.00  0.00     0.167 HD
HETATM   36  C   UNL     1      -5.763  -1.838 -33.867  1.00  0.00     0.002 A 
HETATM   37  C   UNL     1      -6.669  -1.553 -34.892  1.00  0.00     0.002 A 
ENDBRANCH  23  28
ENDBRANCH   1  23
TORSDOF 7
ENDMDL
MODEL 2
REMARK VINA RESULT:      -9.3      5.575      9.249
REMARK  7 active torsions:
REMARK  status: ('A' for Active; 'I' for Inactive)
REMARK    1  A    between atoms: S_2  and  C_3 
REMARK    2  A    between atoms: C_3  and  C_4 
REMARK    3  A    between atoms: C_4  and  C_5 
REMARK    4  A    between atoms: C_5  and  N_6 
REMARK    5  A    between atoms: C_5  and  C_26 
REMARK       I    between atoms: N_6  and  C_7 
REMARK    6  A    between atoms: C_7  and  C_8 
REMARK    7  A    between atoms: C_8  and  N_9 
ROOT
HETATM    1  N   UNL     1     -10.734   2.733 -32.780  1.00  0.00    -0.348 N 
HETATM    2  C   UNL     1     -10.143   2.571 -34.016  1.00  0.00     0.236 C 
HETATM    3  O   UNL     1     -10.127   3.483 -34.846  1.00  0.00    -0.272 OA
HETATM    4  H   UNL     1     -11.154   1.909 -32.355  1.00  0.00     0.163 HD
ENDROOT
BRANCH   2   5
HETATM    5  C   UNL     1      -9.711   1.158 -34.404  1.00  0.00     0.239 C 
BRANCH   5   6
HETATM    6  N   UNL     1      -8.490   0.676 -33.794  1.00  0.00    -0.259 N 
HETATM    7  C   UNL     1      -8.408   0.219 -32.520  1.00  0.00     0.326 A 
HETATM    8  O   UNL     1      -9.272   0.314 -31.664  1.00  0.00    -0.247 OA
HETATM    9  N   UNL     1      -7.183  -0.364 -32.331  1.00  0.00    -0.320 N 
HETATM   10  C   UNL     1      -6.362  -0.340 -33.526  1.00  0.00     0.144 A 
HETATM   11  H   UNL     1      -6.956  -0.859 -31.480  1.00  0.00     0.165 HD
HETATM   12  C   UNL     1      -6.039  -1.760 -33.979  1.00  0.00    -0.014 A 
HETATM   13  C   UNL     1      -5.109   0.520 -33.302  1.00  0.00     0.047 C 
HETATM   14  C   UNL     1      -7.331   0.410 -34.475  1.00  0.00     0.261 A 
HETATM   15  C   UNL     1      -4.747  -2.300 -33.796  1.00  0.00    -0.049 A 
HETATM   16  C   UNL     1      -7.029  -2.579 -34.558  1.00  0.00     0.011 A 
HETATM   17  C   UNL     1      -4.470  -3.609 -34.225  1.00  0.00     0.007 A 
HETATM   18  C   UNL     1      -3.614  -1.489 -33.214  1.00  0.00     0.039 C 
HETATM   19  C   UNL     1      -5.459  -4.392 -34.812  1.00  0.00     0.001 A 
HETATM   20  C   UNL     1      -6.740  -3.879 -34.975  1.00  0.00     0.001 A 
HETATM   21  C   UNL     1      -4.075  -0.239 -32.475  1.00  0.00     0.008 C 
HETATM   22  O   UNL     1      -7.117   0.687 -35.648  1.00  0.00    -0.270 OA
ENDBRANCH   5   6
ENDBRANCH   2   5
BRANCH   1  23
HETATM   23  C   UNL     1     -11.286   4.031 -32.393  1.00  0.00     0.155 C 
BRANCH  23  24
HETATM   24  C   UNL     1     -10.621   4.579 -31.120  1.00  0.00     0.043 C 
BRANCH  24  25
HETATM   25  C   UNL     1      -9.627   3.626 -30.458  1.00  0.00     0.076 C 
BRANCH  25  26
HETATM   26  S   UNL     1      -7.922   4.257 -30.271  1.00  0.00    -0.173 SA
HETATM   27  C   UNL     1      -7.141   3.508 -31.724  1.00  0.00     0.089 C 
ENDBRANCH  25  26
ENDBRANCH  24  25
ENDBRANCH  23  24
BRANCH  23  28
HETATM   28  C   UNL     1     -12.776   3.897 -32.206  1.00  0.00     0.128 A 
HETATM   29  N   UNL     1     -13.656   4.857 -31.986  1.00  0.00    -0.231 NA
HETATM   30  C   UNL     1     -14.887   4.247 -32.018  1.00  0.00     0.085 A 
HETATM   31  C   UNL     1     -14.758   2.877 -32.223  1.00  0.00     0.062 A 
HETATM   32  C   UNL     1     -16.168   4.803 -31.892  1.00  0.00     0.034 A 
HETATM   33  N   UNL     1     -13.408   2.681 -32.338  1.00  0.00    -0.341 N 
HETATM   34  C   UNL     1     -15.848   2.007 -32.293  1.00  0.00     0.032 A 
HETATM   35  H   UNL     1     -12.931   1.803 -32.515  1.00  0.00     0.167 HD
HETATM   36  C   UNL     1     -17.120   2.580 -32.163  1.00  0.00     0.002 A 
HETATM   37  C   UNL     1     -17.280   3.955 -31.971  1.00  0.00     0.002 A 
ENDBRANCH  23  28
ENDBRANCH   1  23
TORSDOF 7
ENDMDL
MODEL 3
REMARK VINA RESULT:      -8.8      2.252      4.495
REMARK  7 active torsions:
REMARK  status: ('A' for Active; 'I' for Inactive)
REMARK    1  A    between atoms: S_2  and  C_3 
REMARK    2  A    between atoms: C_3  and  C_4 
REMARK    3  A    between atoms: C_4  and  C_5 
REMARK    4  A    between atoms: C_5  and  N_6 
REMARK    5  A    between atoms: C_5  and  C_26 
REMARK       I    between atoms: N_6  and  C_7 
REMARK    6  A    between atoms: C_7  and  C_8 
REMARK    7  A    between atoms: C_8  and  N_9 
ROOT
HETATM    1  N   UNL     1      -6.895   1.639 -32.947  1.00  0.00    -0.348 N 
HETATM    2  C   UNL     1      -7.098   2.996 -33.078  1.00  0.00     0.236 C 
HETATM    3  O   UNL     1      -7.105   3.543 -34.184  1.00  0.00    -0.272 OA
HETATM    4  H   UNL     1      -6.425   1.319 -32.104  1.00  0.00     0.163 HD
ENDROOT
BRANCH   2   5
HETATM    5  C   UNL     1      -7.090   3.830 -31.798  1.00  0.00     0.239 C 
BRANCH   5   6
HETATM    6  N   UNL     1      -5.804   4.350 -31.385  1.00  0.00    -0.259 N 
HETATM    7  C   UNL     1      -4.856   3.615 -30.755  1.00  0.00     0.326 A 
HETATM    8  O   UNL     1      -5.002   2.496 -30.290  1.00  0.00    -0.247 OA
HETATM    9  N   UNL     1      -3.690   4.333 -30.708  1.00  0.00    -0.320 N 
HETATM   10  C   UNL     1      -3.805   5.629 -31.347  1.00  0.00     0.144 A 
HETATM   11  H   UNL     1      -2.829   3.926 -30.370  1.00  0.00     0.165 HD
HETATM   12  C   UNL     1      -2.843   5.730 -32.525  1.00  0.00    -0.014 A 
HETATM   13  C   UNL     1      -3.618   6.755 -30.318  1.00  0.00     0.047 C 
HETATM   14  C   UNL     1      -5.296   5.565 -31.766  1.00  0.00     0.261 A 
HETATM   15  C   UNL     1      -1.673   6.517 -32.437  1.00  0.00    -0.049 A 
HETATM   16  C   UNL     1      -3.077   5.013 -33.716  1.00  0.00     0.011 A 
HETATM   17  C   UNL     1      -0.802   6.599 -33.537  1.00  0.00     0.007 A 
HETATM   18  C   UNL     1      -1.353   7.344 -31.215  1.00  0.00     0.039 C 
HETATM   19  C   UNL     1      -1.065   5.898 -34.710  1.00  0.00     0.001 A 
HETATM   20  C   UNL     1      -2.201   5.101 -34.799  1.00  0.00     0.001 A 
HETATM   21  C   UNL     1      -2.141   6.933 -29.977  1.00  0.00     0.008 C 
HETATM   22  O   UNL     1      -5.911   6.435 -32.370  1.00  0.00    -0.270 OA
ENDBRANCH   5   6
ENDBRANCH   2   5
BRANCH   1  23
HETATM   23  C   UNL     1      -6.765   0.797 -34.136  1.00  0.00     0.155 C 
BRANCH  23  24
HETATM   24  C   UNL     1      -8.124   0.256 -34.606  1.00  0.00     0.043 C 
BRANCH  24  25
HETATM   25  C   UNL     1      -9.079  -0.139 -33.480  1.00  0.00     0.076 C 
BRANCH  25  26
HETATM   26  S   UNL     1     -10.469   1.007 -33.175  1.00  0.00    -0.173 SA
HETATM   27  C   UNL     1     -10.337   2.069 -34.637  1.00  0.00     0.089 C 
ENDBRANCH  25  26
ENDBRANCH  24  25
ENDBRANCH  23  24
BRANCH  23  28
HETATM   28  C   UNL     1      -5.811  -0.333 -33.839  1.00  0.00     0.128 A 
HETATM   29  N   UNL     1      -4.918  -0.407 -32.869  1.00  0.00    -0.231 NA
HETATM   30  C   UNL     1      -4.395  -1.676 -32.943  1.00  0.00     0.085 A 
HETATM   31  C   UNL     1      -4.950  -2.382 -34.005  1.00  0.00     0.062 A 
HETATM   32  C   UNL     1      -3.446  -2.304 -32.124  1.00  0.00     0.034 A 
HETATM   33  N   UNL     1      -5.845  -1.506 -34.559  1.00  0.00    -0.341 N 
HETATM   34  C   UNL     1      -4.596  -3.696 -34.320  1.00  0.00     0.032 A 
HETATM   35  H   UNL     1      -6.458  -1.677 -35.349  1.00  0.00     0.167 HD
HETATM   36  C   UNL     1      -3.646  -4.307 -33.493  1.00  0.00     0.002 A 
HETATM   37  C   UNL     1      -3.083  -3.627 -32.409  1.00  0.00     0.002 A 
ENDBRANCH  23  28
ENDBRANCH   1  23
TORSDOF 7
ENDMDL
MODEL 4
REMARK VINA RESULT:      -8.7      3.489      7.706
REMARK  7 active torsions:
REMARK  status: ('A' for Active; 'I' for Inactive)
REMARK    1  A    between atoms: S_2  and  C_3 
REMARK    2  A    between atoms: C_3  and  C_4 
REMARK    3  A    between atoms: C_4  and  C_5 
REMARK    4  A    between atoms: C_5  and  N_6 
REMARK    5  A    between atoms: C_5  and  C_26 
REMARK       I    between atoms: N_6  and  C_7 
REMARK    6  A    between atoms: C_7  and  C_8 
REMARK    7  A    between atoms: C_8  and  N_9 
ROOT
HETATM    1  N   UNL     1      -5.487   4.018 -31.834  1.00  0.00    -0.348 N 
HETATM    2  C   UNL     1      -6.264   4.578 -30.842  1.00  0.00     0.236 C 
HETATM    3  O   UNL     1      -6.228   4.160 -29.682  1.00  0.00    -0.272 OA
HETATM    4  H   UNL     1      -5.866   4.021 -32.778  1.00  0.00     0.163 HD
ENDROOT
BRANCH   2   5
HETATM    5  C   UNL     1      -7.333   5.580 -31.274  1.00  0.00     0.239 C 
BRANCH   5   6
HETATM    6  N   UNL     1      -8.321   5.092 -32.212  1.00  0.00    -0.259 N 
HETATM    7  C   UNL     1      -8.089   4.919 -33.536  1.00  0.00     0.326 A 
HETATM    8  O   UNL     1      -7.111   5.307 -34.153  1.00  0.00    -0.247 OA
HETATM    9  N   UNL     1      -9.142   4.241 -34.091  1.00  0.00    -0.320 N 
HETATM   10  C   UNL     1     -10.162   3.899 -33.118  1.00  0.00     0.144 A 
HETATM   11  H   UNL     1      -9.122   3.920 -35.049  1.00  0.00     0.165 HD
HETATM   12  C   UNL     1     -10.319   2.385 -33.022  1.00  0.00    -0.014 A 
HETATM   13  C   UNL     1     -11.478   4.622 -33.441  1.00  0.00     0.047 C 
HETATM   14  C   UNL     1      -9.525   4.539 -31.859  1.00  0.00     0.261 A 
HETATM   15  C   UNL     1     -11.446   1.740 -33.578  1.00  0.00    -0.049 A 
HETATM   16  C   UNL     1      -9.329   1.591 -32.409  1.00  0.00     0.011 A 
HETATM   17  C   UNL     1     -11.573   0.344 -33.473  1.00  0.00     0.007 A 
HETATM   18  C   UNL     1     -12.572   2.508 -34.226  1.00  0.00     0.039 C 
HETATM   19  C   UNL     1     -10.592  -0.417 -32.845  1.00  0.00     0.001 A 
HETATM   20  C   UNL     1      -9.468   0.205 -32.316  1.00  0.00     0.001 A 
HETATM   21  C   UNL     1     -12.199   3.938 -34.599  1.00  0.00     0.008 C 
HETATM   22  O   UNL     1      -9.996   4.523 -30.729  1.00  0.00    -0.270 OA
ENDBRANCH   5   6
ENDBRANCH   2   5
BRANCH   1  23
HETATM   23  C   UNL     1      -4.531   2.959 -31.510  1.00  0.00     0.155 C 
BRANCH  23  24
HETATM   24  C   UNL     1      -3.078   3.418 -31.715  1.00  0.00     0.043 C 
BRANCH  24  25
HETATM   25  C   UNL     1      -2.928   4.814 -32.319  1.00  0.00     0.076 C 
BRANCH  25  26
HETATM   26  S   UNL     1      -1.264   5.239 -32.941  1.00  0.00    -0.173 SA
HETATM   27  C   UNL     1      -1.594   5.305 -34.722  1.00  0.00     0.089 C 
ENDBRANCH  25  26
ENDBRANCH  24  25
ENDBRANCH  23  24
BRANCH  23  28
HETATM   28  C   UNL     1      -4.834   1.745 -32.350  1.00  0.00     0.128 A 
HETATM   29  N   UNL     1      -4.263   0.556 -32.294  1.00  0.00    -0.231 NA
HETATM   30  C   UNL     1      -4.973  -0.237 -33.164  1.00  0.00     0.085 A 
HETATM   31  C   UNL     1      -5.975   0.491 -33.797  1.00  0.00     0.062 A 
HETATM   32  C   UNL     1      -4.826  -1.600 -33.459  1.00  0.00     0.034 A 
HETATM   33  N   UNL     1      -5.865   1.747 -33.264  1.00  0.00    -0.341 N 
HETATM   34  C   UNL     1      -6.845  -0.062 -34.739  1.00  0.00     0.032 A 
HETATM   35  H   UNL     1      -6.446   2.552 -33.471  1.00  0.00     0.167 HD
HETATM   36  C   UNL     1      -6.683  -1.424 -35.022  1.00  0.00     0.002 A 
HETATM   37  C   UNL     1      -5.695  -2.184 -34.391  1.00  0.00     0.002 A 
ENDBRANCH  23  28
ENDBRANCH   1  23
TORSDOF 7
ENDMDL
MODEL 5
REMARK VINA RESULT:      -8.7      2.542      7.935
REMARK  7 active torsions:
REMARK  status: ('A' for Active; 'I' for Inactive)
REMARK    1  A    between atoms: S_2  and  C_3 
REMARK    2  A    between atoms: C_3  and  C_4 
REMARK    3  A    between atoms: C_4  and  C_5 
REMARK    4  A    between atoms: C_5  and  N_6 
REMARK    5  A    between atoms: C_5  and  C_26 
REMARK       I    between atoms: N_6  and  C_7 
REMARK    6  A    between atoms: C_7  and  C_8 
REMARK    7  A    between atoms: C_8  and  N_9 
ROOT
HETATM    1  N   UNL     1      -6.880   5.356 -30.953  1.00  0.00    -0.348 N 
HETATM    2  C   UNL     1      -7.127   4.059 -30.553  1.00  0.00     0.236 C 
HETATM    3  O   UNL     1      -6.415   3.497 -29.717  1.00  0.00    -0.272 OA
HETATM    4  H   UNL     1      -7.123   5.600 -31.911  1.00  0.00     0.163 HD
ENDROOT
BRANCH   2   5
HETATM    5  C   UNL     1      -8.171   3.271 -31.341  1.00  0.00     0.239 C 
BRANCH   5   6
HETATM    6  N   UNL     1      -7.658   2.331 -32.315  1.00  0.00    -0.259 N 
HETATM    7  C   UNL     1      -6.955   2.689 -33.417  1.00  0.00     0.326 A 
HETATM    8  O   UNL     1      -6.811   3.823 -33.843  1.00  0.00    -0.247 OA
HETATM    9  N   UNL     1      -6.431   1.565 -33.999  1.00  0.00    -0.320 N 
HETATM   10  C   UNL     1      -6.757   0.354 -33.270  1.00  0.00     0.144 A 
HETATM   11  H   UNL     1      -5.788   1.619 -34.776  1.00  0.00     0.165 HD
HETATM   12  C   UNL     1      -5.488  -0.325 -32.769  1.00  0.00    -0.014 A 
HETATM   13  C   UNL     1      -7.637  -0.569 -34.127  1.00  0.00     0.047 C 
HETATM   14  C   UNL     1      -7.619   0.972 -32.140  1.00  0.00     0.261 A 
HETATM   15  C   UNL     1      -5.011  -1.507 -33.381  1.00  0.00    -0.049 A 
HETATM   16  C   UNL     1      -4.740   0.227 -31.710  1.00  0.00     0.011 A 
HETATM   17  C   UNL     1      -3.841  -2.119 -32.900  1.00  0.00     0.007 A 
HETATM   18  C   UNL     1      -5.760  -2.188 -34.500  1.00  0.00     0.039 C 
HETATM   19  C   UNL     1      -3.130  -1.565 -31.839  1.00  0.00     0.001 A 
HETATM   20  C   UNL     1      -3.577  -0.391 -31.246  1.00  0.00     0.001 A 
HETATM   21  C   UNL     1      -6.796  -1.296 -35.174  1.00  0.00     0.008 C 
HETATM   22  O   UNL     1      -8.147   0.358 -31.222  1.00  0.00    -0.270 OA
ENDBRANCH   5   6
ENDBRANCH   2   5
BRANCH   1  23
HETATM   23  C   UNL     1      -5.807   6.127 -30.327  1.00  0.00     0.155 C 
BRANCH  23  24
HETATM   24  C   UNL     1      -6.306   7.486 -29.810  1.00  0.00     0.043 C 
BRANCH  24  25
HETATM   25  C   UNL     1      -6.267   7.645 -28.291  1.00  0.00     0.076 C 
BRANCH  25  26
HETATM   26  S   UNL     1      -5.094   6.560 -27.405  1.00  0.00    -0.173 SA
HETATM   27  C   UNL     1      -3.590   7.566 -27.502  1.00  0.00     0.089 C 
ENDBRANCH  25  26
ENDBRANCH  24  25
ENDBRANCH  23  24
BRANCH  23  28
HETATM   28  C   UNL     1      -4.686   6.309 -31.319  1.00  0.00     0.128 A 
HETATM   29  N   UNL     1      -3.676   7.157 -31.255  1.00  0.00    -0.231 NA
HETATM   30  C   UNL     1      -2.864   6.847 -32.320  1.00  0.00     0.085 A 
HETATM   31  C   UNL     1      -3.407   5.813 -33.075  1.00  0.00     0.062 A 
HETATM   32  C   UNL     1      -1.633   7.400 -32.701  1.00  0.00     0.034 A 
HETATM   33  N   UNL     1      -4.564   5.489 -32.419  1.00  0.00    -0.341 N 
HETATM   34  C   UNL     1      -2.796   5.298 -34.221  1.00  0.00     0.032 A 
HETATM   35  H   UNL     1      -5.224   4.760 -32.666  1.00  0.00     0.167 HD
HETATM   36  C   UNL     1      -1.568   5.864 -34.588  1.00  0.00     0.002 A 
HETATM   37  C   UNL     1      -0.992   6.894 -33.839  1.00  0.00     0.002 A 
ENDBRANCH  23  28
ENDBRANCH   1  23
TORSDOF 7
ENDMDL
MODEL 6
REMARK VINA RESULT:      -8.5      2.177      4.010
REMARK  7 active torsions:
REMARK  status: ('A' for Active; 'I' for Inactive)
REMARK    1  A    between atoms: S_2  and  C_3 
REMARK    2  A    between atoms: C_3  and  C_4 
REMARK    3  A    between atoms: C_4  and  C_5 
REMARK    4  A    between atoms: C_5  and  N_6 
REMARK    5  A    between atoms: C_5  and  C_26 
REMARK       I    between atoms: N_6  and  C_7 
REMARK    6  A    between atoms: C_7  and  C_8 
REMARK    7  A    between atoms: C_8  and  N_9 
ROOT
HETATM    1  N   UNL     1      -7.216   1.750 -32.083  1.00  0.00    -0.348 N 
HETATM    2  C   UNL     1      -7.307   3.119 -32.222  1.00  0.00     0.236 C 
HETATM    3  O   UNL     1      -7.997   3.632 -33.106  1.00  0.00    -0.272 OA
HETATM    4  H   UNL     1      -6.338   1.377 -31.729  1.00  0.00     0.163 HD
ENDROOT
BRANCH   2   5
HETATM    5  C   UNL     1      -6.350   3.971 -31.390  1.00  0.00     0.239 C 
BRANCH   5   6
HETATM    6  N   UNL     1      -5.291   4.636 -32.120  1.00  0.00    -0.259 N 
HETATM    7  C   UNL     1      -5.413   5.862 -32.685  1.00  0.00     0.326 A 
HETATM    8  O   UNL     1      -6.450   6.491 -32.823  1.00  0.00    -0.247 OA
HETATM    9  N   UNL     1      -4.180   6.291 -33.096  1.00  0.00    -0.320 N 
HETATM   10  C   UNL     1      -3.127   5.340 -32.795  1.00  0.00     0.144 A 
HETATM   11  H   UNL     1      -4.033   7.226 -33.451  1.00  0.00     0.165 HD
HETATM   12  C   UNL     1      -2.105   5.958 -31.848  1.00  0.00    -0.014 A 
HETATM   13  C   UNL     1      -2.501   4.803 -34.091  1.00  0.00     0.047 C 
HETATM   14  C   UNL     1      -3.984   4.225 -32.143  1.00  0.00     0.261 A 
HETATM   15  C   UNL     1      -0.830   6.348 -32.316  1.00  0.00    -0.049 A 
HETATM   16  C   UNL     1      -2.418   6.188 -30.493  1.00  0.00     0.011 A 
HETATM   17  C   UNL     1       0.099   6.912 -31.424  1.00  0.00     0.007 A 
HETATM   18  C   UNL     1      -0.393   6.113 -33.742  1.00  0.00     0.039 C 
HETATM   19  C   UNL     1      -0.227   7.111 -30.086  1.00  0.00     0.001 A 
HETATM   20  C   UNL     1      -1.486   6.753 -29.620  1.00  0.00     0.001 A 
HETATM   21  C   UNL     1      -1.548   5.830 -34.695  1.00  0.00     0.008 C 
HETATM   22  O   UNL     1      -3.562   3.168 -31.690  1.00  0.00    -0.270 OA
ENDBRANCH   5   6
ENDBRANCH   2   5
BRANCH   1  23
HETATM   23  C   UNL     1      -8.011   0.870 -32.938  1.00  0.00     0.155 C 
BRANCH  23  24
HETATM   24  C   UNL     1      -9.263   0.347 -32.215  1.00  0.00     0.043 C 
BRANCH  24  25
HETATM   25  C   UNL     1     -10.544   0.386 -33.045  1.00  0.00     0.076 C 
BRANCH  25  26
HETATM   26  S   UNL     1     -11.140   2.048 -33.515  1.00  0.00    -0.173 SA
HETATM   27  C   UNL     1     -12.078   1.642 -35.012  1.00  0.00     0.089 C 
ENDBRANCH  25  26
ENDBRANCH  24  25
ENDBRANCH  23  24
BRANCH  23  28
HETATM   28  C   UNL     1      -7.148  -0.272 -33.411  1.00  0.00     0.128 A 
HETATM   29  N   UNL     1      -5.846  -0.425 -33.250  1.00  0.00    -0.231 NA
HETATM   30  C   UNL     1      -5.557  -1.677 -33.739  1.00  0.00     0.085 A 
HETATM   31  C   UNL     1      -6.698  -2.289 -34.247  1.00  0.00     0.062 A 
HETATM   32  C   UNL     1      -4.337  -2.368 -33.772  1.00  0.00     0.034 A 
HETATM   33  N   UNL     1      -7.694  -1.375 -34.027  1.00  0.00    -0.341 N 
HETATM   34  C   UNL     1      -6.695  -3.565 -34.815  1.00  0.00     0.032 A 
HETATM   35  H   UNL     1      -8.678  -1.480 -34.250  1.00  0.00     0.167 HD
HETATM   36  C   UNL     1      -5.468  -4.239 -34.841  1.00  0.00     0.002 A 
HETATM   37  C   UNL     1      -4.308  -3.655 -34.324  1.00  0.00     0.002 A 
ENDBRANCH  23  28
ENDBRANCH   1  23
TORSDOF 7
ENDMDL
MODEL 7
REMARK VINA RESULT:      -8.5      3.388      8.860
REMARK  7 active torsions:
REMARK  status: ('A' for Active; 'I' for Inactive)
REMARK    1  A    between atoms: S_2  and  C_3 
REMARK    2  A    between atoms: C_3  and  C_4 
REMARK    3  A    between atoms: C_4  and  C_5 
REMARK    4  A    between atoms: C_5  and  N_6 
REMARK    5  A    between atoms: C_5  and  C_26 
REMARK       I    between atoms: N_6  and  C_7 
REMARK    6  A    between atoms: C_7  and  C_8 
REMARK    7  A    between atoms: C_8  and  N_9 
ROOT
HETATM    1  N   UNL     1      -5.955   2.050 -31.571  1.00  0.00    -0.348 N 
HETATM    2  C   UNL     1      -6.405   0.812 -31.161  1.00  0.00     0.236 C 
HETATM    3  O   UNL     1      -6.015   0.301 -30.108  1.00  0.00    -0.272 OA
HETATM    4  H   UNL     1      -5.886   2.210 -32.573  1.00  0.00     0.163 HD
ENDROOT
BRANCH   2   5
HETATM    5  C   UNL     1      -7.225   0.001 -32.162  1.00  0.00     0.239 C 
BRANCH   5   6
HETATM    6  N   UNL     1      -8.056   0.762 -33.070  1.00  0.00    -0.259 N 
HETATM    7  C   UNL     1      -8.047   0.608 -34.417  1.00  0.00     0.326 A 
HETATM    8  O   UNL     1      -7.237  -0.038 -35.062  1.00  0.00    -0.247 OA
HETATM    9  N   UNL     1      -9.094   1.307 -34.956  1.00  0.00    -0.320 N 
HETATM   10  C   UNL     1      -9.898   1.974 -33.950  1.00  0.00     0.144 A 
HETATM   11  H   UNL     1      -9.328   1.241 -35.936  1.00  0.00     0.165 HD
HETATM   12  C   UNL     1     -11.327   1.443 -33.971  1.00  0.00    -0.014 A 
HETATM   13  C   UNL     1      -9.818   3.499 -34.122  1.00  0.00     0.047 C 
HETATM   14  C   UNL     1      -9.101   1.562 -32.686  1.00  0.00     0.261 A 
HETATM   15  C   UNL     1     -12.378   2.222 -34.503  1.00  0.00    -0.049 A 
HETATM   16  C   UNL     1     -11.628   0.152 -33.495  1.00  0.00     0.011 A 
HETATM   17  C   UNL     1     -13.689   1.716 -34.509  1.00  0.00     0.007 A 
HETATM   18  C   UNL     1     -12.159   3.628 -35.008  1.00  0.00     0.039 C 
HETATM   19  C   UNL     1     -13.965   0.444 -34.014  1.00  0.00     0.001 A 
HETATM   20  C   UNL     1     -12.934  -0.340 -33.510  1.00  0.00     0.001 A 
HETATM   21  C   UNL     1     -10.696   3.956 -35.283  1.00  0.00     0.008 C 
HETATM   22  O   UNL     1      -9.376   1.867 -31.533  1.00  0.00    -0.270 OA
ENDBRANCH   5   6
ENDBRANCH   2   5
BRANCH   1  23
HETATM   23  C   UNL     1      -5.060   2.828 -30.714  1.00  0.00     0.155 C 
BRANCH  23  24
HETATM   24  C   UNL     1      -5.832   3.831 -29.842  1.00  0.00     0.043 C 
BRANCH  24  25
HETATM   25  C   UNL     1      -7.056   4.452 -30.513  1.00  0.00     0.076 C 
BRANCH  25  26
HETATM   26  S   UNL     1      -7.219   6.265 -30.352  1.00  0.00    -0.173 SA
HETATM   27  C   UNL     1      -5.659   6.796 -31.105  1.00  0.00     0.089 C 
ENDBRANCH  25  26
ENDBRANCH  24  25
ENDBRANCH  23  24
BRANCH  23  28
HETATM   28  C   UNL     1      -4.044   3.535 -31.575  1.00  0.00     0.128 A 
HETATM   29  N   UNL     1      -4.029   3.642 -32.891  1.00  0.00    -0.231 NA
HETATM   30  C   UNL     1      -2.982   4.483 -33.182  1.00  0.00     0.085 A 
HETATM   31  C   UNL     1      -2.316   4.869 -32.024  1.00  0.00     0.062 A 
HETATM   32  C   UNL     1      -2.544   4.975 -34.420  1.00  0.00     0.034 A 
HETATM   33  N   UNL     1      -3.009   4.252 -31.017  1.00  0.00    -0.341 N 
HETATM   34  C   UNL     1      -1.206   5.717 -32.025  1.00  0.00     0.032 A 
HETATM   35  H   UNL     1      -2.827   4.316 -30.022  1.00  0.00     0.167 HD
HETATM   36  C   UNL     1      -0.782   6.197 -33.270  1.00  0.00     0.002 A 
HETATM   37  C   UNL     1      -1.441   5.839 -34.449  1.00  0.00     0.002 A 
ENDBRANCH  23  28
ENDBRANCH   1  23
TORSDOF 7
ENDMDL
MODEL 8
REMARK VINA RESULT:      -8.5      2.963      5.114
REMARK  7 active torsions:
REMARK  status: ('A' for Active; 'I' for Inactive)
REMARK    1  A    between atoms: S_2  and  C_3 
REMARK    2  A    between atoms: C_3  and  C_4 
REMARK    3  A    between atoms: C_4  and  C_5 
REMARK    4  A    between atoms: C_5  and  N_6 
REMARK    5  A    between atoms: C_5  and  C_26 
REMARK       I    between atoms: N_6  and  C_7 
REMARK    6  A    between atoms: C_7  and  C_8 
REMARK    7  A    between atoms: C_8  and  N_9 
ROOT
HETATM    1  N   UNL     1      -6.734   1.634 -32.334  1.00  0.00    -0.348 N 
HETATM    2  C   UNL     1      -6.098   1.496 -31.118  1.00  0.00     0.236 C 
HETATM    3  O   UNL     1      -6.148   0.441 -30.481  1.00  0.00    -0.272 OA
HETATM    4  H   UNL     1      -7.084   2.560 -32.572  1.00  0.00     0.163 HD
ENDROOT
BRANCH   2   5
HETATM    5  C   UNL     1      -5.520   2.760 -30.484  1.00  0.00     0.239 C 
BRANCH   5   6
HETATM    6  N   UNL     1      -4.829   3.663 -31.379  1.00  0.00    -0.259 N 
HETATM    7  C   UNL     1      -5.330   4.854 -31.792  1.00  0.00     0.326 A 
HETATM    8  O   UNL     1      -6.473   5.250 -31.629  1.00  0.00    -0.247 OA
HETATM    9  N   UNL     1      -4.347   5.553 -32.440  1.00  0.00    -0.320 N 
HETATM   10  C   UNL     1      -3.084   4.841 -32.476  1.00  0.00     0.144 A 
HETATM   11  H   UNL     1      -4.483   6.509 -32.737  1.00  0.00     0.165 HD
HETATM   12  C   UNL     1      -2.006   5.630 -31.743  1.00  0.00    -0.014 A 
HETATM   13  C   UNL     1      -2.701   4.497 -33.924  1.00  0.00     0.047 C 
HETATM   14  C   UNL     1      -3.513   3.545 -31.742  1.00  0.00     0.261 A 
HETATM   15  C   UNL     1      -0.990   6.302 -32.460  1.00  0.00    -0.049 A 
HETATM   16  C   UNL     1      -2.015   5.739 -30.338  1.00  0.00     0.011 A 
HETATM   17  C   UNL     1      -0.003   7.021 -31.764  1.00  0.00     0.007 A 
HETATM   18  C   UNL     1      -0.879   6.218 -33.963  1.00  0.00     0.039 C 
HETATM   19  C   UNL     1      -0.022   7.097 -30.374  1.00  0.00     0.001 A 
HETATM   20  C   UNL     1      -1.030   6.460 -29.661  1.00  0.00     0.001 A 
HETATM   21  C   UNL     1      -2.152   5.727 -34.642  1.00  0.00     0.008 C 
HETATM   22  O   UNL     1      -2.790   2.588 -31.492  1.00  0.00    -0.270 OA
ENDBRANCH   5   6
ENDBRANCH   2   5
BRANCH   1  23
HETATM   23  C   UNL     1      -7.419   0.493 -32.939  1.00  0.00     0.155 C 
BRANCH  23  24
HETATM   24  C   UNL     1      -6.653  -0.056 -34.153  1.00  0.00     0.043 C 
BRANCH  24  25
HETATM   25  C   UNL     1      -7.011  -1.491 -34.539  1.00  0.00     0.076 C 
BRANCH  25  26
HETATM   26  S   UNL     1      -5.612  -2.662 -34.638  1.00  0.00    -0.173 SA
HETATM   27  C   UNL     1      -4.400  -1.804 -33.600  1.00  0.00     0.089 C 
ENDBRANCH  25  26
ENDBRANCH  24  25
ENDBRANCH  23  24
BRANCH  23  28
HETATM   28  C   UNL     1      -8.817   0.905 -33.327  1.00  0.00     0.128 A 
HETATM   29  N   UNL     1      -9.184   1.944 -34.054  1.00  0.00    -0.231 NA
HETATM   30  C   UNL     1     -10.540   1.812 -34.232  1.00  0.00     0.085 A 
HETATM   31  C   UNL     1     -11.022   0.689 -33.568  1.00  0.00     0.062 A 
HETATM   32  C   UNL     1     -11.431   2.609 -34.963  1.00  0.00     0.034 A 
HETATM   33  N   UNL     1      -9.907   0.131 -33.000  1.00  0.00    -0.341 N 
HETATM   34  C   UNL     1     -12.367   0.314 -33.572  1.00  0.00     0.032 A 
HETATM   35  H   UNL     1      -9.863  -0.719 -32.449  1.00  0.00     0.167 HD
HETATM   36  C   UNL     1     -13.243   1.124 -34.306  1.00  0.00     0.002 A 
HETATM   37  C   UNL     1     -12.785   2.249 -34.996  1.00  0.00     0.002 A 
ENDBRANCH  23  28
ENDBRANCH   1  23
TORSDOF 7
ENDMDL
MODEL 9
REMARK VINA RESULT:      -8.3      2.004      3.437
REMARK  7 active torsions:
REMARK  status: ('A' for Active; 'I' for Inactive)
REMARK    1  A    between atoms: S_2  and  C_3 
REMARK    2  A    between atoms: C_3  and  C_4 
REMARK    3  A    between atoms: C_4  and  C_5 
REMARK    4  A    between atoms: C_5  and  N_6 
REMARK    5  A    between atoms: C_5  and  C_26 
REMARK       I    between atoms: N_6  and  C_7 
REMARK    6  A    between atoms: C_7  and  C_8 
REMARK    7  A    between atoms: C_8  and  N_9 
ROOT
HETATM    1  N   UNL     1      -5.406   1.996 -32.824  1.00  0.00    -0.348 N 
HETATM    2  C   UNL     1      -5.348   3.314 -33.228  1.00  0.00     0.236 C 
HETATM    3  O   UNL     1      -6.256   3.825 -33.890  1.00  0.00    -0.272 OA
HETATM    4  H   UNL     1      -4.523   1.498 -32.741  1.00  0.00     0.163 HD
ENDROOT
BRANCH   2   5
HETATM    5  C   UNL     1      -4.026   4.051 -33.023  1.00  0.00     0.239 C 
BRANCH   5   6
HETATM    6  N   UNL     1      -4.010   5.049 -31.976  1.00  0.00    -0.259 N 
HETATM    7  C   UNL     1      -4.446   4.830 -30.711  1.00  0.00     0.326 A 
HETATM    8  O   UNL     1      -5.067   3.854 -30.322  1.00  0.00    -0.247 OA
HETATM    9  N   UNL     1      -4.089   5.891 -29.923  1.00  0.00    -0.320 N 
HETATM   10  C   UNL     1      -3.350   6.905 -30.651  1.00  0.00     0.144 A 
HETATM   11  H   UNL     1      -4.229   5.881 -28.922  1.00  0.00     0.165 HD
HETATM   12  C   UNL     1      -1.953   7.070 -30.063  1.00  0.00    -0.014 A 
HETATM   13  C   UNL     1      -4.143   8.219 -30.698  1.00  0.00     0.047 C 
HETATM   14  C   UNL     1      -3.359   6.253 -32.057  1.00  0.00     0.261 A 
HETATM   15  C   UNL     1      -1.624   8.205 -29.289  1.00  0.00    -0.049 A 
HETATM   16  C   UNL     1      -0.967   6.080 -30.248  1.00  0.00     0.011 A 
HETATM   17  C   UNL     1      -0.329   8.340 -28.761  1.00  0.00     0.007 A 
HETATM   18  C   UNL     1      -2.603   9.332 -29.063  1.00  0.00     0.039 C 
HETATM   19  C   UNL     1       0.634   7.358 -28.974  1.00  0.00     0.001 A 
HETATM   20  C   UNL     1       0.315   6.226 -29.713  1.00  0.00     0.001 A 
HETATM   21  C   UNL     1      -4.049   8.954 -29.363  1.00  0.00     0.008 C 
HETATM   22  O   UNL     1      -2.842   6.715 -33.066  1.00  0.00    -0.270 OA
ENDBRANCH   5   6
ENDBRANCH   2   5
BRANCH   1  23
HETATM   23  C   UNL     1      -6.595   1.192 -33.104  1.00  0.00     0.155 C 
BRANCH  23  24
HETATM   24  C   UNL     1      -7.524   1.102 -31.882  1.00  0.00     0.043 C 
BRANCH  24  25
HETATM   25  C   UNL     1      -8.681   2.100 -31.884  1.00  0.00     0.076 C 
BRANCH  25  26
HETATM   26  S   UNL     1      -9.686   2.154 -33.408  1.00  0.00    -0.173 SA
HETATM   27  C   UNL     1     -10.491   0.533 -33.320  1.00  0.00     0.089 C 
ENDBRANCH  25  26
ENDBRANCH  24  25
ENDBRANCH  23  24
BRANCH  23  28
HETATM   28  C   UNL     1      -6.168  -0.181 -33.557  1.00  0.00     0.128 A 
HETATM   29  N   UNL     1      -4.970  -0.728 -33.467  1.00  0.00    -0.231 NA
HETATM   30  C   UNL     1      -5.122  -2.026 -33.895  1.00  0.00     0.085 A 
HETATM   31  C   UNL     1      -6.432  -2.268 -34.293  1.00  0.00     0.062 A 
HETATM   32  C   UNL     1      -4.183  -3.065 -33.960  1.00  0.00     0.034 A 
HETATM   33  N   UNL     1      -7.076  -1.080 -34.069  1.00  0.00    -0.341 N 
HETATM   34  C   UNL     1      -6.870  -3.501 -34.780  1.00  0.00     0.032 A 
HETATM   35  H   UNL     1      -8.058  -0.879 -34.224  1.00  0.00     0.167 HD
HETATM   36  C   UNL     1      -5.918  -4.527 -34.840  1.00  0.00     0.002 A 
HETATM   37  C   UNL     1      -4.598  -4.317 -34.432  1.00  0.00     0.002 A 
ENDBRANCH  23  28
ENDBRANCH   1  23
TORSDOF 7
ENDMDL
MODEL 10
REMARK VINA RESULT:      -8.2      2.405      4.257
REMARK  7 active torsions:
REMARK  status: ('A' for Active; 'I' for Inactive)
REMARK    1  A    between atoms: S_2  and  C_3 
REMARK    2  A    between atoms: C_3  and  C_4 
REMARK    3  A    between atoms: C_4  and  C_5 
REMARK    4  A    between atoms: C_5  and  N_6 
REMARK    5  A    between atoms: C_5  and  C_26 
REMARK       I    between atoms: N_6  and  C_7 
REMARK    6  A    between atoms: C_7  and  C_8 
REMARK    7  A    between atoms: C_8  and  N_9 
ROOT
HETATM    1  N   UNL     1      -8.314   3.424 -31.894  1.00  0.00    -0.348 N 
HETATM    2  C   UNL     1      -7.911   4.726 -32.108  1.00  0.00     0.236 C 
HETATM    3  O   UNL     1      -7.881   5.213 -33.242  1.00  0.00    -0.272 OA
HETATM    4  H   UNL     1      -7.885   2.928 -31.116  1.00  0.00     0.163 HD
ENDROOT
BRANCH   2   5
HETATM    5  C   UNL     1      -7.291   5.469 -30.927  1.00  0.00     0.239 C 
BRANCH   5   6
HETATM    6  N   UNL     1      -5.851   5.386 -30.806  1.00  0.00    -0.259 N 
HETATM    7  C   UNL     1      -5.184   4.265 -30.439  1.00  0.00     0.326 A 
HETATM    8  O   UNL     1      -5.682   3.245 -29.989  1.00  0.00    -0.247 OA
HETATM    9  N   UNL     1      -3.843   4.455 -30.640  1.00  0.00    -0.320 N 
HETATM   10  C   UNL     1      -3.539   5.761 -31.192  1.00  0.00     0.144 A 
HETATM   11  H   UNL     1      -3.176   3.704 -30.525  1.00  0.00     0.165 HD
HETATM   12  C   UNL     1      -2.876   5.621 -32.558  1.00  0.00    -0.014 A 
HETATM   13  C   UNL     1      -2.706   6.586 -30.199  1.00  0.00     0.047 C 
HETATM   14  C   UNL     1      -4.976   6.340 -31.256  1.00  0.00     0.261 A 
HETATM   15  C   UNL     1      -1.494   5.868 -32.718  1.00  0.00    -0.049 A 
HETATM   16  C   UNL     1      -3.616   5.209 -33.684  1.00  0.00     0.011 A 
HETATM   17  C   UNL     1      -0.904   5.737 -33.987  1.00  0.00     0.007 A 
HETATM   18  C   UNL     1      -0.627   6.344 -31.577  1.00  0.00     0.039 C 
HETATM   19  C   UNL     1      -1.660   5.348 -35.089  1.00  0.00     0.001 A 
HETATM   20  C   UNL     1      -3.015   5.080 -34.938  1.00  0.00     0.001 A 
HETATM   21  C   UNL     1      -1.251   6.125 -30.204  1.00  0.00     0.008 C 
HETATM   22  O   UNL     1      -5.285   7.450 -31.671  1.00  0.00    -0.270 OA
ENDBRANCH   5   6
ENDBRANCH   2   5
BRANCH   1  23
HETATM   23  C   UNL     1      -8.798   2.612 -33.010  1.00  0.00     0.155 C 
BRANCH  23  24
HETATM   24  C   UNL     1     -10.254   2.164 -32.800  1.00  0.00     0.043 C 
BRANCH  24  25
HETATM   25  C   UNL     1     -11.286   2.945 -33.613  1.00  0.00     0.076 C 
BRANCH  25  26
HETATM   26  S   UNL     1     -13.034   2.500 -33.322  1.00  0.00    -0.173 SA
HETATM   27  C   UNL     1     -13.316   1.377 -34.715  1.00  0.00     0.089 C 
ENDBRANCH  25  26
ENDBRANCH  24  25
ENDBRANCH  23  24
BRANCH  23  28
HETATM   28  C   UNL     1      -7.890   1.421 -33.184  1.00  0.00     0.128 A 
HETATM   29  N   UNL     1      -8.098   0.343 -33.918  1.00  0.00    -0.231 NA
HETATM   30  C   UNL     1      -6.931  -0.381 -33.850  1.00  0.00     0.085 A 
HETATM   31  C   UNL     1      -6.003   0.246 -33.026  1.00  0.00     0.062 A 
HETATM   32  C   UNL     1      -6.585  -1.585 -34.480  1.00  0.00     0.034 A 
HETATM   33  N   UNL     1      -6.637   1.388 -32.615  1.00  0.00    -0.341 N 
HETATM   34  C   UNL     1      -4.732  -0.273 -32.770  1.00  0.00     0.032 A 
HETATM   35  H   UNL     1      -6.260   2.112 -32.013  1.00  0.00     0.167 HD
HETATM   36  C   UNL     1      -4.404  -1.477 -33.406  1.00  0.00     0.002 A 
HETATM   37  C   UNL     1      -5.311  -2.122 -34.251  1.00  0.00     0.002 A 
ENDBRANCH  23  28
ENDBRANCH   1  23
TORSDOF 7
ENDMDL
