MODEL 1
REMARK VINA RESULT:      -9.0      0.000      0.000
REMARK  6 active torsions:
REMARK  status: ('A' for Active; 'I' for Inactive)
REMARK    1  A    between atoms: C_5  and  C_6 
REMARK    2  A    between atoms: C_12  and  C_13 
REMARK       I    between atoms: C_13  and  N_14 
REMARK    3  A    between atoms: N_14  and  C_15 
REMARK    4  A    between atoms: C_18  and  C_19 
REMARK    5  A    between atoms: C_19  and  O_20 
REMARK    6  A    between atoms: C_25  and  C_26 
ROOT
HETATM    1  C   UNL     1      -7.718   0.974 -31.499  1.00  0.00     0.118 C 
HETATM    2  N   UNL     1      -9.035   1.480 -31.924  1.00  0.00    -0.365 N 
HETATM    3  C   UNL     1      -9.122   2.606 -32.693  1.00  0.00     0.138 A 
HETATM    4  N   UNL     1      -8.014   3.385 -32.945  1.00  0.00    -0.240 N 
HETATM    5  N   UNL     1      -8.285   4.512 -33.620  1.00  0.00    -0.181 NA
HETATM    6  C   UNL     1      -9.591   4.411 -33.874  1.00  0.00     0.160 A 
HETATM    7  C   UNL     1     -10.180   3.249 -33.315  1.00  0.00     0.096 A 
HETATM    8  C   UNL     1      -6.702   3.178 -32.361  1.00  0.00     0.221 C 
HETATM    9  C   UNL     1      -6.781   2.158 -31.212  1.00  0.00     0.066 C 
HETATM   10  H   UNL     1      -9.735   1.361 -31.190  1.00  0.00     0.161 HD
ENDROOT
BRANCH   7  11
HETATM   11  C   UNL     1     -11.593   2.902 -33.394  1.00  0.00     0.261 C 
HETATM   12  N   UNL     1     -12.349   3.349 -32.327  1.00  0.00    -0.323 N 
HETATM   13  H   UNL     1     -11.823   3.754 -31.563  1.00  0.00     0.169 HD
HETATM   14  O   UNL     1     -12.019   2.287 -34.366  1.00  0.00    -0.267 OA
BRANCH  12  15
HETATM   15  C   UNL     1     -13.755   3.364 -32.218  1.00  0.00     0.035 A 
HETATM   16  C   UNL     1     -14.555   2.226 -32.311  1.00  0.00     0.030 A 
HETATM   17  C   UNL     1     -15.950   2.326 -32.262  1.00  0.00     0.012 A 
HETATM   18  C   UNL     1     -16.576   3.571 -32.128  1.00  0.00    -0.030 A 
HETATM   19  C   UNL     1     -15.770   4.713 -32.027  1.00  0.00     0.012 A 
HETATM   20  C   UNL     1     -14.374   4.608 -32.054  1.00  0.00     0.030 A 
BRANCH  18  21
HETATM   21  C   UNL     1     -18.087   3.660 -32.151  1.00  0.00     0.147 C 
HETATM   22  C   UNL     1     -18.633   4.332 -30.899  1.00  0.00     0.044 C 
BRANCH  21  23
HETATM   23  O   UNL     1     -18.670   2.365 -32.271  1.00  0.00    -0.391 OA
HETATM   24  H   UNL     1     -19.577   2.436 -31.927  1.00  0.00     0.210 HD
ENDBRANCH  21  23
ENDBRANCH  18  21
ENDBRANCH  12  15
ENDBRANCH   7  11
BRANCH   1  25
HETATM   25  C   UNL     1      -7.139  -0.069 -32.441  1.00  0.00    -0.035 A 
HETATM   26  C   UNL     1      -7.807  -0.522 -33.589  1.00  0.00     0.010 A 
HETATM   27  C   UNL     1      -7.206  -1.437 -34.461  1.00  0.00     0.007 A 
HETATM   28  C   UNL     1      -5.928  -1.935 -34.200  1.00  0.00    -0.062 A 
HETATM   29  C   UNL     1      -5.263  -2.891 -35.145  1.00  0.00     0.048 C 
HETATM   30  C   UNL     1      -5.274  -1.533 -33.034  1.00  0.00     0.007 A 
HETATM   31  C   UNL     1      -5.873  -0.616 -32.165  1.00  0.00     0.010 A 
ENDBRANCH   1  25
BRANCH   8  32
HETATM   32  C   UNL     1      -5.688   2.847 -33.435  1.00  0.00     0.409 C 
HETATM   33  F   UNL     1      -6.188   2.152 -34.471  1.00  0.00    -0.169 F 
HETATM   34  F   UNL     1      -5.108   3.961 -33.939  1.00  0.00    -0.169 F 
HETATM   35  F   UNL     1      -4.677   2.108 -32.904  1.00  0.00    -0.169 F 
ENDBRANCH   8  32
TORSDOF 6
ENDMDL
MODEL 2
REMARK VINA RESULT:      -8.6      5.505      9.177
REMARK  6 active torsions:
REMARK  status: ('A' for Active; 'I' for Inactive)
REMARK    1  A    between atoms: C_5  and  C_6 
REMARK    2  A    between atoms: C_12  and  C_13 
REMARK       I    between atoms: C_13  and  N_14 
REMARK    3  A    between atoms: N_14  and  C_15 
REMARK    4  A    between atoms: C_18  and  C_19 
REMARK    5  A    between atoms: C_19  and  O_20 
REMARK    6  A    between atoms: C_25  and  C_26 
ROOT
HETATM    1  C   UNL     1      -6.566   1.684 -34.315  1.00  0.00     0.118 C 
HETATM    2  N   UNL     1      -5.837   2.622 -33.443  1.00  0.00    -0.365 N 
HETATM    3  C   UNL     1      -6.297   2.886 -32.184  1.00  0.00     0.138 A 
HETATM    4  N   UNL     1      -7.525   2.428 -31.762  1.00  0.00    -0.240 N 
HETATM    5  N   UNL     1      -7.879   2.866 -30.544  1.00  0.00    -0.181 NA
HETATM    6  C   UNL     1      -6.811   3.560 -30.146  1.00  0.00     0.160 A 
HETATM    7  C   UNL     1      -5.788   3.622 -31.126  1.00  0.00     0.096 A 
HETATM    8  C   UNL     1      -8.487   1.736 -32.599  1.00  0.00     0.221 C 
HETATM    9  C   UNL     1      -8.078   1.834 -34.080  1.00  0.00     0.066 C 
HETATM   10  H   UNL     1      -5.455   3.405 -33.975  1.00  0.00     0.161 HD
ENDROOT
BRANCH   7  11
HETATM   11  C   UNL     1      -4.532   4.347 -30.984  1.00  0.00     0.261 C 
HETATM   12  N   UNL     1      -4.661   5.607 -30.430  1.00  0.00    -0.323 N 
HETATM   13  H   UNL     1      -5.613   5.927 -30.300  1.00  0.00     0.169 HD
HETATM   14  O   UNL     1      -3.478   3.818 -31.322  1.00  0.00    -0.267 OA
BRANCH  12  15
HETATM   15  C   UNL     1      -3.630   6.451 -29.970  1.00  0.00     0.035 A 
HETATM   16  C   UNL     1      -2.525   6.819 -30.737  1.00  0.00     0.030 A 
HETATM   17  C   UNL     1      -1.505   7.606 -30.190  1.00  0.00     0.012 A 
HETATM   18  C   UNL     1      -1.565   8.036 -28.859  1.00  0.00    -0.030 A 
HETATM   19  C   UNL     1      -2.680   7.671 -28.092  1.00  0.00     0.012 A 
HETATM   20  C   UNL     1      -3.710   6.901 -28.648  1.00  0.00     0.030 A 
BRANCH  18  21
HETATM   21  C   UNL     1      -0.415   8.824 -28.270  1.00  0.00     0.147 C 
HETATM   22  C   UNL     1       0.903   8.068 -28.376  1.00  0.00     0.044 C 
BRANCH  21  23
HETATM   23  O   UNL     1      -0.661   9.130 -26.900  1.00  0.00    -0.391 OA
HETATM   24  H   UNL     1      -1.315   9.851 -26.889  1.00  0.00     0.210 HD
ENDBRANCH  21  23
ENDBRANCH  18  21
ENDBRANCH  12  15
ENDBRANCH   7  11
BRANCH   1  25
HETATM   25  C   UNL     1      -6.057   0.255 -34.226  1.00  0.00    -0.035 A 
HETATM   26  C   UNL     1      -6.638  -0.813 -34.927  1.00  0.00     0.010 A 
HETATM   27  C   UNL     1      -6.095  -2.101 -34.863  1.00  0.00     0.007 A 
HETATM   28  C   UNL     1      -4.964  -2.359 -34.084  1.00  0.00    -0.062 A 
HETATM   29  C   UNL     1      -4.355  -3.729 -34.035  1.00  0.00     0.048 C 
HETATM   30  C   UNL     1      -4.407  -1.316 -33.341  1.00  0.00     0.007 A 
HETATM   31  C   UNL     1      -4.947  -0.029 -33.408  1.00  0.00     0.010 A 
ENDBRANCH   1  25
BRANCH   8  32
HETATM   32  C   UNL     1      -8.713   0.326 -32.095  1.00  0.00     0.409 C 
HETATM   33  F   UNL     1      -9.103  -0.543 -33.043  1.00  0.00    -0.169 F 
HETATM   34  F   UNL     1      -7.601  -0.183 -31.513  1.00  0.00    -0.169 F 
HETATM   35  F   UNL     1      -9.671   0.328 -31.130  1.00  0.00    -0.169 F 
ENDBRANCH   8  32
TORSDOF 6
ENDMDL
MODEL 3
REMARK VINA RESULT:      -8.6      7.811     11.980
REMARK  6 active torsions:
REMARK  status: ('A' for Active; 'I' for Inactive)
REMARK    1  A    between atoms: C_5  and  C_6 
REMARK    2  A    between atoms: C_12  and  C_13 
REMARK       I    between atoms: C_13  and  N_14 
REMARK    3  A    between atoms: N_14  and  C_15 
REMARK    4  A    between atoms: C_18  and  C_19 
REMARK    5  A    between atoms: C_19  and  O_20 
REMARK    6  A    between atoms: C_25  and  C_26 
ROOT
HETATM    1  C   UNL     1      -3.501   3.585 -31.444  1.00  0.00     0.118 C 
HETATM    2  N   UNL     1      -2.794   4.721 -30.826  1.00  0.00    -0.365 N 
HETATM    3  C   UNL     1      -2.477   5.820 -31.573  1.00  0.00     0.138 A 
HETATM    4  N   UNL     1      -2.651   5.829 -32.939  1.00  0.00    -0.240 N 
HETATM    5  N   UNL     1      -2.190   6.937 -33.538  1.00  0.00    -0.181 NA
HETATM    6  C   UNL     1      -1.781   7.690 -32.516  1.00  0.00     0.160 A 
HETATM    7  C   UNL     1      -1.922   7.050 -31.259  1.00  0.00     0.096 A 
HETATM    8  C   UNL     1      -3.067   4.687 -33.732  1.00  0.00     0.221 C 
HETATM    9  C   UNL     1      -3.010   3.400 -32.889  1.00  0.00     0.066 C 
HETATM   10  H   UNL     1      -2.101   4.403 -30.145  1.00  0.00     0.161 HD
ENDROOT
BRANCH   7  11
HETATM   11  C   UNL     1      -1.518   7.616 -29.978  1.00  0.00     0.261 C 
HETATM   12  N   UNL     1      -0.535   6.898 -29.324  1.00  0.00    -0.323 N 
HETATM   13  H   UNL     1      -0.295   6.008 -29.745  1.00  0.00     0.169 HD
HETATM   14  O   UNL     1      -2.027   8.658 -29.581  1.00  0.00    -0.267 OA
BRANCH  12  15
HETATM   15  C   UNL     1       0.209   7.295 -28.194  1.00  0.00     0.035 A 
HETATM   16  C   UNL     1      -0.000   6.793 -26.910  1.00  0.00     0.030 A 
HETATM   17  C   UNL     1       0.731   7.285 -25.822  1.00  0.00     0.012 A 
HETATM   18  C   UNL     1       1.682   8.297 -25.995  1.00  0.00    -0.030 A 
HETATM   19  C   UNL     1       1.897   8.795 -27.288  1.00  0.00     0.012 A 
HETATM   20  C   UNL     1       1.179   8.286 -28.378  1.00  0.00     0.030 A 
BRANCH  18  21
HETATM   21  C   UNL     1       2.407   8.863 -24.793  1.00  0.00     0.147 C 
HETATM   22  C   UNL     1       1.476   9.670 -23.899  1.00  0.00     0.044 C 
BRANCH  21  23
HETATM   23  O   UNL     1       3.491   9.695 -25.200  1.00  0.00    -0.391 OA
HETATM   24  H   UNL     1       3.183  10.192 -25.978  1.00  0.00     0.210 HD
ENDBRANCH  21  23
ENDBRANCH  18  21
ENDBRANCH  12  15
ENDBRANCH   7  11
BRANCH   1  25
HETATM   25  C   UNL     1      -5.012   3.663 -31.300  1.00  0.00    -0.035 A 
HETATM   26  C   UNL     1      -5.678   4.794 -30.805  1.00  0.00     0.010 A 
HETATM   27  C   UNL     1      -7.076   4.843 -30.751  1.00  0.00     0.007 A 
HETATM   28  C   UNL     1      -7.844   3.757 -31.175  1.00  0.00    -0.062 A 
HETATM   29  C   UNL     1      -9.342   3.811 -31.151  1.00  0.00     0.048 C 
HETATM   30  C   UNL     1      -7.191   2.605 -31.620  1.00  0.00     0.007 A 
HETATM   31  C   UNL     1      -5.796   2.557 -31.678  1.00  0.00     0.010 A 
ENDBRANCH   1  25
BRANCH   8  32
HETATM   32  C   UNL     1      -4.403   4.955 -34.391  1.00  0.00     0.409 C 
HETATM   33  F   UNL     1      -5.212   3.884 -34.455  1.00  0.00    -0.169 F 
HETATM   34  F   UNL     1      -5.085   5.940 -33.761  1.00  0.00    -0.169 F 
HETATM   35  F   UNL     1      -4.210   5.391 -35.665  1.00  0.00    -0.169 F 
ENDBRANCH   8  32
TORSDOF 6
ENDMDL
MODEL 4
REMARK VINA RESULT:      -8.5      4.607      8.360
REMARK  6 active torsions:
REMARK  status: ('A' for Active; 'I' for Inactive)
REMARK    1  A    between atoms: C_5  and  C_6 
REMARK    2  A    between atoms: C_12  and  C_13 
REMARK       I    between atoms: C_13  and  N_14 
REMARK    3  A    between atoms: N_14  and  C_15 
REMARK    4  A    between atoms: C_18  and  C_19 
REMARK    5  A    between atoms: C_19  and  O_20 
REMARK    6  A    between atoms: C_25  and  C_26 
ROOT
HETATM    1  C   UNL     1      -4.841   4.215 -30.615  1.00  0.00     0.118 C 
HETATM    2  N   UNL     1      -5.665   3.100 -31.116  1.00  0.00    -0.365 N 
HETATM    3  C   UNL     1      -6.832   3.353 -31.779  1.00  0.00     0.138 A 
HETATM    4  N   UNL     1      -7.352   4.626 -31.847  1.00  0.00    -0.240 N 
HETATM    5  N   UNL     1      -8.556   4.690 -32.436  1.00  0.00    -0.181 NA
HETATM    6  C   UNL     1      -8.775   3.432 -32.823  1.00  0.00     0.160 A 
HETATM    7  C   UNL     1      -7.742   2.541 -32.437  1.00  0.00     0.096 A 
HETATM    8  C   UNL     1      -6.810   5.784 -31.161  1.00  0.00     0.221 C 
HETATM    9  C   UNL     1      -5.757   5.350 -30.126  1.00  0.00     0.066 C 
HETATM   10  H   UNL     1      -5.658   2.311 -30.467  1.00  0.00     0.161 HD
ENDROOT
BRANCH   7  11
HETATM   11  C   UNL     1      -7.734   1.106 -32.686  1.00  0.00     0.261 C 
HETATM   12  N   UNL     1      -6.748   0.684 -33.557  1.00  0.00    -0.323 N 
HETATM   13  H   UNL     1      -6.226   1.424 -34.011  1.00  0.00     0.169 HD
HETATM   14  O   UNL     1      -8.546   0.381 -32.119  1.00  0.00    -0.267 OA
BRANCH  12  15
HETATM   15  C   UNL     1      -6.349  -0.641 -33.825  1.00  0.00     0.035 A 
HETATM   16  C   UNL     1      -7.178  -1.603 -34.401  1.00  0.00     0.030 A 
HETATM   17  C   UNL     1      -6.735  -2.919 -34.574  1.00  0.00     0.012 A 
HETATM   18  C   UNL     1      -5.453  -3.305 -34.166  1.00  0.00    -0.030 A 
HETATM   19  C   UNL     1      -4.617  -2.335 -33.594  1.00  0.00     0.012 A 
HETATM   20  C   UNL     1      -5.055  -1.013 -33.441  1.00  0.00     0.030 A 
BRANCH  18  21
HETATM   21  C   UNL     1      -5.023  -4.750 -34.296  1.00  0.00     0.147 C 
HETATM   22  C   UNL     1      -3.509  -4.897 -34.242  1.00  0.00     0.044 C 
BRANCH  21  23
HETATM   23  O   UNL     1      -5.497  -5.310 -35.518  1.00  0.00    -0.391 OA
HETATM   24  H   UNL     1      -5.290  -6.261 -35.487  1.00  0.00     0.210 HD
ENDBRANCH  21  23
ENDBRANCH  18  21
ENDBRANCH  12  15
ENDBRANCH   7  11
BRANCH   1  25
HETATM   25  C   UNL     1      -3.763   4.656 -31.590  1.00  0.00    -0.035 A 
HETATM   26  C   UNL     1      -3.560   4.045 -32.837  1.00  0.00     0.010 A 
HETATM   27  C   UNL     1      -2.595   4.527 -33.730  1.00  0.00     0.007 A 
HETATM   28  C   UNL     1      -1.797   5.622 -33.392  1.00  0.00    -0.062 A 
HETATM   29  C   UNL     1      -0.784   6.167 -34.354  1.00  0.00     0.048 C 
HETATM   30  C   UNL     1      -1.954   6.207 -32.134  1.00  0.00     0.007 A 
HETATM   31  C   UNL     1      -2.920   5.728 -31.244  1.00  0.00     0.010 A 
ENDBRANCH   1  25
BRANCH   8  32
HETATM   32  C   UNL     1      -6.332   6.818 -32.158  1.00  0.00     0.409 C 
HETATM   33  F   UNL     1      -5.338   7.602 -31.707  1.00  0.00    -0.169 F 
HETATM   34  F   UNL     1      -5.904   6.246 -33.308  1.00  0.00    -0.169 F 
HETATM   35  F   UNL     1      -7.362   7.634 -32.508  1.00  0.00    -0.169 F 
ENDBRANCH   8  32
TORSDOF 6
ENDMDL
MODEL 5
REMARK VINA RESULT:      -8.3      5.040      8.119
REMARK  6 active torsions:
REMARK  status: ('A' for Active; 'I' for Inactive)
REMARK    1  A    between atoms: C_5  and  C_6 
REMARK    2  A    between atoms: C_12  and  C_13 
REMARK       I    between atoms: C_13  and  N_14 
REMARK    3  A    between atoms: N_14  and  C_15 
REMARK    4  A    between atoms: C_18  and  C_19 
REMARK    5  A    between atoms: C_19  and  O_20 
REMARK    6  A    between atoms: C_25  and  C_26 
ROOT
HETATM    1  C   UNL     1      -2.419   7.267 -33.106  1.00  0.00     0.118 C 
HETATM    2  N   UNL     1      -3.460   6.274 -33.427  1.00  0.00    -0.365 N 
HETATM    3  C   UNL     1      -3.401   5.020 -32.889  1.00  0.00     0.138 A 
HETATM    4  N   UNL     1      -2.296   4.598 -32.183  1.00  0.00    -0.240 N 
HETATM    5  N   UNL     1      -2.346   3.308 -31.817  1.00  0.00    -0.181 NA
HETATM    6  C   UNL     1      -3.551   2.917 -32.235  1.00  0.00     0.160 A 
HETATM    7  C   UNL     1      -4.261   3.934 -32.923  1.00  0.00     0.096 A 
HETATM    8  C   UNL     1      -1.070   5.357 -32.024  1.00  0.00     0.221 C 
HETATM    9  C   UNL     1      -1.058   6.562 -32.982  1.00  0.00     0.066 C 
HETATM   10  H   UNL     1      -3.761   6.351 -34.400  1.00  0.00     0.161 HD
ENDROOT
BRANCH   7  11
HETATM   11  C   UNL     1      -5.578   3.778 -33.526  1.00  0.00     0.261 C 
HETATM   12  N   UNL     1      -6.305   2.709 -33.036  1.00  0.00    -0.323 N 
HETATM   13  H   UNL     1      -5.801   2.093 -32.410  1.00  0.00     0.169 HD
HETATM   14  O   UNL     1      -5.962   4.577 -34.374  1.00  0.00    -0.267 OA
BRANCH  12  15
HETATM   15  C   UNL     1      -7.669   2.428 -33.254  1.00  0.00     0.035 A 
HETATM   16  C   UNL     1      -8.713   3.082 -32.600  1.00  0.00     0.030 A 
HETATM   17  C   UNL     1     -10.042   2.701 -32.817  1.00  0.00     0.012 A 
HETATM   18  C   UNL     1     -10.357   1.652 -33.687  1.00  0.00    -0.030 A 
HETATM   19  C   UNL     1      -9.307   1.001 -34.350  1.00  0.00     0.012 A 
HETATM   20  C   UNL     1      -7.978   1.397 -34.148  1.00  0.00     0.030 A 
BRANCH  18  21
HETATM   21  C   UNL     1     -11.796   1.211 -33.849  1.00  0.00     0.147 C 
HETATM   22  C   UNL     1     -12.339   1.549 -35.230  1.00  0.00     0.044 C 
BRANCH  21  23
HETATM   23  O   UNL     1     -12.626   1.824 -32.865  1.00  0.00    -0.391 OA
HETATM   24  H   UNL     1     -12.385   2.767 -32.846  1.00  0.00     0.210 HD
ENDBRANCH  21  23
ENDBRANCH  18  21
ENDBRANCH  12  15
ENDBRANCH   7  11
BRANCH   1  25
HETATM   25  C   UNL     1      -2.775   8.155 -31.925  1.00  0.00    -0.035 A 
HETATM   26  C   UNL     1      -1.914   9.142 -31.421  1.00  0.00     0.010 A 
HETATM   27  C   UNL     1      -2.312   9.980 -30.371  1.00  0.00     0.007 A 
HETATM   28  C   UNL     1      -3.573   9.842 -29.789  1.00  0.00    -0.062 A 
HETATM   29  C   UNL     1      -4.021  10.755 -28.687  1.00  0.00     0.048 C 
HETATM   30  C   UNL     1      -4.419   8.829 -30.247  1.00  0.00     0.007 A 
HETATM   31  C   UNL     1      -4.024   7.996 -31.298  1.00  0.00     0.010 A 
ENDBRANCH   1  25
BRANCH   8  32
HETATM   32  C   UNL     1      -0.842   5.701 -30.568  1.00  0.00     0.409 C 
HETATM   33  F   UNL     1      -1.964   5.987 -29.886  1.00  0.00    -0.169 F 
HETATM   34  F   UNL     1      -0.212   4.701 -29.908  1.00  0.00    -0.169 F 
HETATM   35  F   UNL     1      -0.025   6.784 -30.471  1.00  0.00    -0.169 F 
ENDBRANCH   8  32
TORSDOF 6
ENDMDL
MODEL 6
REMARK VINA RESULT:      -8.0      5.645      8.526
REMARK  6 active torsions:
REMARK  status: ('A' for Active; 'I' for Inactive)
REMARK    1  A    between atoms: C_5  and  C_6 
REMARK    2  A    between atoms: C_12  and  C_13 
REMARK       I    between atoms: C_13  and  N_14 
REMARK    3  A    between atoms: N_14  and  C_15 
REMARK    4  A    between atoms: C_18  and  C_19 
REMARK    5  A    between atoms: C_19  and  O_20 
REMARK    6  A    between atoms: C_25  and  C_26 
ROOT
HETATM    1  C   UNL     1      -2.680   8.036 -31.321  1.00  0.00     0.118 C 
HETATM    2  N   UNL     1      -3.695   7.028 -31.677  1.00  0.00    -0.365 N 
HETATM    3  C   UNL     1      -3.318   5.751 -31.981  1.00  0.00     0.138 A 
HETATM    4  N   UNL     1      -1.990   5.417 -32.130  1.00  0.00    -0.240 N 
HETATM    5  N   UNL     1      -1.791   4.154 -32.537  1.00  0.00    -0.181 NA
HETATM    6  C   UNL     1      -3.024   3.646 -32.574  1.00  0.00     0.160 A 
HETATM    7  C   UNL     1      -4.028   4.592 -32.247  1.00  0.00     0.096 A 
HETATM    8  C   UNL     1      -0.886   6.357 -32.096  1.00  0.00     0.221 C 
HETATM    9  C   UNL     1      -1.411   7.803 -32.157  1.00  0.00     0.066 C 
HETATM   10  H   UNL     1      -4.448   7.438 -32.233  1.00  0.00     0.161 HD
ENDROOT
BRANCH   7  11
HETATM   11  C   UNL     1      -5.462   4.330 -32.248  1.00  0.00     0.261 C 
HETATM   12  N   UNL     1      -5.850   3.295 -33.078  1.00  0.00    -0.323 N 
HETATM   13  H   UNL     1      -5.122   2.921 -33.673  1.00  0.00     0.169 HD
HETATM   14  O   UNL     1      -6.206   4.991 -31.531  1.00  0.00    -0.267 OA
BRANCH  12  15
HETATM   15  C   UNL     1      -7.111   2.668 -33.133  1.00  0.00     0.035 A 
HETATM   16  C   UNL     1      -7.426   1.492 -32.453  1.00  0.00     0.030 A 
HETATM   17  C   UNL     1      -8.680   0.888 -32.610  1.00  0.00     0.012 A 
HETATM   18  C   UNL     1      -9.643   1.444 -33.459  1.00  0.00    -0.030 A 
HETATM   19  C   UNL     1      -9.328   2.630 -34.136  1.00  0.00     0.012 A 
HETATM   20  C   UNL     1      -8.081   3.244 -33.961  1.00  0.00     0.030 A 
BRANCH  18  21
HETATM   21  C   UNL     1     -10.963   0.733 -33.668  1.00  0.00     0.147 C 
HETATM   22  C   UNL     1     -12.148   1.648 -33.394  1.00  0.00     0.044 C 
BRANCH  21  23
HETATM   23  O   UNL     1     -11.060  -0.412 -32.826  1.00  0.00    -0.391 OA
HETATM   24  H   UNL     1     -11.291  -1.162 -33.402  1.00  0.00     0.210 HD
ENDBRANCH  21  23
ENDBRANCH  18  21
ENDBRANCH  12  15
ENDBRANCH   7  11
BRANCH   1  25
HETATM   25  C   UNL     1      -2.435   8.144 -29.825  1.00  0.00    -0.035 A 
HETATM   26  C   UNL     1      -3.089   7.338 -28.880  1.00  0.00     0.010 A 
HETATM   27  C   UNL     1      -2.782   7.430 -27.517  1.00  0.00     0.007 A 
HETATM   28  C   UNL     1      -1.826   8.340 -27.062  1.00  0.00    -0.062 A 
HETATM   29  C   UNL     1      -1.467   8.424 -25.608  1.00  0.00     0.048 C 
HETATM   30  C   UNL     1      -1.205   9.183 -27.986  1.00  0.00     0.007 A 
HETATM   31  C   UNL     1      -1.508   9.089 -29.348  1.00  0.00     0.010 A 
ENDBRANCH   1  25
BRANCH   8  32
HETATM   32  C   UNL     1       0.027   6.063 -30.925  1.00  0.00     0.409 C 
HETATM   33  F   UNL     1       0.702   7.131 -30.468  1.00  0.00    -0.169 F 
HETATM   34  F   UNL     1      -0.653   5.537 -29.878  1.00  0.00    -0.169 F 
HETATM   35  F   UNL     1       0.946   5.126 -31.280  1.00  0.00    -0.169 F 
ENDBRANCH   8  32
TORSDOF 6
ENDMDL
MODEL 7
REMARK VINA RESULT:      -8.0      4.373      8.310
REMARK  6 active torsions:
REMARK  status: ('A' for Active; 'I' for Inactive)
REMARK    1  A    between atoms: C_5  and  C_6 
REMARK    2  A    between atoms: C_12  and  C_13 
REMARK       I    between atoms: C_13  and  N_14 
REMARK    3  A    between atoms: N_14  and  C_15 
REMARK    4  A    between atoms: C_18  and  C_19 
REMARK    5  A    between atoms: C_19  and  O_20 
REMARK    6  A    between atoms: C_25  and  C_26 
ROOT
HETATM    1  C   UNL     1      -5.874   4.483 -29.164  1.00  0.00     0.118 C 
HETATM    2  N   UNL     1      -6.566   3.384 -29.862  1.00  0.00    -0.365 N 
HETATM    3  C   UNL     1      -7.831   3.566 -30.344  1.00  0.00     0.138 A 
HETATM    4  N   UNL     1      -8.551   4.702 -30.047  1.00  0.00    -0.240 N 
HETATM    5  N   UNL     1      -9.813   4.679 -30.502  1.00  0.00    -0.181 NA
HETATM    6  C   UNL     1      -9.876   3.528 -31.174  1.00  0.00     0.160 A 
HETATM    7  C   UNL     1      -8.675   2.777 -31.108  1.00  0.00     0.096 A 
HETATM    8  C   UNL     1      -8.119   5.747 -29.138  1.00  0.00     0.221 C 
HETATM    9  C   UNL     1      -6.891   5.285 -28.335  1.00  0.00     0.066 C 
HETATM   10  H   UNL     1      -6.354   2.481 -29.435  1.00  0.00     0.161 HD
ENDROOT
BRANCH   7  11
HETATM   11  C   UNL     1      -8.471   1.465 -31.710  1.00  0.00     0.261 C 
HETATM   12  N   UNL     1      -7.518   1.441 -32.712  1.00  0.00    -0.323 N 
HETATM   13  H   UNL     1      -7.162   2.346 -32.993  1.00  0.00     0.169 HD
HETATM   14  O   UNL     1      -9.103   0.498 -31.300  1.00  0.00    -0.267 OA
BRANCH  12  15
HETATM   15  C   UNL     1      -6.948   0.307 -33.325  1.00  0.00     0.035 A 
HETATM   16  C   UNL     1      -7.525  -0.371 -34.397  1.00  0.00     0.030 A 
HETATM   17  C   UNL     1      -6.934  -1.532 -34.911  1.00  0.00     0.012 A 
HETATM   18  C   UNL     1      -5.757  -2.045 -34.356  1.00  0.00    -0.030 A 
HETATM   19  C   UNL     1      -5.173  -1.357 -33.282  1.00  0.00     0.012 A 
HETATM   20  C   UNL     1      -5.754  -0.184 -32.784  1.00  0.00     0.030 A 
BRANCH  18  21
HETATM   21  C   UNL     1      -5.178  -3.341 -34.881  1.00  0.00     0.147 C 
HETATM   22  C   UNL     1      -6.264  -4.365 -35.182  1.00  0.00     0.044 C 
BRANCH  21  23
HETATM   23  O   UNL     1      -4.261  -3.903 -33.945  1.00  0.00    -0.391 OA
HETATM   24  H   UNL     1      -4.570  -4.808 -33.764  1.00  0.00     0.210 HD
ENDBRANCH  21  23
ENDBRANCH  18  21
ENDBRANCH  12  15
ENDBRANCH   7  11
BRANCH   1  25
HETATM   25  C   UNL     1      -5.008   5.330 -30.082  1.00  0.00    -0.035 A 
HETATM   26  C   UNL     1      -4.280   6.444 -29.637  1.00  0.00     0.010 A 
HETATM   27  C   UNL     1      -3.445   7.156 -30.506  1.00  0.00     0.007 A 
HETATM   28  C   UNL     1      -3.328   6.782 -31.847  1.00  0.00    -0.062 A 
HETATM   29  C   UNL     1      -2.411   7.518 -32.778  1.00  0.00     0.048 C 
HETATM   30  C   UNL     1      -4.087   5.707 -32.314  1.00  0.00     0.007 A 
HETATM   31  C   UNL     1      -4.918   4.994 -31.445  1.00  0.00     0.010 A 
ENDBRANCH   1  25
BRANCH   8  32
HETATM   32  C   UNL     1      -7.938   7.054 -29.879  1.00  0.00     0.409 C 
HETATM   33  F   UNL     1      -9.054   7.797 -29.969  1.00  0.00    -0.169 F 
HETATM   34  F   UNL     1      -6.984   7.827 -29.308  1.00  0.00    -0.169 F 
HETATM   35  F   UNL     1      -7.511   6.812 -31.147  1.00  0.00    -0.169 F 
ENDBRANCH   8  32
TORSDOF 6
ENDMDL
MODEL 8
REMARK VINA RESULT:      -8.0      5.099      8.665
REMARK  6 active torsions:
REMARK  status: ('A' for Active; 'I' for Inactive)
REMARK    1  A    between atoms: C_5  and  C_6 
REMARK    2  A    between atoms: C_12  and  C_13 
REMARK       I    between atoms: C_13  and  N_14 
REMARK    3  A    between atoms: N_14  and  C_15 
REMARK    4  A    between atoms: C_18  and  C_19 
REMARK    5  A    between atoms: C_19  and  O_20 
REMARK    6  A    between atoms: C_25  and  C_26 
ROOT
HETATM    1  C   UNL     1      -6.591   1.324 -34.666  1.00  0.00     0.118 C 
HETATM    2  N   UNL     1      -6.360   2.597 -33.961  1.00  0.00    -0.365 N 
HETATM    3  C   UNL     1      -7.200   2.988 -32.957  1.00  0.00     0.138 A 
HETATM    4  N   UNL     1      -8.366   2.304 -32.696  1.00  0.00    -0.240 N 
HETATM    5  N   UNL     1      -9.133   2.877 -31.757  1.00  0.00    -0.181 NA
HETATM    6  C   UNL     1      -8.399   3.916 -31.354  1.00  0.00     0.160 A 
HETATM    7  C   UNL     1      -7.182   4.051 -32.069  1.00  0.00     0.096 A 
HETATM    8  C   UNL     1      -8.879   1.201 -33.487  1.00  0.00     0.221 C 
HETATM    9  C   UNL     1      -8.103   1.085 -34.812  1.00  0.00     0.066 C 
HETATM   10  H   UNL     1      -6.025   3.321 -34.599  1.00  0.00     0.161 HD
ENDROOT
BRANCH   7  11
HETATM   11  C   UNL     1      -6.206   5.115 -31.873  1.00  0.00     0.261 C 
HETATM   12  N   UNL     1      -5.546   5.065 -30.659  1.00  0.00    -0.323 N 
HETATM   13  H   UNL     1      -5.896   4.377 -30.004  1.00  0.00     0.169 HD
HETATM   14  O   UNL     1      -6.014   5.941 -32.759  1.00  0.00    -0.267 OA
BRANCH  12  15
HETATM   15  C   UNL     1      -4.414   5.808 -30.268  1.00  0.00     0.035 A 
HETATM   16  C   UNL     1      -4.433   6.796 -29.285  1.00  0.00     0.030 A 
HETATM   17  C   UNL     1      -3.283   7.541 -28.997  1.00  0.00     0.012 A 
HETATM   18  C   UNL     1      -2.090   7.319 -29.694  1.00  0.00    -0.030 A 
HETATM   19  C   UNL     1      -2.070   6.320 -30.677  1.00  0.00     0.012 A 
HETATM   20  C   UNL     1      -3.216   5.561 -30.948  1.00  0.00     0.030 A 
BRANCH  18  21
HETATM   21  C   UNL     1      -0.882   8.187 -29.415  1.00  0.00     0.147 C 
HETATM   22  C   UNL     1       0.398   7.366 -29.332  1.00  0.00     0.044 C 
BRANCH  21  23
HETATM   23  O   UNL     1      -1.046   8.908 -28.196  1.00  0.00    -0.391 OA
HETATM   24  H   UNL     1      -0.976   9.852 -28.420  1.00  0.00     0.210 HD
ENDBRANCH  21  23
ENDBRANCH  18  21
ENDBRANCH  12  15
ENDBRANCH   7  11
BRANCH   1  25
HETATM   25  C   UNL     1      -5.827   0.154 -34.068  1.00  0.00    -0.035 A 
HETATM   26  C   UNL     1      -5.874  -1.144 -34.599  1.00  0.00     0.010 A 
HETATM   27  C   UNL     1      -5.102  -2.177 -34.051  1.00  0.00     0.007 A 
HETATM   28  C   UNL     1      -4.276  -1.941 -32.951  1.00  0.00    -0.062 A 
HETATM   29  C   UNL     1      -3.421  -3.032 -32.378  1.00  0.00     0.048 C 
HETATM   30  C   UNL     1      -4.260  -0.666 -32.382  1.00  0.00     0.007 A 
HETATM   31  C   UNL     1      -5.027   0.366 -32.931  1.00  0.00     0.010 A 
ENDBRANCH   1  25
BRANCH   8  32
HETATM   32  C   UNL     1      -8.922  -0.069 -32.664  1.00  0.00     0.409 C 
HETATM   33  F   UNL     1     -10.117  -0.325 -32.107  1.00  0.00    -0.169 F 
HETATM   34  F   UNL     1      -8.577  -1.154 -33.397  1.00  0.00    -0.169 F 
HETATM   35  F   UNL     1      -8.014   0.003 -31.655  1.00  0.00    -0.169 F 
ENDBRANCH   8  32
TORSDOF 6
ENDMDL
MODEL 9
REMARK VINA RESULT:      -7.8     16.533     18.921
REMARK  6 active torsions:
REMARK  status: ('A' for Active; 'I' for Inactive)
REMARK    1  A    between atoms: C_5  and  C_6 
REMARK    2  A    between atoms: C_12  and  C_13 
REMARK       I    between atoms: C_13  and  N_14 
REMARK    3  A    between atoms: N_14  and  C_15 
REMARK    4  A    between atoms: C_18  and  C_19 
REMARK    5  A    between atoms: C_19  and  O_20 
REMARK    6  A    between atoms: C_25  and  C_26 
ROOT
HETATM    1  C   UNL     1      -7.208 -15.434 -38.991  1.00  0.00     0.118 C 
HETATM    2  N   UNL     1      -6.612 -15.155 -37.672  1.00  0.00    -0.365 N 
HETATM    3  C   UNL     1      -5.421 -14.491 -37.584  1.00  0.00     0.138 A 
HETATM    4  N   UNL     1      -4.671 -14.220 -38.706  1.00  0.00    -0.240 N 
HETATM    5  N   UNL     1      -3.479 -13.663 -38.441  1.00  0.00    -0.181 NA
HETATM    6  C   UNL     1      -3.504 -13.504 -37.116  1.00  0.00     0.160 A 
HETATM    7  C   UNL     1      -4.684 -14.008 -36.515  1.00  0.00     0.096 A 
HETATM    8  C   UNL     1      -4.981 -14.682 -40.046  1.00  0.00     0.221 C 
HETATM    9  C   UNL     1      -6.093 -15.745 -40.003  1.00  0.00     0.066 C 
HETATM   10  H   UNL     1      -6.765 -15.929 -37.023  1.00  0.00     0.161 HD
ENDROOT
BRANCH   7  11
HETATM   11  C   UNL     1      -4.964 -14.009 -35.084  1.00  0.00     0.261 C 
HETATM   12  N   UNL     1      -5.160 -15.266 -34.544  1.00  0.00    -0.323 N 
HETATM   13  H   UNL     1      -5.207 -16.024 -35.215  1.00  0.00     0.169 HD
HETATM   14  O   UNL     1      -4.983 -12.952 -34.463  1.00  0.00    -0.267 OA
BRANCH  12  15
HETATM   15  C   UNL     1      -5.231 -15.612 -33.179  1.00  0.00     0.035 A 
HETATM   16  C   UNL     1      -4.198 -15.398 -32.268  1.00  0.00     0.030 A 
HETATM   17  C   UNL     1      -4.313 -15.830 -30.941  1.00  0.00     0.012 A 
HETATM   18  C   UNL     1      -5.463 -16.494 -30.500  1.00  0.00    -0.030 A 
HETATM   19  C   UNL     1      -6.504 -16.702 -31.416  1.00  0.00     0.012 A 
HETATM   20  C   UNL     1      -6.395 -16.250 -32.737  1.00  0.00     0.030 A 
BRANCH  18  21
HETATM   21  C   UNL     1      -5.533 -17.016 -29.081  1.00  0.00     0.147 C 
HETATM   22  C   UNL     1      -6.968 -17.290 -28.649  1.00  0.00     0.044 C 
BRANCH  21  23
HETATM   23  O   UNL     1      -4.947 -16.089 -28.170  1.00  0.00    -0.391 OA
HETATM   24  H   UNL     1      -4.152 -16.520 -27.809  1.00  0.00     0.210 HD
ENDBRANCH  21  23
ENDBRANCH  18  21
ENDBRANCH  12  15
ENDBRANCH   7  11
BRANCH   1  25
HETATM   25  C   UNL     1      -8.189 -14.367 -39.449  1.00  0.00    -0.035 A 
HETATM   26  C   UNL     1      -9.159 -14.590 -40.438  1.00  0.00     0.010 A 
HETATM   27  C   UNL     1     -10.083 -13.596 -40.782  1.00  0.00     0.007 A 
HETATM   28  C   UNL     1     -10.051 -12.348 -40.156  1.00  0.00    -0.062 A 
HETATM   29  C   UNL     1     -11.057 -11.287 -40.494  1.00  0.00     0.048 C 
HETATM   30  C   UNL     1      -9.058 -12.096 -39.207  1.00  0.00     0.007 A 
HETATM   31  C   UNL     1      -8.138 -13.090 -38.861  1.00  0.00     0.010 A 
ENDBRANCH   1  25
BRANCH   8  32
HETATM   32  C   UNL     1      -5.261 -13.509 -40.961  1.00  0.00     0.409 C 
HETATM   33  F   UNL     1      -6.289 -13.699 -41.804  1.00  0.00    -0.169 F 
HETATM   34  F   UNL     1      -5.515 -12.377 -40.264  1.00  0.00    -0.169 F 
HETATM   35  F   UNL     1      -4.163 -13.242 -41.718  1.00  0.00    -0.169 F 
ENDBRANCH   8  32
TORSDOF 6
ENDMDL
MODEL 10
REMARK VINA RESULT:      -7.7      5.620      8.831
REMARK  6 active torsions:
REMARK  status: ('A' for Active; 'I' for Inactive)
REMARK    1  A    between atoms: C_5  and  C_6 
REMARK    2  A    between atoms: C_12  and  C_13 
REMARK       I    between atoms: C_13  and  N_14 
REMARK    3  A    between atoms: N_14  and  C_15 
REMARK    4  A    between atoms: C_18  and  C_19 
REMARK    5  A    between atoms: C_19  and  O_20 
REMARK    6  A    between atoms: C_25  and  C_26 
ROOT
HETATM    1  C   UNL     1      -5.732   1.896 -33.486  1.00  0.00     0.118 C 
HETATM    2  N   UNL     1      -5.462   3.009 -32.559  1.00  0.00    -0.365 N 
HETATM    3  C   UNL     1      -6.336   3.288 -31.547  1.00  0.00     0.138 A 
HETATM    4  N   UNL     1      -7.559   2.660 -31.469  1.00  0.00    -0.240 N 
HETATM    5  N   UNL     1      -8.345   3.123 -30.484  1.00  0.00    -0.181 NA
HETATM    6  C   UNL     1      -7.570   4.018 -29.869  1.00  0.00     0.160 A 
HETATM    7  C   UNL     1      -6.304   4.179 -30.487  1.00  0.00     0.096 A 
HETATM    8  C   UNL     1      -8.093   1.751 -32.465  1.00  0.00     0.221 C 
HETATM    9  C   UNL     1      -7.245   1.803 -33.748  1.00  0.00     0.066 C 
HETATM   10  H   UNL     1      -5.039   3.803 -33.043  1.00  0.00     0.161 HD
ENDROOT
BRANCH   7  11
HETATM   11  C   UNL     1      -5.273   5.116 -30.058  1.00  0.00     0.261 C 
HETATM   12  N   UNL     1      -5.660   5.958 -29.033  1.00  0.00    -0.323 N 
HETATM   13  H   UNL     1      -6.640   5.911 -28.781  1.00  0.00     0.169 HD
HETATM   14  O   UNL     1      -4.166   5.092 -30.585  1.00  0.00    -0.267 OA
BRANCH  12  15
HETATM   15  C   UNL     1      -4.840   6.808 -28.265  1.00  0.00     0.035 A 
HETATM   16  C   UNL     1      -4.104   7.867 -28.796  1.00  0.00     0.030 A 
HETATM   17  C   UNL     1      -3.256   8.628 -27.983  1.00  0.00     0.012 A 
HETATM   18  C   UNL     1      -3.118   8.340 -26.621  1.00  0.00    -0.030 A 
HETATM   19  C   UNL     1      -3.864   7.280 -26.086  1.00  0.00     0.012 A 
HETATM   20  C   UNL     1      -4.729   6.534 -26.897  1.00  0.00     0.030 A 
BRANCH  18  21
HETATM   21  C   UNL     1      -2.140   9.130 -25.779  1.00  0.00     0.147 C 
HETATM   22  C   UNL     1      -2.349   8.886 -24.290  1.00  0.00     0.044 C 
BRANCH  21  23
HETATM   23  O   UNL     1      -2.261  10.527 -26.038  1.00  0.00    -0.391 OA
HETATM   24  H   UNL     1      -1.359  10.860 -26.190  1.00  0.00     0.210 HD
ENDBRANCH  21  23
ENDBRANCH  18  21
ENDBRANCH  12  15
ENDBRANCH   7  11
BRANCH   1  25
HETATM   25  C   UNL     1      -5.088   0.587 -33.063  1.00  0.00    -0.035 A 
HETATM   26  C   UNL     1      -5.238  -0.610 -33.781  1.00  0.00     0.010 A 
HETATM   27  C   UNL     1      -4.573  -1.777 -33.388  1.00  0.00     0.007 A 
HETATM   28  C   UNL     1      -3.753  -1.783 -32.258  1.00  0.00    -0.062 A 
HETATM   29  C   UNL     1      -3.011  -3.020 -31.847  1.00  0.00     0.048 C 
HETATM   30  C   UNL     1      -3.637  -0.612 -31.505  1.00  0.00     0.007 A 
HETATM   31  C   UNL     1      -4.297   0.554 -31.900  1.00  0.00     0.010 A 
ENDBRANCH   1  25
BRANCH   8  32
HETATM   32  C   UNL     1      -8.274   0.367 -31.880  1.00  0.00     0.409 C 
HETATM   33  F   UNL     1      -9.464   0.169 -31.287  1.00  0.00    -0.169 F 
HETATM   34  F   UNL     1      -8.125  -0.598 -32.817  1.00  0.00    -0.169 F 
HETATM   35  F   UNL     1      -7.314   0.131 -30.946  1.00  0.00    -0.169 F 
ENDBRANCH   8  32
TORSDOF 6
ENDMDL
