MODEL 1
REMARK VINA RESULT:      -8.4      0.000      0.000
REMARK  4 active torsions:
REMARK  status: ('A' for Active; 'I' for Inactive)
REMARK    1  A    between atoms: O_2  and  C_3 
REMARK    2  A    between atoms: C_4  and  C_5 
REMARK    3  A    between atoms: C_9  and  N_10 
REMARK    4  A    between atoms: C_13  and  C_14 
ROOT
HETATM    1  C   UNL     1      -6.314   0.513 -32.002  1.00  0.00     0.167 C 
HETATM    2  N   UNL     1      -7.600   1.089 -32.373  1.00  0.00    -0.074 N 
HETATM    3  C   UNL     1      -7.760   2.312 -32.969  1.00  0.00     0.736 A 
HETATM    4  N   UNL     1      -9.031   2.504 -33.203  1.00  0.00     0.131 NA
HETATM    5  C   UNL     1      -9.613   1.384 -32.684  1.00  0.00     0.753 A 
HETATM    6  N   UNL     1      -8.781   0.478 -32.177  1.00  0.00     0.037 NA
HETATM    7  N   UNL     1      -6.704   3.109 -33.226  1.00  0.00    -0.214 N 
HETATM    8  C   UNL     1      -5.350   2.569 -33.150  1.00  0.00     0.135 C 
HETATM    9  C   UNL     1      -5.232   1.610 -31.950  1.00  0.00     0.063 C 
HETATM   10  H   UNL     1      -6.849   3.877 -33.876  1.00  0.00     0.178 HD
ENDROOT
BRANCH   1  11
HETATM   11  C   UNL     1      -5.913  -0.646 -32.910  1.00  0.00     0.001 A 
HETATM   12  C   UNL     1      -4.743  -1.374 -32.637  1.00  0.00     0.076 A 
HETATM   13  C   UNL     1      -4.312  -2.396 -33.489  1.00  0.00     0.037 A 
HETATM   14  C   UNL     1      -5.066  -2.732 -34.612  1.00  0.00     0.003 A 
HETATM   15  C   UNL     1      -6.242  -2.041 -34.886  1.00  0.00     0.001 A 
HETATM   16  C   UNL     1      -6.660  -1.005 -34.047  1.00  0.00     0.012 A 
BRANCH  12  17
HETATM   17  O   UNL     1      -3.987  -1.019 -31.549  1.00  0.00    -0.355 OA
HETATM   18  C   UNL     1      -2.591  -1.034 -31.856  1.00  0.00     0.210 C 
ENDBRANCH  12  17
ENDBRANCH   1  11
BRANCH   8  19
HETATM   19  C   UNL     1      -4.339   3.698 -33.045  1.00  0.00    -0.035 A 
HETATM   20  C   UNL     1      -3.067   3.503 -32.479  1.00  0.00     0.010 A 
HETATM   21  C   UNL     1      -2.152   4.556 -32.398  1.00  0.00     0.019 A 
HETATM   22  C   UNL     1      -2.496   5.811 -32.895  1.00  0.00     0.011 A 
HETATM   23 BR   UNL     1      -1.260   7.236 -32.784  1.00  0.00    -0.051 Br
HETATM   24  C   UNL     1      -3.744   6.021 -33.474  1.00  0.00     0.019 A 
HETATM   25  C   UNL     1      -4.661   4.969 -33.551  1.00  0.00     0.010 A 
ENDBRANCH   8  19
BRANCH   5  26
HETATM   26  N   UNL     1     -10.935   1.265 -32.753  1.00  0.00    -0.229 N 
HETATM   27  H   UNL     1     -11.299   0.620 -33.440  1.00  0.00     0.174 HD
HETATM   28  H   UNL     1     -11.442   1.293 -31.879  1.00  0.00     0.174 HD
ENDBRANCH   5  26
TORSDOF 4
ENDMDL
MODEL 2
REMARK VINA RESULT:      -8.4      4.109      6.665
REMARK  4 active torsions:
REMARK  status: ('A' for Active; 'I' for Inactive)
REMARK    1  A    between atoms: O_2  and  C_3 
REMARK    2  A    between atoms: C_4  and  C_5 
REMARK    3  A    between atoms: C_9  and  N_10 
REMARK    4  A    between atoms: C_13  and  C_14 
ROOT
HETATM    1  C   UNL     1     -10.038   1.507 -32.336  1.00  0.00     0.167 C 
HETATM    2  N   UNL     1      -9.278   2.519 -31.612  1.00  0.00    -0.074 N 
HETATM    3  C   UNL     1      -7.912   2.605 -31.602  1.00  0.00     0.736 A 
HETATM    4  N   UNL     1      -7.560   3.645 -30.894  1.00  0.00     0.131 NA
HETATM    5  C   UNL     1      -8.754   4.134 -30.450  1.00  0.00     0.753 A 
HETATM    6  N   UNL     1      -9.839   3.492 -30.873  1.00  0.00     0.037 NA
HETATM    7  N   UNL     1      -7.149   1.705 -32.253  1.00  0.00    -0.214 N 
HETATM    8  C   UNL     1      -7.759   0.800 -33.221  1.00  0.00     0.135 C 
HETATM    9  C   UNL     1      -9.128   0.318 -32.703  1.00  0.00     0.063 C 
HETATM   10  H   UNL     1      -6.175   1.951 -32.414  1.00  0.00     0.178 HD
ENDROOT
BRANCH   1  11
HETATM   11  C   UNL     1     -10.752   2.080 -33.556  1.00  0.00     0.001 A 
HETATM   12  C   UNL     1     -11.894   1.437 -34.063  1.00  0.00     0.076 A 
HETATM   13  C   UNL     1     -12.530   1.898 -35.220  1.00  0.00     0.037 A 
HETATM   14  C   UNL     1     -12.055   3.035 -35.871  1.00  0.00     0.003 A 
HETATM   15  C   UNL     1     -10.941   3.703 -35.371  1.00  0.00     0.001 A 
HETATM   16  C   UNL     1     -10.293   3.229 -34.227  1.00  0.00     0.012 A 
BRANCH  12  17
HETATM   17  O   UNL     1     -12.338   0.300 -33.438  1.00  0.00    -0.355 OA
HETATM   18  C   UNL     1     -13.714   0.045 -33.735  1.00  0.00     0.210 C 
ENDBRANCH  12  17
ENDBRANCH   1  11
BRANCH   8  19
HETATM   19  C   UNL     1      -6.837  -0.376 -33.496  1.00  0.00    -0.035 A 
HETATM   20  C   UNL     1      -7.189  -1.400 -34.393  1.00  0.00     0.010 A 
HETATM   21  C   UNL     1      -6.322  -2.469 -34.633  1.00  0.00     0.019 A 
HETATM   22  C   UNL     1      -5.089  -2.517 -33.987  1.00  0.00     0.011 A 
HETATM   23 BR   UNL     1      -3.916  -3.964 -34.311  1.00  0.00    -0.051 Br
HETATM   24  C   UNL     1      -4.714  -1.505 -33.109  1.00  0.00     0.019 A 
HETATM   25  C   UNL     1      -5.583  -0.438 -32.865  1.00  0.00     0.010 A 
ENDBRANCH   8  19
BRANCH   5  26
HETATM   26  N   UNL     1      -8.750   5.215 -29.675  1.00  0.00    -0.229 N 
HETATM   27  H   UNL     1      -9.425   5.239 -28.924  1.00  0.00     0.174 HD
HETATM   28  H   UNL     1      -7.849   5.617 -29.457  1.00  0.00     0.174 HD
ENDBRANCH   5  26
TORSDOF 4
ENDMDL
MODEL 3
REMARK VINA RESULT:      -8.2      3.307      6.168
REMARK  4 active torsions:
REMARK  status: ('A' for Active; 'I' for Inactive)
REMARK    1  A    between atoms: O_2  and  C_3 
REMARK    2  A    between atoms: C_4  and  C_5 
REMARK    3  A    between atoms: C_9  and  N_10 
REMARK    4  A    between atoms: C_13  and  C_14 
ROOT
HETATM    1  C   UNL     1      -7.866   2.539 -33.917  1.00  0.00     0.167 C 
HETATM    2  N   UNL     1      -9.235   2.057 -33.782  1.00  0.00    -0.074 N 
HETATM    3  C   UNL     1      -9.578   0.766 -33.483  1.00  0.00     0.736 A 
HETATM    4  N   UNL     1     -10.879   0.683 -33.397  1.00  0.00     0.131 NA
HETATM    5  C   UNL     1     -11.289   1.949 -33.702  1.00  0.00     0.753 A 
HETATM    6  N   UNL     1     -10.322   2.834 -33.931  1.00  0.00     0.037 NA
HETATM    7  N   UNL     1      -8.640  -0.189 -33.325  1.00  0.00    -0.214 N 
HETATM    8  C   UNL     1      -7.238   0.188 -33.175  1.00  0.00     0.135 C 
HETATM    9  C   UNL     1      -6.901   1.355 -34.123  1.00  0.00     0.063 C 
HETATM   10  H   UNL     1      -8.927  -1.053 -32.872  1.00  0.00     0.178 HD
ENDROOT
BRANCH   1  11
HETATM   11  C   UNL     1      -7.445   3.425 -32.749  1.00  0.00     0.001 A 
HETATM   12  C   UNL     1      -6.668   4.571 -32.986  1.00  0.00     0.076 A 
HETATM   13  C   UNL     1      -6.208   5.365 -31.930  1.00  0.00     0.037 A 
HETATM   14  C   UNL     1      -6.550   5.045 -30.618  1.00  0.00     0.003 A 
HETATM   15  C   UNL     1      -7.341   3.929 -30.362  1.00  0.00     0.001 A 
HETATM   16  C   UNL     1      -7.781   3.124 -31.416  1.00  0.00     0.012 A 
BRANCH  12  17
HETATM   17  O   UNL     1      -6.308   4.864 -34.277  1.00  0.00    -0.355 OA
HETATM   18  C   UNL     1      -4.886   4.877 -34.431  1.00  0.00     0.210 C 
ENDBRANCH  12  17
ENDBRANCH   1  11
BRANCH   8  19
HETATM   19  C   UNL     1      -6.340  -1.009 -33.445  1.00  0.00    -0.035 A 
HETATM   20  C   UNL     1      -6.722  -2.038 -34.324  1.00  0.00     0.010 A 
HETATM   21  C   UNL     1      -5.878  -3.126 -34.560  1.00  0.00     0.019 A 
HETATM   22  C   UNL     1      -4.639  -3.189 -33.927  1.00  0.00     0.011 A 
HETATM   23 BR   UNL     1      -3.498  -4.662 -34.244  1.00  0.00    -0.051 Br
HETATM   24  C   UNL     1      -4.235  -2.173 -33.066  1.00  0.00     0.019 A 
HETATM   25  C   UNL     1      -5.082  -1.087 -32.827  1.00  0.00     0.010 A 
ENDBRANCH   8  19
BRANCH   5  26
HETATM   26  N   UNL     1     -12.592   2.210 -33.712  1.00  0.00    -0.229 N 
HETATM   27  H   UNL     1     -12.966   2.693 -32.907  1.00  0.00     0.174 HD
HETATM   28  H   UNL     1     -12.997   2.475 -34.599  1.00  0.00     0.174 HD
ENDBRANCH   5  26
TORSDOF 4
ENDMDL
MODEL 4
REMARK VINA RESULT:      -8.2      1.746      2.068
REMARK  4 active torsions:
REMARK  status: ('A' for Active; 'I' for Inactive)
REMARK    1  A    between atoms: O_2  and  C_3 
REMARK    2  A    between atoms: C_4  and  C_5 
REMARK    3  A    between atoms: C_9  and  N_10 
REMARK    4  A    between atoms: C_13  and  C_14 
ROOT
HETATM    1  C   UNL     1      -6.418   1.484 -31.411  1.00  0.00     0.167 C 
HETATM    2  N   UNL     1      -7.519   2.413 -31.186  1.00  0.00    -0.074 N 
HETATM    3  C   UNL     1      -7.415   3.775 -31.279  1.00  0.00     0.736 A 
HETATM    4  N   UNL     1      -8.590   4.303 -31.059  1.00  0.00     0.131 NA
HETATM    5  C   UNL     1      -9.370   3.216 -30.787  1.00  0.00     0.753 A 
HETATM    6  N   UNL     1      -8.768   2.033 -30.867  1.00  0.00     0.037 NA
HETATM    7  N   UNL     1      -6.239   4.371 -31.557  1.00  0.00    -0.214 N 
HETATM    8  C   UNL     1      -5.122   3.576 -32.055  1.00  0.00     0.135 C 
HETATM    9  C   UNL     1      -5.068   2.222 -31.321  1.00  0.00     0.063 C 
HETATM   10  H   UNL     1      -6.269   5.344 -31.850  1.00  0.00     0.178 HD
ENDROOT
BRANCH   1  11
HETATM   11  C   UNL     1      -6.565   0.716 -32.722  1.00  0.00     0.001 A 
HETATM   12  C   UNL     1      -6.002  -0.565 -32.848  1.00  0.00     0.076 A 
HETATM   13  C   UNL     1      -6.060  -1.264 -34.058  1.00  0.00     0.037 A 
HETATM   14  C   UNL     1      -6.716  -0.708 -35.154  1.00  0.00     0.003 A 
HETATM   15  C   UNL     1      -7.303   0.549 -35.043  1.00  0.00     0.001 A 
HETATM   16  C   UNL     1      -7.226   1.257 -33.841  1.00  0.00     0.012 A 
BRANCH  12  17
HETATM   17  O   UNL     1      -5.331  -1.095 -31.776  1.00  0.00    -0.355 OA
HETATM   18  C   UNL     1      -3.979  -1.417 -32.115  1.00  0.00     0.210 C 
ENDBRANCH  12  17
ENDBRANCH   1  11
BRANCH   8  19
HETATM   19  C   UNL     1      -3.818   4.339 -31.886  1.00  0.00    -0.035 A 
HETATM   20  C   UNL     1      -2.693   4.067 -32.685  1.00  0.00     0.010 A 
HETATM   21  C   UNL     1      -1.506   4.784 -32.515  1.00  0.00     0.019 A 
HETATM   22  C   UNL     1      -1.438   5.789 -31.552  1.00  0.00     0.011 A 
HETATM   23 BR   UNL     1       0.169   6.758 -31.320  1.00  0.00    -0.051 Br
HETATM   24  C   UNL     1      -2.545   6.084 -30.762  1.00  0.00     0.019 A 
HETATM   25  C   UNL     1      -3.731   5.363 -30.930  1.00  0.00     0.010 A 
ENDBRANCH   8  19
BRANCH   5  26
HETATM   26  N   UNL     1     -10.655   3.410 -30.506  1.00  0.00    -0.229 N 
HETATM   27  H   UNL     1     -10.931   3.303 -29.540  1.00  0.00     0.174 HD
HETATM   28  H   UNL     1     -11.126   4.150 -31.008  1.00  0.00     0.174 HD
ENDBRANCH   5  26
TORSDOF 4
ENDMDL
MODEL 5
REMARK VINA RESULT:      -8.1      3.488      6.414
REMARK  4 active torsions:
REMARK  status: ('A' for Active; 'I' for Inactive)
REMARK    1  A    between atoms: O_2  and  C_3 
REMARK    2  A    between atoms: C_4  and  C_5 
REMARK    3  A    between atoms: C_9  and  N_10 
REMARK    4  A    between atoms: C_13  and  C_14 
ROOT
HETATM    1  C   UNL     1      -5.485   3.879 -32.639  1.00  0.00     0.167 C 
HETATM    2  N   UNL     1      -6.257   3.873 -31.402  1.00  0.00    -0.074 N 
HETATM    3  C   UNL     1      -6.682   2.742 -30.758  1.00  0.00     0.736 A 
HETATM    4  N   UNL     1      -7.307   3.089 -29.665  1.00  0.00     0.131 NA
HETATM    5  C   UNL     1      -7.279   4.453 -29.713  1.00  0.00     0.753 A 
HETATM    6  N   UNL     1      -6.635   4.985 -30.748  1.00  0.00     0.037 NA
HETATM    7  N   UNL     1      -6.440   1.516 -31.262  1.00  0.00    -0.214 N 
HETATM    8  C   UNL     1      -5.470   1.352 -32.341  1.00  0.00     0.135 C 
HETATM    9  C   UNL     1      -5.597   2.514 -33.345  1.00  0.00     0.063 C 
HETATM   10  H   UNL     1      -6.558   0.724 -30.636  1.00  0.00     0.178 HD
ENDROOT
BRANCH   1  11
HETATM   11  C   UNL     1      -4.033   4.291 -32.415  1.00  0.00     0.001 A 
HETATM   12  C   UNL     1      -3.439   5.244 -33.260  1.00  0.00     0.076 A 
HETATM   13  C   UNL     1      -2.091   5.590 -33.124  1.00  0.00     0.037 A 
HETATM   14  C   UNL     1      -1.322   5.017 -32.114  1.00  0.00     0.003 A 
HETATM   15  C   UNL     1      -1.897   4.091 -31.249  1.00  0.00     0.001 A 
HETATM   16  C   UNL     1      -3.238   3.728 -31.399  1.00  0.00     0.012 A 
BRANCH  12  17
HETATM   17  O   UNL     1      -4.191   5.782 -34.273  1.00  0.00    -0.355 OA
HETATM   18  C   UNL     1      -3.859   5.199 -35.536  1.00  0.00     0.210 C 
ENDBRANCH  12  17
ENDBRANCH   1  11
BRANCH   8  19
HETATM   19  C   UNL     1      -5.670   0.012 -33.029  1.00  0.00    -0.035 A 
HETATM   20  C   UNL     1      -4.608  -0.888 -33.220  1.00  0.00     0.010 A 
HETATM   21  C   UNL     1      -4.817  -2.116 -33.852  1.00  0.00     0.019 A 
HETATM   22  C   UNL     1      -6.095  -2.461 -34.288  1.00  0.00     0.011 A 
HETATM   23 BR   UNL     1      -6.379  -4.122 -35.144  1.00  0.00    -0.051 Br
HETATM   24  C   UNL     1      -7.163  -1.591 -34.094  1.00  0.00     0.019 A 
HETATM   25  C   UNL     1      -6.953  -0.360 -33.466  1.00  0.00     0.010 A 
ENDBRANCH   8  19
BRANCH   5  26
HETATM   26  N   UNL     1      -7.851   5.136 -28.727  1.00  0.00    -0.229 N 
HETATM   27  H   UNL     1      -7.281   5.330 -27.916  1.00  0.00     0.174 HD
HETATM   28  H   UNL     1      -8.486   5.876 -28.993  1.00  0.00     0.174 HD
ENDBRANCH   5  26
TORSDOF 4
ENDMDL
MODEL 6
REMARK VINA RESULT:      -8.0      1.817      2.384
REMARK  4 active torsions:
REMARK  status: ('A' for Active; 'I' for Inactive)
REMARK    1  A    between atoms: O_2  and  C_3 
REMARK    2  A    between atoms: C_4  and  C_5 
REMARK    3  A    between atoms: C_9  and  N_10 
REMARK    4  A    between atoms: C_13  and  C_14 
ROOT
HETATM    1  C   UNL     1      -7.058   2.481 -32.507  1.00  0.00     0.167 C 
HETATM    2  N   UNL     1      -7.841   3.491 -33.208  1.00  0.00    -0.074 N 
HETATM    3  C   UNL     1      -7.320   4.627 -33.767  1.00  0.00     0.736 A 
HETATM    4  N   UNL     1      -8.283   5.290 -34.350  1.00  0.00     0.131 NA
HETATM    5  C   UNL     1      -9.387   4.537 -34.074  1.00  0.00     0.753 A 
HETATM    6  N   UNL     1      -9.170   3.416 -33.391  1.00  0.00     0.037 NA
HETATM    7  N   UNL     1      -6.008   4.917 -33.671  1.00  0.00    -0.214 N 
HETATM    8  C   UNL     1      -5.067   3.892 -33.230  1.00  0.00     0.135 C 
HETATM    9  C   UNL     1      -5.689   3.058 -32.093  1.00  0.00     0.063 C 
HETATM   10  H   UNL     1      -5.641   5.628 -34.298  1.00  0.00     0.178 HD
ENDROOT
BRANCH   1  11
HETATM   11  C   UNL     1      -6.916   1.193 -33.313  1.00  0.00     0.001 A 
HETATM   12  C   UNL     1      -6.515   0.009 -32.672  1.00  0.00     0.076 A 
HETATM   13  C   UNL     1      -6.310  -1.171 -33.395  1.00  0.00     0.037 A 
HETATM   14  C   UNL     1      -6.539  -1.195 -34.769  1.00  0.00     0.003 A 
HETATM   15  C   UNL     1      -6.961  -0.040 -35.420  1.00  0.00     0.001 A 
HETATM   16  C   UNL     1      -7.145   1.144 -34.701  1.00  0.00     0.012 A 
BRANCH  12  17
HETATM   17  O   UNL     1      -6.261   0.045 -31.324  1.00  0.00    -0.355 OA
HETATM   18  C   UNL     1      -4.897  -0.277 -31.042  1.00  0.00     0.210 C 
ENDBRANCH  12  17
ENDBRANCH   1  11
BRANCH   8  19
HETATM   19  C   UNL     1      -3.762   4.531 -32.786  1.00  0.00    -0.035 A 
HETATM   20  C   UNL     1      -2.655   4.629 -33.647  1.00  0.00     0.010 A 
HETATM   21  C   UNL     1      -1.467   5.225 -33.217  1.00  0.00     0.019 A 
HETATM   22  C   UNL     1      -1.379   5.740 -31.926  1.00  0.00     0.011 A 
HETATM   23 BR   UNL     1       0.229   6.545 -31.343  1.00  0.00    -0.051 Br
HETATM   24  C   UNL     1      -2.469   5.668 -31.063  1.00  0.00     0.019 A 
HETATM   25  C   UNL     1      -3.657   5.068 -31.492  1.00  0.00     0.010 A 
ENDBRANCH   8  19
BRANCH   5  26
HETATM   26  N   UNL     1     -10.567   4.947 -34.528  1.00  0.00    -0.229 N 
HETATM   27  H   UNL     1     -10.571   5.778 -35.101  1.00  0.00     0.174 HD
HETATM   28  H   UNL     1     -11.223   4.230 -34.806  1.00  0.00     0.174 HD
ENDBRANCH   5  26
TORSDOF 4
ENDMDL
MODEL 7
REMARK VINA RESULT:      -7.9      4.454      7.369
REMARK  4 active torsions:
REMARK  status: ('A' for Active; 'I' for Inactive)
REMARK    1  A    between atoms: O_2  and  C_3 
REMARK    2  A    between atoms: C_4  and  C_5 
REMARK    3  A    between atoms: C_9  and  N_10 
REMARK    4  A    between atoms: C_13  and  C_14 
ROOT
HETATM    1  C   UNL     1     -11.149   2.746 -34.256  1.00  0.00     0.167 C 
HETATM    2  N   UNL     1     -12.186   1.728 -34.146  1.00  0.00    -0.074 N 
HETATM    3  C   UNL     1     -12.007   0.496 -33.575  1.00  0.00     0.736 A 
HETATM    4  N   UNL     1     -13.142  -0.151 -33.603  1.00  0.00     0.131 NA
HETATM    5  C   UNL     1     -13.975   0.716 -34.250  1.00  0.00     0.753 A 
HETATM    6  N   UNL     1     -13.444   1.888 -34.591  1.00  0.00     0.037 NA
HETATM    7  N   UNL     1     -10.808   0.114 -33.093  1.00  0.00    -0.214 N 
HETATM    8  C   UNL     1      -9.754   1.106 -32.899  1.00  0.00     0.135 C 
HETATM    9  C   UNL     1      -9.756   2.112 -34.065  1.00  0.00     0.063 C 
HETATM   10  H   UNL     1     -10.791  -0.692 -32.473  1.00  0.00     0.178 HD
ENDROOT
BRANCH   1  11
HETATM   11  C   UNL     1     -11.380   3.916 -33.304  1.00  0.00     0.001 A 
HETATM   12  C   UNL     1     -10.955   5.205 -33.666  1.00  0.00     0.076 A 
HETATM   13  C   UNL     1     -11.091   6.285 -32.787  1.00  0.00     0.037 A 
HETATM   14  C   UNL     1     -11.690   6.100 -31.543  1.00  0.00     0.003 A 
HETATM   15  C   UNL     1     -12.143   4.836 -31.175  1.00  0.00     0.001 A 
HETATM   16  C   UNL     1     -11.986   3.754 -32.044  1.00  0.00     0.012 A 
BRANCH  12  17
HETATM   17  O   UNL     1     -10.337   5.376 -34.879  1.00  0.00    -0.355 OA
HETATM   18  C   UNL     1     -10.518   6.706 -35.373  1.00  0.00     0.210 C 
ENDBRANCH  12  17
ENDBRANCH   1  11
BRANCH   8  19
HETATM   19  C   UNL     1      -8.404   0.419 -32.774  1.00  0.00    -0.035 A 
HETATM   20  C   UNL     1      -7.878  -0.375 -33.809  1.00  0.00     0.010 A 
HETATM   21  C   UNL     1      -6.633  -0.992 -33.673  1.00  0.00     0.019 A 
HETATM   22  C   UNL     1      -5.895  -0.811 -32.505  1.00  0.00     0.011 A 
HETATM   23 BR   UNL     1      -4.210  -1.647 -32.319  1.00  0.00    -0.051 Br
HETATM   24  C   UNL     1      -6.390  -0.015 -31.476  1.00  0.00     0.019 A 
HETATM   25  C   UNL     1      -7.638   0.599 -31.610  1.00  0.00     0.010 A 
ENDBRANCH   8  19
BRANCH   5  26
HETATM   26  N   UNL     1     -15.237   0.352 -34.456  1.00  0.00    -0.229 N 
HETATM   27  H   UNL     1     -15.391  -0.592 -34.779  1.00  0.00     0.174 HD
HETATM   28  H   UNL     1     -15.924   0.702 -33.803  1.00  0.00     0.174 HD
ENDBRANCH   5  26
TORSDOF 4
ENDMDL
MODEL 8
REMARK VINA RESULT:      -7.8      3.768      6.707
REMARK  4 active torsions:
REMARK  status: ('A' for Active; 'I' for Inactive)
REMARK    1  A    between atoms: O_2  and  C_3 
REMARK    2  A    between atoms: C_4  and  C_5 
REMARK    3  A    between atoms: C_9  and  N_10 
REMARK    4  A    between atoms: C_13  and  C_14 
ROOT
HETATM    1  C   UNL     1      -5.370   1.607 -30.915  1.00  0.00     0.167 C 
HETATM    2  N   UNL     1      -4.753   0.375 -31.390  1.00  0.00    -0.074 N 
HETATM    3  C   UNL     1      -5.267  -0.419 -32.381  1.00  0.00     0.736 A 
HETATM    4  N   UNL     1      -4.449  -1.416 -32.589  1.00  0.00     0.131 NA
HETATM    5  C   UNL     1      -3.470  -1.211 -31.661  1.00  0.00     0.753 A 
HETATM    6  N   UNL     1      -3.598  -0.120 -30.911  1.00  0.00     0.037 NA
HETATM    7  N   UNL     1      -6.439  -0.124 -32.977  1.00  0.00    -0.214 N 
HETATM    8  C   UNL     1      -7.036   1.195 -32.793  1.00  0.00     0.135 C 
HETATM    9  C   UNL     1      -6.852   1.659 -31.336  1.00  0.00     0.063 C 
HETATM   10  H   UNL     1      -6.647  -0.598 -33.853  1.00  0.00     0.178 HD
ENDROOT
BRANCH   1  11
HETATM   11  C   UNL     1      -4.604   2.849 -31.360  1.00  0.00     0.001 A 
HETATM   12  C   UNL     1      -4.738   4.048 -30.640  1.00  0.00     0.076 A 
HETATM   13  C   UNL     1      -4.104   5.221 -31.063  1.00  0.00     0.037 A 
HETATM   14  C   UNL     1      -3.293   5.205 -32.195  1.00  0.00     0.003 A 
HETATM   15  C   UNL     1      -3.125   4.022 -32.909  1.00  0.00     0.001 A 
HETATM   16  C   UNL     1      -3.777   2.856 -32.499  1.00  0.00     0.012 A 
BRANCH  12  17
HETATM   17  O   UNL     1      -5.563   4.066 -29.544  1.00  0.00    -0.355 OA
HETATM   18  C   UNL     1      -6.606   5.033 -29.692  1.00  0.00     0.210 C 
ENDBRANCH  12  17
ENDBRANCH   1  11
BRANCH   8  19
HETATM   19  C   UNL     1      -8.507   1.163 -33.173  1.00  0.00    -0.035 A 
HETATM   20  C   UNL     1      -9.371   0.157 -32.705  1.00  0.00     0.010 A 
HETATM   21  C   UNL     1     -10.721   0.151 -33.064  1.00  0.00     0.019 A 
HETATM   22  C   UNL     1     -11.223   1.159 -33.885  1.00  0.00     0.011 A 
HETATM   23 BR   UNL     1     -13.049   1.150 -34.372  1.00  0.00    -0.051 Br
HETATM   24  C   UNL     1     -10.388   2.173 -34.345  1.00  0.00     0.019 A 
HETATM   25  C   UNL     1      -9.036   2.176 -33.990  1.00  0.00     0.010 A 
ENDBRANCH   8  19
BRANCH   5  26
HETATM   26  N   UNL     1      -2.461  -2.075 -31.598  1.00  0.00    -0.229 N 
HETATM   27  H   UNL     1      -1.663  -1.887 -32.187  1.00  0.00     0.174 HD
HETATM   28  H   UNL     1      -2.244  -2.457 -30.688  1.00  0.00     0.174 HD
ENDBRANCH   5  26
TORSDOF 4
ENDMDL
MODEL 9
REMARK VINA RESULT:      -7.7      4.003      6.811
REMARK  4 active torsions:
REMARK  status: ('A' for Active; 'I' for Inactive)
REMARK    1  A    between atoms: O_2  and  C_3 
REMARK    2  A    between atoms: C_4  and  C_5 
REMARK    3  A    between atoms: C_9  and  N_10 
REMARK    4  A    between atoms: C_13  and  C_14 
ROOT
HETATM    1  C   UNL     1      -8.320   2.313 -31.646  1.00  0.00     0.167 C 
HETATM    2  N   UNL     1      -7.161   2.757 -30.883  1.00  0.00    -0.074 N 
HETATM    3  C   UNL     1      -5.894   2.261 -31.036  1.00  0.00     0.736 A 
HETATM    4  N   UNL     1      -5.089   2.903 -30.232  1.00  0.00     0.131 NA
HETATM    5  C   UNL     1      -5.928   3.753 -29.571  1.00  0.00     0.753 A 
HETATM    6  N   UNL     1      -7.205   3.716 -29.942  1.00  0.00     0.037 NA
HETATM    7  N   UNL     1      -5.632   1.266 -31.906  1.00  0.00    -0.214 N 
HETATM    8  C   UNL     1      -6.624   0.900 -32.911  1.00  0.00     0.135 C 
HETATM    9  C   UNL     1      -8.037   0.945 -32.299  1.00  0.00     0.063 C 
HETATM   10  H   UNL     1      -4.658   1.108 -32.152  1.00  0.00     0.178 HD
ENDROOT
BRANCH   1  11
HETATM   11  C   UNL     1      -8.777   3.351 -32.666  1.00  0.00     0.001 A 
HETATM   12  C   UNL     1     -10.060   3.257 -33.233  1.00  0.00     0.076 A 
HETATM   13  C   UNL     1     -10.482   4.152 -34.220  1.00  0.00     0.037 A 
HETATM   14  C   UNL     1      -9.640   5.183 -34.633  1.00  0.00     0.003 A 
HETATM   15  C   UNL     1      -8.375   5.311 -34.066  1.00  0.00     0.001 A 
HETATM   16  C   UNL     1      -7.946   4.402 -33.095  1.00  0.00     0.012 A 
BRANCH  12  17
HETATM   17  O   UNL     1     -10.873   2.222 -32.846  1.00  0.00    -0.355 OA
HETATM   18  C   UNL     1     -12.230   2.451 -33.237  1.00  0.00     0.210 C 
ENDBRANCH  12  17
ENDBRANCH   1  11
BRANCH   8  19
HETATM   19  C   UNL     1      -6.319  -0.479 -33.474  1.00  0.00    -0.035 A 
HETATM   20  C   UNL     1      -5.011  -0.994 -33.501  1.00  0.00     0.010 A 
HETATM   21  C   UNL     1      -4.755  -2.266 -34.020  1.00  0.00     0.019 A 
HETATM   22  C   UNL     1      -5.807  -3.040 -34.504  1.00  0.00     0.011 A 
HETATM   23 BR   UNL     1      -5.462  -4.760 -35.207  1.00  0.00    -0.051 Br
HETATM   24  C   UNL     1      -7.112  -2.555 -34.471  1.00  0.00     0.019 A 
HETATM   25  C   UNL     1      -7.367  -1.280 -33.957  1.00  0.00     0.010 A 
ENDBRANCH   8  19
BRANCH   5  26
HETATM   26  N   UNL     1      -5.415   4.565 -28.651  1.00  0.00    -0.229 N 
HETATM   27  H   UNL     1      -4.746   5.251 -28.971  1.00  0.00     0.174 HD
HETATM   28  H   UNL     1      -6.040   4.882 -27.923  1.00  0.00     0.174 HD
ENDBRANCH   5  26
TORSDOF 4
ENDMDL
MODEL 10
REMARK VINA RESULT:      -7.6      3.344      6.085
REMARK  4 active torsions:
REMARK  status: ('A' for Active; 'I' for Inactive)
REMARK    1  A    between atoms: O_2  and  C_3 
REMARK    2  A    between atoms: C_4  and  C_5 
REMARK    3  A    between atoms: C_9  and  N_10 
REMARK    4  A    between atoms: C_13  and  C_14 
ROOT
HETATM    1  C   UNL     1      -6.848   3.213 -33.365  1.00  0.00     0.167 C 
HETATM    2  N   UNL     1      -8.215   3.023 -33.834  1.00  0.00    -0.074 N 
HETATM    3  C   UNL     1      -8.805   1.803 -34.030  1.00  0.00     0.736 A 
HETATM    4  N   UNL     1     -10.041   1.989 -34.412  1.00  0.00     0.131 NA
HETATM    5  C   UNL     1     -10.141   3.348 -34.482  1.00  0.00     0.753 A 
HETATM    6  N   UNL     1      -9.056   4.030 -34.124  1.00  0.00     0.037 NA
HETATM    7  N   UNL     1      -8.127   0.656 -33.831  1.00  0.00    -0.214 N 
HETATM    8  C   UNL     1      -6.851   0.680 -33.123  1.00  0.00     0.135 C 
HETATM    9  C   UNL     1      -6.035   1.916 -33.548  1.00  0.00     0.063 C 
HETATM   10  H   UNL     1      -8.671  -0.199 -33.754  1.00  0.00     0.178 HD
ENDROOT
BRANCH   1  11
HETATM   11  C   UNL     1      -6.793   3.726 -31.929  1.00  0.00     0.001 A 
HETATM   12  C   UNL     1      -5.726   4.543 -31.519  1.00  0.00     0.076 A 
HETATM   13  C   UNL     1      -5.611   4.972 -30.193  1.00  0.00     0.037 A 
HETATM   14  C   UNL     1      -6.585   4.621 -29.260  1.00  0.00     0.003 A 
HETATM   15  C   UNL     1      -7.665   3.835 -29.651  1.00  0.00     0.001 A 
HETATM   16  C   UNL     1      -7.767   3.388 -30.971  1.00  0.00     0.012 A 
BRANCH  12  17
HETATM   17  O   UNL     1      -4.753   4.859 -32.434  1.00  0.00    -0.355 OA
HETATM   18  C   UNL     1      -4.715   6.266 -32.688  1.00  0.00     0.210 C 
ENDBRANCH  12  17
ENDBRANCH   1  11
BRANCH   8  19
HETATM   19  C   UNL     1      -6.077  -0.600 -33.389  1.00  0.00    -0.035 A 
HETATM   20  C   UNL     1      -4.824  -0.845 -32.799  1.00  0.00     0.010 A 
HETATM   21  C   UNL     1      -4.134  -2.032 -33.056  1.00  0.00     0.019 A 
HETATM   22  C   UNL     1      -4.696  -2.991 -33.894  1.00  0.00     0.011 A 
HETATM   23 BR   UNL     1      -3.761  -4.597 -34.243  1.00  0.00    -0.051 Br
HETATM   24  C   UNL     1      -5.942  -2.776 -34.475  1.00  0.00     0.019 A 
HETATM   25  C   UNL     1      -6.631  -1.586 -34.222  1.00  0.00     0.010 A 
ENDBRANCH   8  19
BRANCH   5  26
HETATM   26  N   UNL     1     -11.299   3.883 -34.858  1.00  0.00    -0.229 N 
HETATM   27  H   UNL     1     -12.068   3.805 -34.208  1.00  0.00     0.174 HD
HETATM   28  H   UNL     1     -11.254   4.753 -35.370  1.00  0.00     0.174 HD
ENDBRANCH   5  26
TORSDOF 4
ENDMDL
