MODEL 1
REMARK VINA RESULT:      -7.7      0.000      0.000
REMARK  8 active torsions:
REMARK  status: ('A' for Active; 'I' for Inactive)
REMARK    1  A    between atoms: C_2  and  C_3 
REMARK    2  A    between atoms: C_3  and  N_4 
REMARK    3  A    between atoms: C_7  and  C_8 
REMARK       I    between atoms: C_8  and  N_9 
REMARK    4  A    between atoms: N_9  and  N_10 
REMARK       I    between atoms: N_10  and  C_11 
REMARK    5  A    between atoms: C_11  and  C_12 
REMARK    6  A    between atoms: C_12  and  O_13 
REMARK    7  A    between atoms: O_13  and  C_14 
REMARK    8  A    between atoms: C_23  and  C_24 
ROOT
HETATM    1  C   UNL     1      -6.611   3.129 -30.943  1.00  0.00     0.273 C 
HETATM    2  N   UNL     1      -7.344   2.199 -31.676  1.00  0.00    -0.263 N 
HETATM    3  O   UNL     1      -6.930   3.353 -29.778  1.00  0.00    -0.266 OA
HETATM    4  H   UNL     1      -7.929   1.593 -31.108  1.00  0.00     0.190 HD
ENDROOT
BRANCH   2   5
HETATM    5  N   UNL     1      -6.928   1.701 -32.919  1.00  0.00    -0.265 N 
HETATM    6  C   UNL     1      -7.571   0.613 -33.489  1.00  0.00     0.260 C 
HETATM    7  O   UNL     1      -8.569   0.079 -33.013  1.00  0.00    -0.269 OA
HETATM    8  H   UNL     1      -6.182   2.188 -33.408  1.00  0.00     0.190 HD
BRANCH   6   9
HETATM    9  C   UNL     1      -6.862   0.092 -34.732  1.00  0.00     0.280 C 
BRANCH   9  10
HETATM   10  O   UNL     1      -5.663  -0.569 -34.330  1.00  0.00    -0.342 OA
BRANCH  10  11
HETATM   11  C   UNL     1      -5.710  -1.931 -34.470  1.00  0.00     0.069 A 
HETATM   12  C   UNL     1      -4.558  -2.629 -34.101  1.00  0.00     0.043 A 
HETATM   13  C   UNL     1      -4.512  -4.028 -34.189  1.00  0.00    -0.059 A 
HETATM   14  C   UNL     1      -3.278  -4.787 -33.797  1.00  0.00     0.048 C 
HETATM   15  C   UNL     1      -5.652  -4.720 -34.615  1.00  0.00     0.007 A 
HETATM   16  C   UNL     1      -6.811  -4.025 -34.960  1.00  0.00     0.003 A 
HETATM   17  C   UNL     1      -6.842  -2.631 -34.888  1.00  0.00     0.037 A 
ENDBRANCH  10  11
ENDBRANCH   9  10
ENDBRANCH   6   9
ENDBRANCH   2   5
BRANCH   1  18
HETATM   18  C   UNL     1      -5.524   3.814 -31.626  1.00  0.00     0.077 A 
HETATM   19  C   UNL     1      -5.631   5.045 -32.316  1.00  0.00     0.158 A 
HETATM   20  N   UNL     1      -4.520   5.386 -32.962  1.00  0.00    -0.183 NA
HETATM   21  N   UNL     1      -3.641   4.425 -32.612  1.00  0.00    -0.268 N 
HETATM   22  C   UNL     1      -4.196   3.444 -31.811  1.00  0.00     0.052 A 
BRANCH  21  23
HETATM   23  C   UNL     1      -2.286   4.452 -33.169  1.00  0.00     0.106 C 
HETATM   24  C   UNL     1      -2.349   4.787 -34.663  1.00  0.00     0.034 C 
BRANCH  23  25
HETATM   25  C   UNL     1      -1.319   5.420 -32.452  1.00  0.00     0.022 C 
HETATM   26  C   UNL     1      -0.990   4.992 -31.027  1.00  0.00     0.007 C 
ENDBRANCH  23  25
ENDBRANCH  21  23
BRANCH  22  27
HETATM   27  C   UNL     1      -3.433   2.199 -31.345  1.00  0.00     0.038 A 
HETATM   28  C   UNL     1      -4.176   0.940 -30.968  1.00  0.00     0.011 A 
HETATM   29  C   UNL     1      -3.360   0.969 -32.218  1.00  0.00     0.011 A 
ENDBRANCH  22  27
ENDBRANCH   1  18
TORSDOF 8
ENDMDL
MODEL 2
REMARK VINA RESULT:      -7.7      0.860      2.240
REMARK  8 active torsions:
REMARK  status: ('A' for Active; 'I' for Inactive)
REMARK    1  A    between atoms: C_2  and  C_3 
REMARK    2  A    between atoms: C_3  and  N_4 
REMARK    3  A    between atoms: C_7  and  C_8 
REMARK       I    between atoms: C_8  and  N_9 
REMARK    4  A    between atoms: N_9  and  N_10 
REMARK       I    between atoms: N_10  and  C_11 
REMARK    5  A    between atoms: C_11  and  C_12 
REMARK    6  A    between atoms: C_12  and  O_13 
REMARK    7  A    between atoms: O_13  and  C_14 
REMARK    8  A    between atoms: C_23  and  C_24 
ROOT
HETATM    1  C   UNL     1      -6.661   2.316 -30.807  1.00  0.00     0.273 C 
HETATM    2  N   UNL     1      -7.446   1.674 -31.760  1.00  0.00    -0.263 N 
HETATM    3  O   UNL     1      -7.140   2.548 -29.699  1.00  0.00    -0.266 OA
HETATM    4  H   UNL     1      -8.272   1.221 -31.379  1.00  0.00     0.190 HD
ENDROOT
BRANCH   2   5
HETATM    5  N   UNL     1      -6.931   1.158 -32.958  1.00  0.00    -0.265 N 
HETATM    6  C   UNL     1      -7.756   0.476 -33.840  1.00  0.00     0.260 C 
HETATM    7  O   UNL     1      -8.969   0.354 -33.690  1.00  0.00    -0.269 OA
HETATM    8  H   UNL     1      -5.957   1.340 -33.181  1.00  0.00     0.190 HD
BRANCH   6   9
HETATM    9  C   UNL     1      -6.988  -0.180 -34.980  1.00  0.00     0.280 C 
BRANCH   9  10
HETATM   10  O   UNL     1      -5.797  -0.762 -34.451  1.00  0.00    -0.342 OA
BRANCH  10  11
HETATM   11  C   UNL     1      -5.760  -2.127 -34.549  1.00  0.00     0.069 A 
HETATM   12  C   UNL     1      -4.581  -2.745 -34.125  1.00  0.00     0.043 A 
HETATM   13  C   UNL     1      -4.451  -4.140 -34.166  1.00  0.00    -0.059 A 
HETATM   14  C   UNL     1      -3.187  -4.812 -33.714  1.00  0.00     0.048 C 
HETATM   15  C   UNL     1      -5.534  -4.911 -34.600  1.00  0.00     0.007 A 
HETATM   16  C   UNL     1      -6.721  -4.297 -35.001  1.00  0.00     0.003 A 
HETATM   17  C   UNL     1      -6.836  -2.906 -34.975  1.00  0.00     0.037 A 
ENDBRANCH  10  11
ENDBRANCH   9  10
ENDBRANCH   6   9
ENDBRANCH   2   5
BRANCH   1  18
HETATM   18  C   UNL     1      -5.317   2.712 -31.201  1.00  0.00     0.077 A 
HETATM   19  C   UNL     1      -4.138   1.966 -30.967  1.00  0.00     0.158 A 
HETATM   20  N   UNL     1      -3.028   2.613 -31.310  1.00  0.00    -0.183 NA
HETATM   21  N   UNL     1      -3.484   3.752 -31.870  1.00  0.00    -0.268 N 
HETATM   22  C   UNL     1      -4.861   3.868 -31.825  1.00  0.00     0.052 A 
BRANCH  21  23
HETATM   23  C   UNL     1      -2.526   4.751 -32.351  1.00  0.00     0.106 C 
HETATM   24  C   UNL     1      -1.366   4.873 -31.357  1.00  0.00     0.034 C 
BRANCH  23  25
HETATM   25  C   UNL     1      -1.979   4.482 -33.770  1.00  0.00     0.022 C 
HETATM   26  C   UNL     1      -1.639   5.756 -34.533  1.00  0.00     0.007 C 
ENDBRANCH  23  25
ENDBRANCH  21  23
BRANCH  22  27
HETATM   27  C   UNL     1      -5.624   5.103 -32.317  1.00  0.00     0.038 A 
HETATM   28  C   UNL     1      -5.475   5.581 -33.741  1.00  0.00     0.011 A 
HETATM   29  C   UNL     1      -6.762   4.964 -33.300  1.00  0.00     0.011 A 
ENDBRANCH  22  27
ENDBRANCH   1  18
TORSDOF 8
ENDMDL
MODEL 3
REMARK VINA RESULT:      -7.5      2.316      6.289
REMARK  8 active torsions:
REMARK  status: ('A' for Active; 'I' for Inactive)
REMARK    1  A    between atoms: C_2  and  C_3 
REMARK    2  A    between atoms: C_3  and  N_4 
REMARK    3  A    between atoms: C_7  and  C_8 
REMARK       I    between atoms: C_8  and  N_9 
REMARK    4  A    between atoms: N_9  and  N_10 
REMARK       I    between atoms: N_10  and  C_11 
REMARK    5  A    between atoms: C_11  and  C_12 
REMARK    6  A    between atoms: C_12  and  O_13 
REMARK    7  A    between atoms: O_13  and  C_14 
REMARK    8  A    between atoms: C_23  and  C_24 
ROOT
HETATM    1  C   UNL     1      -8.731   0.838 -31.773  1.00  0.00     0.273 C 
HETATM    2  N   UNL     1      -8.912   2.216 -31.847  1.00  0.00    -0.263 N 
HETATM    3  O   UNL     1      -9.714   0.117 -31.618  1.00  0.00    -0.266 OA
HETATM    4  H   UNL     1      -9.872   2.500 -32.019  1.00  0.00     0.190 HD
ENDROOT
BRANCH   2   5
HETATM    5  N   UNL     1      -7.903   3.102 -32.253  1.00  0.00    -0.265 N 
HETATM    6  C   UNL     1      -8.139   4.016 -33.269  1.00  0.00     0.260 C 
HETATM    7  O   UNL     1      -9.231   4.175 -33.808  1.00  0.00    -0.269 OA
HETATM    8  H   UNL     1      -7.020   3.089 -31.750  1.00  0.00     0.190 HD
BRANCH   6   9
HETATM    9  C   UNL     1      -6.880   4.752 -33.706  1.00  0.00     0.280 C 
BRANCH   9  10
HETATM   10  O   UNL     1      -5.937   3.795 -34.187  1.00  0.00    -0.342 OA
BRANCH  10  11
HETATM   11  C   UNL     1      -4.689   3.927 -33.638  1.00  0.00     0.069 A 
HETATM   12  C   UNL     1      -3.872   4.915 -34.194  1.00  0.00     0.043 A 
HETATM   13  C   UNL     1      -2.584   5.143 -33.690  1.00  0.00    -0.059 A 
HETATM   14  C   UNL     1      -1.699   6.201 -34.281  1.00  0.00     0.048 C 
HETATM   15  C   UNL     1      -2.140   4.393 -32.595  1.00  0.00     0.007 A 
HETATM   16  C   UNL     1      -2.963   3.422 -32.024  1.00  0.00     0.003 A 
HETATM   17  C   UNL     1      -4.238   3.188 -32.544  1.00  0.00     0.037 A 
ENDBRANCH  10  11
ENDBRANCH   9  10
ENDBRANCH   6   9
ENDBRANCH   2   5
BRANCH   1  18
HETATM   18  C   UNL     1      -7.367   0.335 -31.847  1.00  0.00     0.077 A 
HETATM   19  C   UNL     1      -6.430   0.341 -30.788  1.00  0.00     0.158 A 
HETATM   20  N   UNL     1      -5.215  -0.055 -31.157  1.00  0.00    -0.183 NA
HETATM   21  N   UNL     1      -5.378  -0.423 -32.444  1.00  0.00    -0.268 N 
HETATM   22  C   UNL     1      -6.659  -0.202 -32.916  1.00  0.00     0.052 A 
BRANCH  21  23
HETATM   23  C   UNL     1      -4.221  -0.898 -33.208  1.00  0.00     0.106 C 
HETATM   24  C   UNL     1      -2.936  -0.315 -32.612  1.00  0.00     0.034 C 
BRANCH  23  25
HETATM   25  C   UNL     1      -4.107  -2.434 -33.309  1.00  0.00     0.022 C 
HETATM   26  C   UNL     1      -4.538  -2.980 -34.665  1.00  0.00     0.007 C 
ENDBRANCH  23  25
ENDBRANCH  21  23
BRANCH  22  27
HETATM   27  C   UNL     1      -7.082  -0.457 -34.367  1.00  0.00     0.038 A 
HETATM   28  C   UNL     1      -8.257   0.279 -34.964  1.00  0.00     0.011 A 
HETATM   29  C   UNL     1      -6.874   0.599 -35.426  1.00  0.00     0.011 A 
ENDBRANCH  22  27
ENDBRANCH   1  18
TORSDOF 8
ENDMDL
MODEL 4
REMARK VINA RESULT:      -7.5      4.003      6.243
REMARK  8 active torsions:
REMARK  status: ('A' for Active; 'I' for Inactive)
REMARK    1  A    between atoms: C_2  and  C_3 
REMARK    2  A    between atoms: C_3  and  N_4 
REMARK    3  A    between atoms: C_7  and  C_8 
REMARK       I    between atoms: C_8  and  N_9 
REMARK    4  A    between atoms: N_9  and  N_10 
REMARK       I    between atoms: N_10  and  C_11 
REMARK    5  A    between atoms: C_11  and  C_12 
REMARK    6  A    between atoms: C_12  and  O_13 
REMARK    7  A    between atoms: O_13  and  C_14 
REMARK    8  A    between atoms: C_23  and  C_24 
ROOT
HETATM    1  C   UNL     1      -1.860   7.591 -32.071  1.00  0.00     0.273 C 
HETATM    2  N   UNL     1      -2.752   6.613 -32.503  1.00  0.00    -0.263 N 
HETATM    3  O   UNL     1      -1.718   8.607 -32.747  1.00  0.00    -0.266 OA
HETATM    4  H   UNL     1      -3.404   6.932 -33.214  1.00  0.00     0.190 HD
ENDROOT
BRANCH   2   5
HETATM    5  N   UNL     1      -3.160   5.538 -31.701  1.00  0.00    -0.265 N 
HETATM    6  C   UNL     1      -2.928   4.232 -32.106  1.00  0.00     0.260 C 
HETATM    7  O   UNL     1      -2.294   3.930 -33.114  1.00  0.00    -0.269 OA
HETATM    8  H   UNL     1      -3.581   5.743 -30.799  1.00  0.00     0.190 HD
BRANCH   6   9
HETATM    9  C   UNL     1      -3.612   3.206 -31.214  1.00  0.00     0.280 C 
BRANCH   9  10
HETATM   10  O   UNL     1      -2.863   1.993 -31.257  1.00  0.00    -0.342 OA
BRANCH  10  11
HETATM   11  C   UNL     1      -3.534   0.950 -31.838  1.00  0.00     0.069 A 
HETATM   12  C   UNL     1      -3.006  -0.325 -31.616  1.00  0.00     0.043 A 
HETATM   13  C   UNL     1      -3.631  -1.459 -32.152  1.00  0.00    -0.059 A 
HETATM   14  C   UNL     1      -3.070  -2.832 -31.919  1.00  0.00     0.048 C 
HETATM   15  C   UNL     1      -4.814  -1.303 -32.882  1.00  0.00     0.007 A 
HETATM   16  C   UNL     1      -5.355  -0.033 -33.084  1.00  0.00     0.003 A 
HETATM   17  C   UNL     1      -4.717   1.094 -32.563  1.00  0.00     0.037 A 
ENDBRANCH  10  11
ENDBRANCH   9  10
ENDBRANCH   6   9
ENDBRANCH   2   5
BRANCH   1  18
HETATM   18  C   UNL     1      -1.114   7.326 -30.850  1.00  0.00     0.077 A 
HETATM   19  C   UNL     1      -0.084   6.366 -30.707  1.00  0.00     0.158 A 
HETATM   20  N   UNL     1       0.343   6.234 -29.455  1.00  0.00    -0.183 NA
HETATM   21  N   UNL     1      -0.337   7.186 -28.785  1.00  0.00    -0.268 N 
HETATM   22  C   UNL     1      -1.237   7.873 -29.578  1.00  0.00     0.052 A 
BRANCH  21  23
HETATM   23  C   UNL     1      -0.144   7.324 -27.339  1.00  0.00     0.106 C 
HETATM   24  C   UNL     1      -0.672   6.075 -26.627  1.00  0.00     0.034 C 
BRANCH  23  25
HETATM   25  C   UNL     1       1.314   7.600 -26.911  1.00  0.00     0.022 C 
HETATM   26  C   UNL     1       1.810   8.979 -27.325  1.00  0.00     0.007 C 
ENDBRANCH  23  25
ENDBRANCH  21  23
BRANCH  22  27
HETATM   27  C   UNL     1      -2.191   8.947 -29.042  1.00  0.00     0.038 A 
HETATM   28  C   UNL     1      -1.658  10.136 -28.280  1.00  0.00     0.011 A 
HETATM   29  C   UNL     1      -2.217  10.328 -29.652  1.00  0.00     0.011 A 
ENDBRANCH  22  27
ENDBRANCH   1  18
TORSDOF 8
ENDMDL
MODEL 5
REMARK VINA RESULT:      -7.5      2.030      7.784
REMARK  8 active torsions:
REMARK  status: ('A' for Active; 'I' for Inactive)
REMARK    1  A    between atoms: C_2  and  C_3 
REMARK    2  A    between atoms: C_3  and  N_4 
REMARK    3  A    between atoms: C_7  and  C_8 
REMARK       I    between atoms: C_8  and  N_9 
REMARK    4  A    between atoms: N_9  and  N_10 
REMARK       I    between atoms: N_10  and  C_11 
REMARK    5  A    between atoms: C_11  and  C_12 
REMARK    6  A    between atoms: C_12  and  O_13 
REMARK    7  A    between atoms: O_13  and  C_14 
REMARK    8  A    between atoms: C_23  and  C_24 
ROOT
HETATM    1  C   UNL     1      -7.353   1.356 -31.518  1.00  0.00     0.273 C 
HETATM    2  N   UNL     1      -6.767   2.613 -31.645  1.00  0.00    -0.263 N 
HETATM    3  O   UNL     1      -8.447   1.263 -30.967  1.00  0.00    -0.266 OA
HETATM    4  H   UNL     1      -7.409   3.386 -31.495  1.00  0.00     0.190 HD
ENDROOT
BRANCH   2   5
HETATM    5  N   UNL     1      -5.648   2.861 -32.453  1.00  0.00    -0.265 N 
HETATM    6  C   UNL     1      -4.562   3.562 -31.952  1.00  0.00     0.260 C 
HETATM    7  O   UNL     1      -4.461   3.927 -30.783  1.00  0.00    -0.269 OA
HETATM    8  H   UNL     1      -5.637   2.471 -33.391  1.00  0.00     0.190 HD
BRANCH   6   9
HETATM    9  C   UNL     1      -3.536   3.905 -33.023  1.00  0.00     0.280 C 
BRANCH   9  10
HETATM   10  O   UNL     1      -2.231   3.676 -32.494  1.00  0.00    -0.342 OA
BRANCH  10  11
HETATM   11  C   UNL     1      -1.559   4.824 -32.164  1.00  0.00     0.069 A 
HETATM   12  C   UNL     1      -0.957   4.845 -30.904  1.00  0.00     0.043 A 
HETATM   13  C   UNL     1      -0.230   5.967 -30.480  1.00  0.00    -0.059 A 
HETATM   14  C   UNL     1       0.419   6.000 -29.127  1.00  0.00     0.048 C 
HETATM   15  C   UNL     1      -0.082   7.051 -31.352  1.00  0.00     0.007 A 
HETATM   16  C   UNL     1      -0.663   7.020 -32.620  1.00  0.00     0.003 A 
HETATM   17  C   UNL     1      -1.401   5.907 -33.028  1.00  0.00     0.037 A 
ENDBRANCH  10  11
ENDBRANCH   9  10
ENDBRANCH   6   9
ENDBRANCH   2   5
BRANCH   1  18
HETATM   18  C   UNL     1      -6.604   0.213 -32.020  1.00  0.00     0.077 A 
HETATM   19  C   UNL     1      -5.463  -0.356 -31.407  1.00  0.00     0.158 A 
HETATM   20  N   UNL     1      -4.892  -1.308 -32.138  1.00  0.00    -0.183 NA
HETATM   21  N   UNL     1      -5.721  -1.440 -33.193  1.00  0.00    -0.268 N 
HETATM   22  C   UNL     1      -6.770  -0.539 -33.177  1.00  0.00     0.052 A 
BRANCH  21  23
HETATM   23  C   UNL     1      -5.392  -2.399 -34.251  1.00  0.00     0.106 C 
HETATM   24  C   UNL     1      -4.142  -3.192 -33.857  1.00  0.00     0.034 C 
BRANCH  23  25
HETATM   25  C   UNL     1      -6.538  -3.367 -34.616  1.00  0.00     0.022 C 
HETATM   26  C   UNL     1      -6.081  -4.543 -35.470  1.00  0.00     0.007 C 
ENDBRANCH  23  25
ENDBRANCH  21  23
BRANCH  22  27
HETATM   27  C   UNL     1      -7.805  -0.424 -34.302  1.00  0.00     0.038 A 
HETATM   28  C   UNL     1      -8.485   0.893 -34.588  1.00  0.00     0.011 A 
HETATM   29  C   UNL     1      -7.491   0.348 -35.561  1.00  0.00     0.011 A 
ENDBRANCH  22  27
ENDBRANCH   1  18
TORSDOF 8
ENDMDL
MODEL 6
REMARK VINA RESULT:      -7.4      1.518      1.988
REMARK  8 active torsions:
REMARK  status: ('A' for Active; 'I' for Inactive)
REMARK    1  A    between atoms: C_2  and  C_3 
REMARK    2  A    between atoms: C_3  and  N_4 
REMARK    3  A    between atoms: C_7  and  C_8 
REMARK       I    between atoms: C_8  and  N_9 
REMARK    4  A    between atoms: N_9  and  N_10 
REMARK       I    between atoms: N_10  and  C_11 
REMARK    5  A    between atoms: C_11  and  C_12 
REMARK    6  A    between atoms: C_12  and  O_13 
REMARK    7  A    between atoms: O_13  and  C_14 
REMARK    8  A    between atoms: C_23  and  C_24 
ROOT
HETATM    1  C   UNL     1      -6.215   4.326 -30.158  1.00  0.00     0.273 C 
HETATM    2  N   UNL     1      -7.089   3.282 -30.447  1.00  0.00    -0.263 N 
HETATM    3  O   UNL     1      -6.096   4.698 -28.993  1.00  0.00    -0.266 OA
HETATM    4  H   UNL     1      -7.372   2.742 -29.634  1.00  0.00     0.190 HD
ENDROOT
BRANCH   2   5
HETATM    5  N   UNL     1      -7.125   2.631 -31.688  1.00  0.00    -0.265 N 
HETATM    6  C   UNL     1      -8.250   1.918 -32.074  1.00  0.00     0.260 C 
HETATM    7  O   UNL     1      -9.292   1.877 -31.425  1.00  0.00    -0.269 OA
HETATM    8  H   UNL     1      -6.330   2.739 -32.311  1.00  0.00     0.190 HD
BRANCH   6   9
HETATM    9  C   UNL     1      -8.034   1.120 -33.353  1.00  0.00     0.280 C 
BRANCH   9  10
HETATM   10  O   UNL     1      -8.052  -0.270 -33.031  1.00  0.00    -0.342 OA
BRANCH  10  11
HETATM   11  C   UNL     1      -6.933  -0.945 -33.440  1.00  0.00     0.069 A 
HETATM   12  C   UNL     1      -5.815  -0.848 -32.607  1.00  0.00     0.043 A 
HETATM   13  C   UNL     1      -4.626  -1.518 -32.927  1.00  0.00    -0.059 A 
HETATM   14  C   UNL     1      -3.420  -1.418 -32.040  1.00  0.00     0.048 C 
HETATM   15  C   UNL     1      -4.585  -2.320 -34.073  1.00  0.00     0.007 A 
HETATM   16  C   UNL     1      -5.708  -2.438 -34.893  1.00  0.00     0.003 A 
HETATM   17  C   UNL     1      -6.883  -1.752 -34.577  1.00  0.00     0.037 A 
ENDBRANCH  10  11
ENDBRANCH   9  10
ENDBRANCH   6   9
ENDBRANCH   2   5
BRANCH   1  18
HETATM   18  C   UNL     1      -5.517   4.944 -31.276  1.00  0.00     0.077 A 
HETATM   19  C   UNL     1      -5.982   6.049 -32.027  1.00  0.00     0.158 A 
HETATM   20  N   UNL     1      -5.216   6.334 -33.075  1.00  0.00    -0.183 NA
HETATM   21  N   UNL     1      -4.182   5.477 -32.956  1.00  0.00    -0.268 N 
HETATM   22  C   UNL     1      -4.314   4.608 -31.888  1.00  0.00     0.052 A 
BRANCH  21  23
HETATM   23  C   UNL     1      -3.126   5.477 -33.972  1.00  0.00     0.106 C 
HETATM   24  C   UNL     1      -3.735   5.190 -35.348  1.00  0.00     0.034 C 
BRANCH  23  25
HETATM   25  C   UNL     1      -2.289   6.774 -34.026  1.00  0.00     0.022 C 
HETATM   26  C   UNL     1      -1.246   6.860 -32.918  1.00  0.00     0.007 C 
ENDBRANCH  23  25
ENDBRANCH  21  23
BRANCH  22  27
HETATM   27  C   UNL     1      -3.319   3.483 -31.582  1.00  0.00     0.038 A 
HETATM   28  C   UNL     1      -3.793   2.177 -30.994  1.00  0.00     0.011 A 
HETATM   29  C   UNL     1      -3.309   2.218 -32.407  1.00  0.00     0.011 A 
ENDBRANCH  22  27
ENDBRANCH   1  18
TORSDOF 8
ENDMDL
MODEL 7
REMARK VINA RESULT:      -7.2      2.037      7.452
REMARK  8 active torsions:
REMARK  status: ('A' for Active; 'I' for Inactive)
REMARK    1  A    between atoms: C_2  and  C_3 
REMARK    2  A    between atoms: C_3  and  N_4 
REMARK    3  A    between atoms: C_7  and  C_8 
REMARK       I    between atoms: C_8  and  N_9 
REMARK    4  A    between atoms: N_9  and  N_10 
REMARK       I    between atoms: N_10  and  C_11 
REMARK    5  A    between atoms: C_11  and  C_12 
REMARK    6  A    between atoms: C_12  and  O_13 
REMARK    7  A    between atoms: O_13  and  C_14 
REMARK    8  A    between atoms: C_23  and  C_24 
ROOT
HETATM    1  C   UNL     1      -7.688   2.153 -32.789  1.00  0.00     0.273 C 
HETATM    2  N   UNL     1      -6.857   3.231 -32.494  1.00  0.00    -0.263 N 
HETATM    3  O   UNL     1      -8.874   2.212 -32.474  1.00  0.00    -0.266 OA
HETATM    4  H   UNL     1      -7.355   4.087 -32.267  1.00  0.00     0.190 HD
ENDROOT
BRANCH   2   5
HETATM    5  N   UNL     1      -5.561   3.366 -33.011  1.00  0.00    -0.265 N 
HETATM    6  C   UNL     1      -4.503   3.695 -32.176  1.00  0.00     0.260 C 
HETATM    7  O   UNL     1      -4.600   3.802 -30.956  1.00  0.00    -0.269 OA
HETATM    8  H   UNL     1      -5.412   3.167 -33.996  1.00  0.00     0.190 HD
BRANCH   6   9
HETATM    9  C   UNL     1      -3.219   3.992 -32.939  1.00  0.00     0.280 C 
BRANCH   9  10
HETATM   10  O   UNL     1      -2.110   3.754 -32.074  1.00  0.00    -0.342 OA
BRANCH  10  11
HETATM   11  C   UNL     1      -1.399   4.883 -31.765  1.00  0.00     0.069 A 
HETATM   12  C   UNL     1      -0.802   4.910 -30.502  1.00  0.00     0.043 A 
HETATM   13  C   UNL     1      -0.036   6.013 -30.099  1.00  0.00    -0.059 A 
HETATM   14  C   UNL     1       0.607   6.053 -28.743  1.00  0.00     0.048 C 
HETATM   15  C   UNL     1       0.155   7.072 -30.993  1.00  0.00     0.007 A 
HETATM   16  C   UNL     1      -0.420   7.035 -32.264  1.00  0.00     0.003 A 
HETATM   17  C   UNL     1      -1.197   5.941 -32.651  1.00  0.00     0.037 A 
ENDBRANCH  10  11
ENDBRANCH   9  10
ENDBRANCH   6   9
ENDBRANCH   2   5
BRANCH   1  18
HETATM   18  C   UNL     1      -7.081   0.994 -33.426  1.00  0.00     0.077 A 
HETATM   19  C   UNL     1      -7.122   0.700 -34.810  1.00  0.00     0.158 A 
HETATM   20  N   UNL     1      -6.603  -0.486 -35.112  1.00  0.00    -0.183 NA
HETATM   21  N   UNL     1      -6.123  -0.933 -33.934  1.00  0.00    -0.268 N 
HETATM   22  C   UNL     1      -6.390  -0.081 -32.878  1.00  0.00     0.052 A 
BRANCH  21  23
HETATM   23  C   UNL     1      -5.492  -2.254 -33.869  1.00  0.00     0.106 C 
HETATM   24  C   UNL     1      -5.875  -3.070 -35.108  1.00  0.00     0.034 C 
BRANCH  23  25
HETATM   25  C   UNL     1      -3.956  -2.223 -33.712  1.00  0.00     0.022 C 
HETATM   26  C   UNL     1      -3.465  -2.962 -32.474  1.00  0.00     0.007 C 
ENDBRANCH  23  25
ENDBRANCH  21  23
BRANCH  22  27
HETATM   27  C   UNL     1      -6.026  -0.396 -31.423  1.00  0.00     0.038 A 
HETATM   28  C   UNL     1      -4.783   0.191 -30.798  1.00  0.00     0.011 A 
HETATM   29  C   UNL     1      -6.127   0.669 -30.357  1.00  0.00     0.011 A 
ENDBRANCH  22  27
ENDBRANCH   1  18
TORSDOF 8
ENDMDL
MODEL 8
REMARK VINA RESULT:      -7.2      3.363      5.597
REMARK  8 active torsions:
REMARK  status: ('A' for Active; 'I' for Inactive)
REMARK    1  A    between atoms: C_2  and  C_3 
REMARK    2  A    between atoms: C_3  and  N_4 
REMARK    3  A    between atoms: C_7  and  C_8 
REMARK       I    between atoms: C_8  and  N_9 
REMARK    4  A    between atoms: N_9  and  N_10 
REMARK       I    between atoms: N_10  and  C_11 
REMARK    5  A    between atoms: C_11  and  C_12 
REMARK    6  A    between atoms: C_12  and  O_13 
REMARK    7  A    between atoms: O_13  and  C_14 
REMARK    8  A    between atoms: C_23  and  C_24 
ROOT
HETATM    1  C   UNL     1      -1.654   6.783 -33.274  1.00  0.00     0.273 C 
HETATM    2  N   UNL     1      -1.592   5.412 -33.509  1.00  0.00    -0.263 N 
HETATM    3  O   UNL     1      -1.416   7.557 -34.197  1.00  0.00    -0.266 OA
HETATM    4  H   UNL     1      -1.600   5.160 -34.494  1.00  0.00     0.190 HD
ENDROOT
BRANCH   2   5
HETATM    5  N   UNL     1      -2.068   4.454 -32.603  1.00  0.00    -0.265 N 
HETATM    6  C   UNL     1      -3.370   3.986 -32.696  1.00  0.00     0.260 C 
HETATM    7  O   UNL     1      -4.147   4.295 -33.596  1.00  0.00    -0.269 OA
HETATM    8  H   UNL     1      -1.422   4.080 -31.915  1.00  0.00     0.190 HD
BRANCH   6   9
HETATM    9  C   UNL     1      -3.768   3.109 -31.517  1.00  0.00     0.280 C 
BRANCH   9  10
HETATM   10  O   UNL     1      -3.052   1.878 -31.603  1.00  0.00    -0.342 OA
BRANCH  10  11
HETATM   11  C   UNL     1      -3.778   0.854 -32.152  1.00  0.00     0.069 A 
HETATM   12  C   UNL     1      -5.167   0.950 -32.032  1.00  0.00     0.043 A 
HETATM   13  C   UNL     1      -5.999  -0.037 -32.577  1.00  0.00    -0.059 A 
HETATM   14  C   UNL     1      -7.492   0.056 -32.452  1.00  0.00     0.048 C 
HETATM   15  C   UNL     1      -5.423  -1.101 -33.279  1.00  0.00     0.007 A 
HETATM   16  C   UNL     1      -4.037  -1.185 -33.420  1.00  0.00     0.003 A 
HETATM   17  C   UNL     1      -3.214  -0.208 -32.858  1.00  0.00     0.037 A 
ENDBRANCH  10  11
ENDBRANCH   9  10
ENDBRANCH   6   9
ENDBRANCH   2   5
BRANCH   1  18
HETATM   18  C   UNL     1      -1.965   7.217 -31.920  1.00  0.00     0.077 A 
HETATM   19  C   UNL     1      -3.196   7.771 -31.495  1.00  0.00     0.158 A 
HETATM   20  N   UNL     1      -3.173   8.205 -30.239  1.00  0.00    -0.183 NA
HETATM   21  N   UNL     1      -1.952   7.840 -29.798  1.00  0.00    -0.268 N 
HETATM   22  C   UNL     1      -1.176   7.244 -30.775  1.00  0.00     0.052 A 
BRANCH  21  23
HETATM   23  C   UNL     1      -1.547   8.185 -28.433  1.00  0.00     0.106 C 
HETATM   24  C   UNL     1      -1.640   9.701 -28.235  1.00  0.00     0.034 C 
BRANCH  23  25
HETATM   25  C   UNL     1      -2.344   7.458 -27.327  1.00  0.00     0.022 C 
HETATM   26  C   UNL     1      -1.458   6.668 -26.372  1.00  0.00     0.007 C 
ENDBRANCH  23  25
ENDBRANCH  21  23
BRANCH  22  27
HETATM   27  C   UNL     1       0.279   6.814 -30.556  1.00  0.00     0.038 A 
HETATM   28  C   UNL     1       0.646   5.905 -29.409  1.00  0.00     0.011 A 
HETATM   29  C   UNL     1       0.707   5.388 -30.809  1.00  0.00     0.011 A 
ENDBRANCH  22  27
ENDBRANCH   1  18
TORSDOF 8
ENDMDL
MODEL 9
REMARK VINA RESULT:      -7.2      1.331      2.961
REMARK  8 active torsions:
REMARK  status: ('A' for Active; 'I' for Inactive)
REMARK    1  A    between atoms: C_2  and  C_3 
REMARK    2  A    between atoms: C_3  and  N_4 
REMARK    3  A    between atoms: C_7  and  C_8 
REMARK       I    between atoms: C_8  and  N_9 
REMARK    4  A    between atoms: N_9  and  N_10 
REMARK       I    between atoms: N_10  and  C_11 
REMARK    5  A    between atoms: C_11  and  C_12 
REMARK    6  A    between atoms: C_12  and  O_13 
REMARK    7  A    between atoms: O_13  and  C_14 
REMARK    8  A    between atoms: C_23  and  C_24 
ROOT
HETATM    1  C   UNL     1      -6.521   4.110 -30.343  1.00  0.00     0.273 C 
HETATM    2  N   UNL     1      -7.618   3.617 -31.043  1.00  0.00    -0.263 N 
HETATM    3  O   UNL     1      -6.685   4.541 -29.205  1.00  0.00    -0.266 OA
HETATM    4  H   UNL     1      -8.427   3.419 -30.459  1.00  0.00     0.190 HD
ENDROOT
BRANCH   2   5
HETATM    5  N   UNL     1      -7.506   2.895 -32.240  1.00  0.00    -0.265 N 
HETATM    6  C   UNL     1      -8.008   1.606 -32.332  1.00  0.00     0.260 C 
HETATM    7  O   UNL     1      -8.643   1.052 -31.438  1.00  0.00    -0.269 OA
HETATM    8  H   UNL     1      -7.094   3.359 -33.044  1.00  0.00     0.190 HD
BRANCH   6   9
HETATM    9  C   UNL     1      -7.620   0.912 -33.630  1.00  0.00     0.280 C 
BRANCH   9  10
HETATM   10  O   UNL     1      -7.858  -0.488 -33.488  1.00  0.00    -0.342 OA
BRANCH  10  11
HETATM   11  C   UNL     1      -6.763  -1.264 -33.763  1.00  0.00     0.069 A 
HETATM   12  C   UNL     1      -7.011  -2.466 -34.430  1.00  0.00     0.043 A 
HETATM   13  C   UNL     1      -5.956  -3.322 -34.774  1.00  0.00    -0.059 A 
HETATM   14  C   UNL     1      -6.212  -4.616 -35.489  1.00  0.00     0.048 C 
HETATM   15  C   UNL     1      -4.644  -2.938 -34.475  1.00  0.00     0.007 A 
HETATM   16  C   UNL     1      -4.393  -1.727 -33.830  1.00  0.00     0.003 A 
HETATM   17  C   UNL     1      -5.451  -0.888 -33.474  1.00  0.00     0.037 A 
ENDBRANCH  10  11
ENDBRANCH   9  10
ENDBRANCH   6   9
ENDBRANCH   2   5
BRANCH   1  18
HETATM   18  C   UNL     1      -5.237   4.120 -31.030  1.00  0.00     0.077 A 
HETATM   19  C   UNL     1      -4.304   3.056 -31.045  1.00  0.00     0.158 A 
HETATM   20  N   UNL     1      -3.156   3.371 -31.635  1.00  0.00    -0.183 NA
HETATM   21  N   UNL     1      -3.370   4.617 -32.105  1.00  0.00    -0.268 N 
HETATM   22  C   UNL     1      -4.611   5.122 -31.762  1.00  0.00     0.052 A 
BRANCH  21  23
HETATM   23  C   UNL     1      -2.290   5.318 -32.804  1.00  0.00     0.106 C 
HETATM   24  C   UNL     1      -0.971   5.112 -32.053  1.00  0.00     0.034 C 
BRANCH  23  25
HETATM   25  C   UNL     1      -2.122   4.919 -34.286  1.00  0.00     0.022 C 
HETATM   26  C   UNL     1      -3.342   5.246 -35.137  1.00  0.00     0.007 C 
ENDBRANCH  23  25
ENDBRANCH  21  23
BRANCH  22  27
HETATM   27  C   UNL     1      -5.069   6.546 -32.100  1.00  0.00     0.038 A 
HETATM   28  C   UNL     1      -6.494   6.974 -31.847  1.00  0.00     0.011 A 
HETATM   29  C   UNL     1      -5.394   7.531 -31.003  1.00  0.00     0.011 A 
ENDBRANCH  22  27
ENDBRANCH   1  18
TORSDOF 8
ENDMDL
MODEL 10
REMARK VINA RESULT:      -7.2      2.547      7.973
REMARK  8 active torsions:
REMARK  status: ('A' for Active; 'I' for Inactive)
REMARK    1  A    between atoms: C_2  and  C_3 
REMARK    2  A    between atoms: C_3  and  N_4 
REMARK    3  A    between atoms: C_7  and  C_8 
REMARK       I    between atoms: C_8  and  N_9 
REMARK    4  A    between atoms: N_9  and  N_10 
REMARK       I    between atoms: N_10  and  C_11 
REMARK    5  A    between atoms: C_11  and  C_12 
REMARK    6  A    between atoms: C_12  and  O_13 
REMARK    7  A    between atoms: O_13  and  C_14 
REMARK    8  A    between atoms: C_23  and  C_24 
ROOT
HETATM    1  C   UNL     1      -4.338  -0.700 -31.987  1.00  0.00     0.273 C 
HETATM    2  N   UNL     1      -3.337   0.083 -32.554  1.00  0.00    -0.263 N 
HETATM    3  O   UNL     1      -4.024  -1.734 -31.401  1.00  0.00    -0.266 OA
HETATM    4  H   UNL     1      -2.402  -0.133 -32.219  1.00  0.00     0.190 HD
ENDROOT
BRANCH   2   5
HETATM    5  N   UNL     1      -3.558   1.382 -33.034  1.00  0.00    -0.265 N 
HETATM    6  C   UNL     1      -3.290   2.481 -32.232  1.00  0.00     0.260 C 
HETATM    7  O   UNL     1      -2.776   2.409 -31.118  1.00  0.00    -0.269 OA
HETATM    8  H   UNL     1      -3.868   1.494 -33.994  1.00  0.00     0.190 HD
BRANCH   6   9
HETATM    9  C   UNL     1      -3.775   3.790 -32.841  1.00  0.00     0.280 C 
BRANCH   9  10
HETATM   10  O   UNL     1      -2.673   4.429 -33.484  1.00  0.00    -0.342 OA
BRANCH  10  11
HETATM   11  C   UNL     1      -2.254   5.571 -32.855  1.00  0.00     0.069 A 
HETATM   12  C   UNL     1      -1.016   5.501 -32.210  1.00  0.00     0.043 A 
HETATM   13  C   UNL     1      -0.490   6.623 -31.553  1.00  0.00    -0.059 A 
HETATM   14  C   UNL     1       0.837   6.557 -30.856  1.00  0.00     0.048 C 
HETATM   15  C   UNL     1      -1.203   7.826 -31.585  1.00  0.00     0.007 A 
HETATM   16  C   UNL     1      -2.428   7.903 -32.249  1.00  0.00     0.003 A 
HETATM   17  C   UNL     1      -2.954   6.777 -32.885  1.00  0.00     0.037 A 
ENDBRANCH  10  11
ENDBRANCH   9  10
ENDBRANCH   6   9
ENDBRANCH   2   5
BRANCH   1  18
HETATM   18  C   UNL     1      -5.714  -0.259 -32.159  1.00  0.00     0.077 A 
HETATM   19  C   UNL     1      -6.462   0.489 -31.220  1.00  0.00     0.158 A 
HETATM   20  N   UNL     1      -7.736   0.648 -31.568  1.00  0.00    -0.183 NA
HETATM   21  N   UNL     1      -7.804   0.090 -32.793  1.00  0.00    -0.268 N 
HETATM   22  C   UNL     1      -6.611  -0.481 -33.199  1.00  0.00     0.052 A 
BRANCH  21  23
HETATM   23  C   UNL     1      -9.089   0.050 -33.496  1.00  0.00     0.106 C 
HETATM   24  C   UNL     1     -10.183  -0.438 -32.541  1.00  0.00     0.034 C 
BRANCH  23  25
HETATM   25  C   UNL     1      -9.508   1.390 -34.139  1.00  0.00     0.022 C 
HETATM   26  C   UNL     1     -11.003   1.479 -34.417  1.00  0.00     0.007 C 
ENDBRANCH  23  25
ENDBRANCH  21  23
BRANCH  22  27
HETATM   27  C   UNL     1      -6.444  -1.251 -34.513  1.00  0.00     0.038 A 
HETATM   28  C   UNL     1      -5.450  -2.382 -34.620  1.00  0.00     0.011 A 
HETATM   29  C   UNL     1      -6.913  -2.682 -34.632  1.00  0.00     0.011 A 
ENDBRANCH  22  27
ENDBRANCH   1  18
TORSDOF 8
ENDMDL
