MODEL 1
REMARK VINA RESULT:      -8.4      0.000      0.000
REMARK  3 active torsions:
REMARK  status: ('A' for Active; 'I' for Inactive)
REMARK    1  A    between atoms: C_6  and  N_7 
REMARK       I    between atoms: N_7  and  C_8 
REMARK    2  A    between atoms: C_8  and  C_9 
REMARK    3  A    between atoms: C_9  and  C_10 
ROOT
HETATM    1  C   UNL     1      -8.845   2.603 -32.021  1.00  0.00     0.286 C 
HETATM    2  N   UNL     1      -9.422   3.158 -33.326  1.00  0.00    -0.056 N 
HETATM    3  H   UNL     1      -9.349   4.194 -33.262  1.00  0.00     0.278 HD
HETATM    4  H   UNL     1      -8.837   2.877 -34.122  1.00  0.00     0.278 HD
HETATM    5  C   UNL     1     -10.843   2.724 -33.506  1.00  0.00     0.209 C 
HETATM    6  C   UNL     1     -10.873   1.179 -33.570  1.00  0.00     0.115 C 
HETATM    7  N   UNL     1     -10.189   0.558 -32.436  1.00  0.00    -0.353 N 
HETATM    8  C   UNL     1      -9.023   1.075 -31.907  1.00  0.00     0.249 C 
HETATM    9  O   UNL     1      -8.243   0.351 -31.301  1.00  0.00    -0.271 OA
HETATM   10  C   UNL     1     -11.429   3.332 -34.773  1.00  0.00     0.035 C 
HETATM   11  C   UNL     1     -12.871   2.855 -34.957  1.00  0.00     0.002 C 
HETATM   12  C   UNL     1     -12.988   1.328 -34.931  1.00  0.00     0.002 C 
HETATM   13  C   UNL     1     -12.319   0.702 -33.704  1.00  0.00     0.027 C 
HETATM   14  H   UNL     1     -10.239  -0.456 -32.350  1.00  0.00     0.163 HD
ENDROOT
BRANCH   1  15
HETATM   15  C   UNL     1      -7.392   3.054 -31.851  1.00  0.00     0.146 C 
BRANCH  15  16
HETATM   16  C   UNL     1      -6.853   3.400 -33.217  1.00  0.00     0.224 C 
HETATM   17  N   UNL     1      -6.597   2.496 -34.190  1.00  0.00    -0.327 N 
HETATM   18  H   UNL     1      -6.477   2.950 -35.091  1.00  0.00     0.169 HD
HETATM   19  O   UNL     1      -6.750   4.607 -33.493  1.00  0.00    -0.273 OA
BRANCH  17  20
HETATM   20  C   UNL     1      -6.436   1.098 -34.226  1.00  0.00     0.035 A 
HETATM   21  C   UNL     1      -5.422   0.380 -33.592  1.00  0.00     0.037 A 
HETATM   22  C   UNL     1      -5.337  -1.023 -33.706  1.00  0.00    -0.054 A 
HETATM   23  C   UNL     1      -6.281  -1.718 -34.485  1.00  0.00    -0.056 A 
HETATM   24  C   UNL     1      -4.240  -1.756 -32.977  1.00  0.00     0.049 C 
HETATM   25  C   UNL     1      -6.225  -3.211 -34.657  1.00  0.00     0.049 C 
HETATM   26  C   UNL     1      -7.263  -0.990 -35.162  1.00  0.00     0.009 A 
HETATM   27  C   UNL     1      -7.336   0.399 -35.036  1.00  0.00     0.030 A 
ENDBRANCH  17  20
ENDBRANCH  15  16
ENDBRANCH   1  15
TORSDOF 3
ENDMDL
MODEL 2
REMARK VINA RESULT:      -8.4      2.292      3.446
REMARK  3 active torsions:
REMARK  status: ('A' for Active; 'I' for Inactive)
REMARK    1  A    between atoms: C_6  and  N_7 
REMARK       I    between atoms: N_7  and  C_8 
REMARK    2  A    between atoms: C_8  and  C_9 
REMARK    3  A    between atoms: C_9  and  C_10 
ROOT
HETATM    1  C   UNL     1      -6.190   1.202 -31.549  1.00  0.00     0.286 C 
HETATM    2  N   UNL     1      -7.454   0.370 -31.780  1.00  0.00    -0.056 N 
HETATM    3  H   UNL     1      -7.158  -0.471 -32.315  1.00  0.00     0.278 HD
HETATM    4  H   UNL     1      -7.822   0.025 -30.885  1.00  0.00     0.278 HD
HETATM    5  C   UNL     1      -8.481   1.159 -32.531  1.00  0.00     0.209 C 
HETATM    6  C   UNL     1      -8.852   2.399 -31.685  1.00  0.00     0.115 C 
HETATM    7  N   UNL     1      -7.679   3.168 -31.273  1.00  0.00    -0.353 N 
HETATM    8  C   UNL     1      -6.499   2.563 -30.891  1.00  0.00     0.249 C 
HETATM    9  O   UNL     1      -5.716   3.143 -30.148  1.00  0.00    -0.271 OA
HETATM   10  C   UNL     1      -9.708   0.304 -32.812  1.00  0.00     0.035 C 
HETATM   11  C   UNL     1     -10.759   1.134 -33.554  1.00  0.00     0.002 C 
HETATM   12  C   UNL     1     -11.103   2.431 -32.817  1.00  0.00     0.002 C 
HETATM   13  C   UNL     1      -9.864   3.252 -32.449  1.00  0.00     0.027 C 
HETATM   14  H   UNL     1      -7.837   4.051 -30.790  1.00  0.00     0.163 HD
ENDROOT
BRANCH   1  15
HETATM   15  C   UNL     1      -5.150   0.384 -30.779  1.00  0.00     0.146 C 
BRANCH  15  16
HETATM   16  C   UNL     1      -3.864   0.414 -31.568  1.00  0.00     0.224 C 
HETATM   17  N   UNL     1      -3.643  -0.294 -32.698  1.00  0.00    -0.327 N 
HETATM   18  H   UNL     1      -2.824   0.050 -33.194  1.00  0.00     0.169 HD
HETATM   19  O   UNL     1      -3.002   1.233 -31.209  1.00  0.00    -0.273 OA
BRANCH  17  20
HETATM   20  C   UNL     1      -4.265  -1.396 -33.315  1.00  0.00     0.035 A 
HETATM   21  C   UNL     1      -3.822  -2.717 -33.257  1.00  0.00     0.037 A 
HETATM   22  C   UNL     1      -4.509  -3.751 -33.927  1.00  0.00    -0.054 A 
HETATM   23  C   UNL     1      -5.656  -3.448 -34.684  1.00  0.00    -0.056 A 
HETATM   24  C   UNL     1      -4.007  -5.167 -33.808  1.00  0.00     0.049 C 
HETATM   25  C   UNL     1      -6.414  -4.508 -35.436  1.00  0.00     0.049 C 
HETATM   26  C   UNL     1      -6.066  -2.116 -34.785  1.00  0.00     0.009 A 
HETATM   27  C   UNL     1      -5.377  -1.104 -34.112  1.00  0.00     0.030 A 
ENDBRANCH  17  20
ENDBRANCH  15  16
ENDBRANCH   1  15
TORSDOF 3
ENDMDL
MODEL 3
REMARK VINA RESULT:      -8.4      3.399      5.982
REMARK  3 active torsions:
REMARK  status: ('A' for Active; 'I' for Inactive)
REMARK    1  A    between atoms: C_6  and  N_7 
REMARK       I    between atoms: N_7  and  C_8 
REMARK    2  A    between atoms: C_8  and  C_9 
REMARK    3  A    between atoms: C_9  and  C_10 
ROOT
HETATM    1  C   UNL     1      -5.340   2.170 -31.213  1.00  0.00     0.286 C 
HETATM    2  N   UNL     1      -4.529   2.655 -32.417  1.00  0.00    -0.056 N 
HETATM    3  H   UNL     1      -4.167   1.802 -32.890  1.00  0.00     0.278 HD
HETATM    4  H   UNL     1      -5.144   3.120 -33.097  1.00  0.00     0.278 HD
HETATM    5  C   UNL     1      -3.413   3.551 -31.981  1.00  0.00     0.209 C 
HETATM    6  C   UNL     1      -4.028   4.780 -31.271  1.00  0.00     0.115 C 
HETATM    7  N   UNL     1      -4.956   4.404 -30.205  1.00  0.00    -0.353 N 
HETATM    8  C   UNL     1      -5.821   3.335 -30.325  1.00  0.00     0.249 C 
HETATM    9  O   UNL     1      -6.857   3.299 -29.672  1.00  0.00    -0.271 OA
HETATM   10  C   UNL     1      -2.573   3.978 -33.177  1.00  0.00     0.035 C 
HETATM   11  C   UNL     1      -1.456   4.916 -32.717  1.00  0.00     0.002 C 
HETATM   12  C   UNL     1      -1.988   6.109 -31.919  1.00  0.00     0.002 C 
HETATM   13  C   UNL     1      -2.908   5.691 -30.768  1.00  0.00     0.027 C 
HETATM   14  H   UNL     1      -5.337   5.150 -29.624  1.00  0.00     0.163 HD
ENDROOT
BRANCH   1  15
HETATM   15  C   UNL     1      -6.479   1.256 -31.675  1.00  0.00     0.146 C 
BRANCH  15  16
HETATM   16  C   UNL     1      -6.692   1.494 -33.149  1.00  0.00     0.224 C 
HETATM   17  N   UNL     1      -6.571   0.543 -34.103  1.00  0.00    -0.327 N 
HETATM   18  H   UNL     1      -6.987   0.846 -34.980  1.00  0.00     0.169 HD
HETATM   19  O   UNL     1      -7.118   2.612 -33.484  1.00  0.00    -0.273 OA
BRANCH  17  20
HETATM   20  C   UNL     1      -5.984  -0.735 -34.159  1.00  0.00     0.035 A 
HETATM   21  C   UNL     1      -6.598  -1.892 -34.639  1.00  0.00     0.037 A 
HETATM   22  C   UNL     1      -5.928  -3.133 -34.635  1.00  0.00    -0.054 A 
HETATM   23  C   UNL     1      -4.620  -3.217 -34.123  1.00  0.00    -0.056 A 
HETATM   24  C   UNL     1      -6.624  -4.348 -35.192  1.00  0.00     0.049 C 
HETATM   25  C   UNL     1      -3.867  -4.519 -34.076  1.00  0.00     0.049 C 
HETATM   26  C   UNL     1      -4.027  -2.067 -33.593  1.00  0.00     0.009 A 
HETATM   27  C   UNL     1      -4.703  -0.845 -33.608  1.00  0.00     0.030 A 
ENDBRANCH  17  20
ENDBRANCH  15  16
ENDBRANCH   1  15
TORSDOF 3
ENDMDL
MODEL 4
REMARK VINA RESULT:      -8.1      4.070      7.324
REMARK  3 active torsions:
REMARK  status: ('A' for Active; 'I' for Inactive)
REMARK    1  A    between atoms: C_6  and  N_7 
REMARK       I    between atoms: N_7  and  C_8 
REMARK    2  A    between atoms: C_8  and  C_9 
REMARK    3  A    between atoms: C_9  and  C_10 
ROOT
HETATM    1  C   UNL     1      -4.356   4.770 -33.235  1.00  0.00     0.286 C 
HETATM    2  N   UNL     1      -3.332   4.372 -32.170  1.00  0.00    -0.056 N 
HETATM    3  H   UNL     1      -3.876   4.077 -31.334  1.00  0.00     0.278 HD
HETATM    4  H   UNL     1      -2.803   3.545 -32.475  1.00  0.00     0.278 HD
HETATM    5  C   UNL     1      -2.424   5.519 -31.851  1.00  0.00     0.209 C 
HETATM    6  C   UNL     1      -1.669   5.912 -33.142  1.00  0.00     0.115 C 
HETATM    7  N   UNL     1      -2.570   6.149 -34.268  1.00  0.00    -0.353 N 
HETATM    8  C   UNL     1      -3.692   5.375 -34.489  1.00  0.00     0.249 C 
HETATM    9  O   UNL     1      -4.164   5.274 -35.614  1.00  0.00    -0.271 OA
HETATM   10  C   UNL     1      -1.450   5.135 -30.746  1.00  0.00     0.035 C 
HETATM   11  C   UNL     1      -0.511   6.307 -30.453  1.00  0.00     0.002 C 
HETATM   12  C   UNL     1       0.199   6.814 -31.711  1.00  0.00     0.002 C 
HETATM   13  C   UNL     1      -0.769   7.116 -32.859  1.00  0.00     0.027 C 
HETATM   14  H   UNL     1      -2.165   6.502 -35.134  1.00  0.00     0.163 HD
ENDROOT
BRANCH   1  15
HETATM   15  C   UNL     1      -5.277   3.588 -33.553  1.00  0.00     0.146 C 
BRANCH  15  16
HETATM   16  C   UNL     1      -5.784   3.035 -32.244  1.00  0.00     0.224 C 
HETATM   17  N   UNL     1      -5.688   1.738 -31.873  1.00  0.00    -0.327 N 
HETATM   18  H   UNL     1      -5.865   1.625 -30.878  1.00  0.00     0.169 HD
HETATM   19  O   UNL     1      -6.212   3.853 -31.413  1.00  0.00    -0.273 OA
BRANCH  17  20
HETATM   20  C   UNL     1      -5.432   0.530 -32.550  1.00  0.00     0.035 A 
HETATM   21  C   UNL     1      -6.389  -0.277 -33.165  1.00  0.00     0.037 A 
HETATM   22  C   UNL     1      -6.030  -1.482 -33.804  1.00  0.00    -0.054 A 
HETATM   23  C   UNL     1      -4.685  -1.893 -33.811  1.00  0.00    -0.056 A 
HETATM   24  C   UNL     1      -7.098  -2.303 -34.480  1.00  0.00     0.049 C 
HETATM   25  C   UNL     1      -4.250  -3.179 -34.460  1.00  0.00     0.049 C 
HETATM   26  C   UNL     1      -3.736  -1.110 -33.147  1.00  0.00     0.009 A 
HETATM   27  C   UNL     1      -4.107   0.084 -32.523  1.00  0.00     0.030 A 
ENDBRANCH  17  20
ENDBRANCH  15  16
ENDBRANCH   1  15
TORSDOF 3
ENDMDL
MODEL 5
REMARK VINA RESULT:      -8.1      3.689      6.282
REMARK  3 active torsions:
REMARK  status: ('A' for Active; 'I' for Inactive)
REMARK    1  A    between atoms: C_6  and  N_7 
REMARK       I    between atoms: N_7  and  C_8 
REMARK    2  A    between atoms: C_8  and  C_9 
REMARK    3  A    between atoms: C_9  and  C_10 
ROOT
HETATM    1  C   UNL     1      -5.066   0.365 -31.119  1.00  0.00     0.286 C 
HETATM    2  N   UNL     1      -6.025   0.228 -32.303  1.00  0.00    -0.056 N 
HETATM    3  H   UNL     1      -6.978   0.424 -31.934  1.00  0.00     0.278 HD
HETATM    4  H   UNL     1      -5.834   0.956 -33.003  1.00  0.00     0.278 HD
HETATM    5  C   UNL     1      -5.944  -1.143 -32.898  1.00  0.00     0.209 C 
HETATM    6  C   UNL     1      -4.500  -1.367 -33.402  1.00  0.00     0.115 C 
HETATM    7  N   UNL     1      -3.498  -1.093 -32.373  1.00  0.00    -0.353 N 
HETATM    8  C   UNL     1      -3.624  -0.045 -31.484  1.00  0.00     0.249 C 
HETATM    9  O   UNL     1      -2.633   0.444 -30.956  1.00  0.00    -0.271 OA
HETATM   10  C   UNL     1      -6.947  -1.291 -34.034  1.00  0.00     0.035 C 
HETATM   11  C   UNL     1      -6.830  -2.687 -34.649  1.00  0.00     0.002 C 
HETATM   12  C   UNL     1      -5.399  -3.015 -35.083  1.00  0.00     0.002 C 
HETATM   13  C   UNL     1      -4.372  -2.780 -33.971  1.00  0.00     0.027 C 
HETATM   14  H   UNL     1      -2.525  -1.303 -32.591  1.00  0.00     0.163 HD
ENDROOT
BRANCH   1  15
HETATM   15  C   UNL     1      -5.158   1.772 -30.522  1.00  0.00     0.146 C 
BRANCH  15  16
HETATM   16  C   UNL     1      -6.169   2.549 -31.328  1.00  0.00     0.224 C 
HETATM   17  N   UNL     1      -5.860   3.358 -32.368  1.00  0.00    -0.327 N 
HETATM   18  H   UNL     1      -6.686   3.587 -32.914  1.00  0.00     0.169 HD
HETATM   19  O   UNL     1      -7.369   2.336 -31.086  1.00  0.00    -0.273 OA
BRANCH  17  20
HETATM   20  C   UNL     1      -4.678   3.962 -32.835  1.00  0.00     0.035 A 
HETATM   21  C   UNL     1      -3.504   4.128 -32.101  1.00  0.00     0.037 A 
HETATM   22  C   UNL     1      -2.375   4.766 -32.657  1.00  0.00    -0.054 A 
HETATM   23  C   UNL     1      -2.434   5.263 -33.972  1.00  0.00    -0.056 A 
HETATM   24  C   UNL     1      -1.120   4.892 -31.832  1.00  0.00     0.049 C 
HETATM   25  C   UNL     1      -1.267   5.971 -34.606  1.00  0.00     0.049 C 
HETATM   26  C   UNL     1      -3.630   5.145 -34.685  1.00  0.00     0.009 A 
HETATM   27  C   UNL     1      -4.737   4.506 -34.122  1.00  0.00     0.030 A 
ENDBRANCH  17  20
ENDBRANCH  15  16
ENDBRANCH   1  15
TORSDOF 3
ENDMDL
MODEL 6
REMARK VINA RESULT:      -8.0      2.321      6.345
REMARK  3 active torsions:
REMARK  status: ('A' for Active; 'I' for Inactive)
REMARK    1  A    between atoms: C_6  and  N_7 
REMARK       I    between atoms: N_7  and  C_8 
REMARK    2  A    between atoms: C_8  and  C_9 
REMARK    3  A    between atoms: C_9  and  C_10 
ROOT
HETATM    1  C   UNL     1      -5.416  -0.435 -32.180  1.00  0.00     0.286 C 
HETATM    2  N   UNL     1      -6.153  -0.908 -33.435  1.00  0.00    -0.056 N 
HETATM    3  H   UNL     1      -7.152  -0.648 -33.305  1.00  0.00     0.278 HD
HETATM    4  H   UNL     1      -5.825  -0.387 -34.258  1.00  0.00     0.278 HD
HETATM    5  C   UNL     1      -5.995  -2.385 -33.619  1.00  0.00     0.209 C 
HETATM    6  C   UNL     1      -4.488  -2.694 -33.783  1.00  0.00     0.115 C 
HETATM    7  N   UNL     1      -3.680  -2.128 -32.704  1.00  0.00    -0.353 N 
HETATM    8  C   UNL     1      -3.941  -0.885 -32.162  1.00  0.00     0.249 C 
HETATM    9  O   UNL     1      -3.050  -0.246 -31.618  1.00  0.00    -0.271 OA
HETATM   10  C   UNL     1      -6.783  -2.858 -34.833  1.00  0.00     0.035 C 
HETATM   11  C   UNL     1      -6.586  -4.364 -35.024  1.00  0.00     0.002 C 
HETATM   12  C   UNL     1      -5.107  -4.754 -35.095  1.00  0.00     0.002 C 
HETATM   13  C   UNL     1      -4.290  -4.203 -33.923  1.00  0.00     0.027 C 
HETATM   14  H   UNL     1      -2.688  -2.361 -32.683  1.00  0.00     0.163 HD
ENDROOT
BRANCH   1  15
HETATM   15  C   UNL     1      -5.585   1.077 -32.005  1.00  0.00     0.146 C 
BRANCH  15  16
HETATM   16  C   UNL     1      -6.389   1.309 -30.749  1.00  0.00     0.224 C 
HETATM   17  N   UNL     1      -7.740   1.336 -30.699  1.00  0.00    -0.327 N 
HETATM   18  H   UNL     1      -8.075   1.262 -29.742  1.00  0.00     0.169 HD
HETATM   19  O   UNL     1      -5.760   1.363 -29.679  1.00  0.00    -0.273 OA
BRANCH  17  20
HETATM   20  C   UNL     1      -8.764   1.470 -31.655  1.00  0.00     0.035 A 
HETATM   21  C   UNL     1      -9.341   2.671 -32.068  1.00  0.00     0.037 A 
HETATM   22  C   UNL     1     -10.378   2.696 -33.023  1.00  0.00    -0.054 A 
HETATM   23  C   UNL     1     -10.857   1.488 -33.563  1.00  0.00    -0.056 A 
HETATM   24  C   UNL     1     -10.947   4.022 -33.457  1.00  0.00     0.049 C 
HETATM   25  C   UNL     1     -11.975   1.457 -34.569  1.00  0.00     0.049 C 
HETATM   26  C   UNL     1     -10.315   0.283 -33.108  1.00  0.00     0.009 A 
HETATM   27  C   UNL     1      -9.285   0.276 -32.165  1.00  0.00     0.030 A 
ENDBRANCH  17  20
ENDBRANCH  15  16
ENDBRANCH   1  15
TORSDOF 3
ENDMDL
MODEL 7
REMARK VINA RESULT:      -8.0      4.464      7.515
REMARK  3 active torsions:
REMARK  status: ('A' for Active; 'I' for Inactive)
REMARK    1  A    between atoms: C_6  and  N_7 
REMARK       I    between atoms: N_7  and  C_8 
REMARK    2  A    between atoms: C_8  and  C_9 
REMARK    3  A    between atoms: C_9  and  C_10 
ROOT
HETATM    1  C   UNL     1      -4.038   4.616 -31.919  1.00  0.00     0.286 C 
HETATM    2  N   UNL     1      -2.679   4.132 -31.409  1.00  0.00    -0.056 N 
HETATM    3  H   UNL     1      -2.872   3.527 -30.585  1.00  0.00     0.278 HD
HETATM    4  H   UNL     1      -2.230   3.528 -32.108  1.00  0.00     0.278 HD
HETATM    5  C   UNL     1      -1.806   5.290 -31.039  1.00  0.00     0.209 C 
HETATM    6  C   UNL     1      -1.581   6.150 -32.304  1.00  0.00     0.115 C 
HETATM    7  N   UNL     1      -2.835   6.521 -32.959  1.00  0.00    -0.353 N 
HETATM    8  C   UNL     1      -3.901   5.649 -33.056  1.00  0.00     0.249 C 
HETATM    9  O   UNL     1      -4.729   5.778 -33.950  1.00  0.00    -0.271 OA
HETATM   10  C   UNL     1      -0.480   4.799 -30.473  1.00  0.00     0.035 C 
HETATM   11  C   UNL     1       0.410   5.995 -30.128  1.00  0.00     0.002 C 
HETATM   12  C   UNL     1       0.595   6.945 -31.315  1.00  0.00     0.002 C 
HETATM   13  C   UNL     1      -0.733   7.371 -31.947  1.00  0.00     0.027 C 
HETATM   14  H   UNL     1      -2.786   7.164 -33.748  1.00  0.00     0.163 HD
ENDROOT
BRANCH   1  15
HETATM   15  C   UNL     1      -4.919   3.422 -32.294  1.00  0.00     0.146 C 
BRANCH  15  16
HETATM   16  C   UNL     1      -5.280   2.697 -31.021  1.00  0.00     0.224 C 
HETATM   17  N   UNL     1      -5.477   1.362 -30.930  1.00  0.00    -0.327 N 
HETATM   18  H   UNL     1      -5.469   1.054 -29.961  1.00  0.00     0.169 HD
HETATM   19  O   UNL     1      -5.279   3.364 -29.973  1.00  0.00    -0.273 OA
BRANCH  17  20
HETATM   20  C   UNL     1      -5.716   0.331 -31.857  1.00  0.00     0.035 A 
HETATM   21  C   UNL     1      -4.770  -0.586 -32.316  1.00  0.00     0.037 A 
HETATM   22  C   UNL     1      -5.107  -1.575 -33.264  1.00  0.00    -0.054 A 
HETATM   23  C   UNL     1      -6.417  -1.633 -33.774  1.00  0.00    -0.056 A 
HETATM   24  C   UNL     1      -4.056  -2.561 -33.704  1.00  0.00     0.049 C 
HETATM   25  C   UNL     1      -6.825  -2.653 -34.802  1.00  0.00     0.049 C 
HETATM   26  C   UNL     1      -7.348  -0.679 -33.354  1.00  0.00     0.009 A 
HETATM   27  C   UNL     1      -7.000   0.291 -32.411  1.00  0.00     0.030 A 
ENDBRANCH  17  20
ENDBRANCH  15  16
ENDBRANCH   1  15
TORSDOF 3
ENDMDL
MODEL 8
REMARK VINA RESULT:      -7.9      3.296      4.301
REMARK  3 active torsions:
REMARK  status: ('A' for Active; 'I' for Inactive)
REMARK    1  A    between atoms: C_6  and  N_7 
REMARK       I    between atoms: N_7  and  C_8 
REMARK    2  A    between atoms: C_8  and  C_9 
REMARK    3  A    between atoms: C_9  and  C_10 
ROOT
HETATM    1  C   UNL     1      -6.227   1.176 -30.099  1.00  0.00     0.286 C 
HETATM    2  N   UNL     1      -5.809   2.628 -29.860  1.00  0.00    -0.056 N 
HETATM    3  H   UNL     1      -5.067   2.605 -29.132  1.00  0.00     0.278 HD
HETATM    4  H   UNL     1      -5.370   3.017 -30.704  1.00  0.00     0.278 HD
HETATM    5  C   UNL     1      -6.978   3.453 -29.419  1.00  0.00     0.209 C 
HETATM    6  C   UNL     1      -8.043   3.422 -30.539  1.00  0.00     0.115 C 
HETATM    7  N   UNL     1      -8.383   2.061 -30.952  1.00  0.00    -0.353 N 
HETATM    8  C   UNL     1      -7.433   1.064 -31.054  1.00  0.00     0.249 C 
HETATM    9  O   UNL     1      -7.615   0.108 -31.797  1.00  0.00    -0.271 OA
HETATM   10  C   UNL     1      -6.541   4.881 -29.121  1.00  0.00     0.035 C 
HETATM   11  C   UNL     1      -7.752   5.716 -28.700  1.00  0.00     0.002 C 
HETATM   12  C   UNL     1      -8.889   5.651 -29.723  1.00  0.00     0.002 C 
HETATM   13  C   UNL     1      -9.272   4.215 -30.096  1.00  0.00     0.027 C 
HETATM   14  H   UNL     1      -9.142   1.945 -31.621  1.00  0.00     0.163 HD
ENDROOT
BRANCH   1  15
HETATM   15  C   UNL     1      -5.023   0.345 -30.551  1.00  0.00     0.146 C 
BRANCH  15  16
HETATM   16  C   UNL     1      -4.468   0.981 -31.802  1.00  0.00     0.224 C 
HETATM   17  N   UNL     1      -4.585   0.456 -33.043  1.00  0.00    -0.327 N 
HETATM   18  H   UNL     1      -4.363   1.146 -33.757  1.00  0.00     0.169 HD
HETATM   19  O   UNL     1      -3.974   2.115 -31.687  1.00  0.00    -0.273 OA
BRANCH  17  20
HETATM   20  C   UNL     1      -4.911  -0.813 -33.555  1.00  0.00     0.035 A 
HETATM   21  C   UNL     1      -4.141  -1.968 -33.419  1.00  0.00     0.037 A 
HETATM   22  C   UNL     1      -4.549  -3.193 -33.988  1.00  0.00    -0.054 A 
HETATM   23  C   UNL     1      -5.748  -3.254 -34.722  1.00  0.00    -0.056 A 
HETATM   24  C   UNL     1      -3.696  -4.418 -33.786  1.00  0.00     0.049 C 
HETATM   25  C   UNL     1      -6.220  -4.529 -35.367  1.00  0.00     0.049 C 
HETATM   26  C   UNL     1      -6.490  -2.084 -34.903  1.00  0.00     0.009 A 
HETATM   27  C   UNL     1      -6.074  -0.880 -34.329  1.00  0.00     0.030 A 
ENDBRANCH  17  20
ENDBRANCH  15  16
ENDBRANCH   1  15
TORSDOF 3
ENDMDL
MODEL 9
REMARK VINA RESULT:      -7.9      3.204      5.996
REMARK  3 active torsions:
REMARK  status: ('A' for Active; 'I' for Inactive)
REMARK    1  A    between atoms: C_6  and  N_7 
REMARK       I    between atoms: N_7  and  C_8 
REMARK    2  A    between atoms: C_8  and  C_9 
REMARK    3  A    between atoms: C_9  and  C_10 
ROOT
HETATM    1  C   UNL     1      -5.080   3.167 -32.138  1.00  0.00     0.286 C 
HETATM    2  N   UNL     1      -4.738   4.022 -33.360  1.00  0.00    -0.056 N 
HETATM    3  H   UNL     1      -4.995   3.458 -34.196  1.00  0.00     0.278 HD
HETATM    4  H   UNL     1      -5.333   4.860 -33.387  1.00  0.00     0.278 HD
HETATM    5  C   UNL     1      -3.284   4.378 -33.370  1.00  0.00     0.209 C 
HETATM    6  C   UNL     1      -2.977   5.194 -32.093  1.00  0.00     0.115 C 
HETATM    7  N   UNL     1      -3.427   4.520 -30.876  1.00  0.00    -0.353 N 
HETATM    8  C   UNL     1      -4.614   3.818 -30.820  1.00  0.00     0.249 C 
HETATM    9  O   UNL     1      -5.188   3.654 -29.750  1.00  0.00    -0.271 OA
HETATM   10  C   UNL     1      -2.939   5.175 -34.621  1.00  0.00     0.035 C 
HETATM   11  C   UNL     1      -1.457   5.555 -34.601  1.00  0.00     0.002 C 
HETATM   12  C   UNL     1      -1.060   6.283 -33.314  1.00  0.00     0.002 C 
HETATM   13  C   UNL     1      -1.486   5.530 -32.050  1.00  0.00     0.027 C 
HETATM   14  H   UNL     1      -3.183   4.944 -29.982  1.00  0.00     0.163 HD
ENDROOT
BRANCH   1  15
HETATM   15  C   UNL     1      -6.570   2.812 -32.140  1.00  0.00     0.146 C 
BRANCH  15  16
HETATM   16  C   UNL     1      -7.042   2.814 -33.573  1.00  0.00     0.224 C 
HETATM   17  N   UNL     1      -7.126   1.712 -34.353  1.00  0.00    -0.327 N 
HETATM   18  H   UNL     1      -7.686   1.890 -35.183  1.00  0.00     0.169 HD
HETATM   19  O   UNL     1      -7.488   3.884 -34.019  1.00  0.00    -0.273 OA
BRANCH  17  20
HETATM   20  C   UNL     1      -6.598   0.409 -34.286  1.00  0.00     0.035 A 
HETATM   21  C   UNL     1      -5.449   0.031 -33.591  1.00  0.00     0.037 A 
HETATM   22  C   UNL     1      -4.992  -1.303 -33.602  1.00  0.00    -0.054 A 
HETATM   23  C   UNL     1      -5.693  -2.274 -34.340  1.00  0.00    -0.056 A 
HETATM   24  C   UNL     1      -3.762  -1.666 -32.809  1.00  0.00     0.049 C 
HETATM   25  C   UNL     1      -5.236  -3.707 -34.404  1.00  0.00     0.049 C 
HETATM   26  C   UNL     1      -6.811  -1.882 -35.081  1.00  0.00     0.009 A 
HETATM   27  C   UNL     1      -7.255  -0.558 -35.055  1.00  0.00     0.030 A 
ENDBRANCH  17  20
ENDBRANCH  15  16
ENDBRANCH   1  15
TORSDOF 3
ENDMDL
MODEL 10
REMARK VINA RESULT:      -7.8      1.754      2.771
REMARK  3 active torsions:
REMARK  status: ('A' for Active; 'I' for Inactive)
REMARK    1  A    between atoms: C_6  and  N_7 
REMARK       I    between atoms: N_7  and  C_8 
REMARK    2  A    between atoms: C_8  and  C_9 
REMARK    3  A    between atoms: C_9  and  C_10 
ROOT
HETATM    1  C   UNL     1      -9.442   0.905 -32.740  1.00  0.00     0.286 C 
HETATM    2  N   UNL     1      -9.855   2.243 -32.121  1.00  0.00    -0.056 N 
HETATM    3  H   UNL     1      -9.999   2.065 -31.106  1.00  0.00     0.278 HD
HETATM    4  H   UNL     1      -9.085   2.920 -32.187  1.00  0.00     0.278 HD
HETATM    5  C   UNL     1     -11.103   2.763 -32.763  1.00  0.00     0.209 C 
HETATM    6  C   UNL     1     -10.819   2.981 -34.267  1.00  0.00     0.115 C 
HETATM    7  N   UNL     1     -10.257   1.793 -34.909  1.00  0.00    -0.353 N 
HETATM    8  C   UNL     1      -9.337   0.980 -34.277  1.00  0.00     0.249 C 
HETATM    9  O   UNL     1      -8.562   0.294 -34.931  1.00  0.00    -0.271 OA
HETATM   10  C   UNL     1     -11.543   4.061 -32.099  1.00  0.00     0.035 C 
HETATM   11  C   UNL     1     -12.802   4.594 -32.787  1.00  0.00     0.002 C 
HETATM   12  C   UNL     1     -12.622   4.741 -34.300  1.00  0.00     0.002 C 
HETATM   13  C   UNL     1     -12.092   3.466 -34.962  1.00  0.00     0.027 C 
HETATM   14  H   UNL     1     -10.124   1.818 -35.919  1.00  0.00     0.163 HD
ENDROOT
BRANCH   1  15
HETATM   15  C   UNL     1      -8.164   0.386 -32.074  1.00  0.00     0.146 C 
BRANCH  15  16
HETATM   16  C   UNL     1      -7.006   1.194 -32.606  1.00  0.00     0.224 C 
HETATM   17  N   UNL     1      -5.962   0.674 -33.291  1.00  0.00    -0.327 N 
HETATM   18  H   UNL     1      -5.430   1.403 -33.760  1.00  0.00     0.169 HD
HETATM   19  O   UNL     1      -7.085   2.429 -32.503  1.00  0.00    -0.273 OA
BRANCH  17  20
HETATM   20  C   UNL     1      -5.442  -0.622 -33.472  1.00  0.00     0.035 A 
HETATM   21  C   UNL     1      -5.994  -1.614 -34.282  1.00  0.00     0.037 A 
HETATM   22  C   UNL     1      -5.404  -2.891 -34.381  1.00  0.00    -0.054 A 
HETATM   23  C   UNL     1      -4.245  -3.183 -33.639  1.00  0.00    -0.056 A 
HETATM   24  C   UNL     1      -6.023  -3.919 -35.294  1.00  0.00     0.049 C 
HETATM   25  C   UNL     1      -3.587  -4.535 -33.692  1.00  0.00     0.049 C 
HETATM   26  C   UNL     1      -3.725  -2.204 -32.787  1.00  0.00     0.009 A 
HETATM   27  C   UNL     1      -4.319  -0.943 -32.703  1.00  0.00     0.030 A 
ENDBRANCH  17  20
ENDBRANCH  15  16
ENDBRANCH   1  15
TORSDOF 3
ENDMDL
