MODEL 1
REMARK VINA RESULT:     -10.1      0.000      0.000
REMARK  6 active torsions:
REMARK  status: ('A' for Active; 'I' for Inactive)
REMARK    1  A    between atoms: C_5  and  N_6 
REMARK    2  A    between atoms: C_8  and  C_9 
REMARK    3  A    between atoms: C_16  and  C_17 
REMARK    4  A    between atoms: C_17  and  N_18 
REMARK    5  A    between atoms: C_22  and  N_23 
REMARK    6  A    between atoms: C_26  and  O_27 
ROOT
HETATM    1  N   UNL     1      -9.616   1.221 -34.015  1.00  0.00    -0.244 N 
HETATM    2  N   UNL     1      -8.838   0.122 -33.905  1.00  0.00    -0.167 NA
HETATM    3  C   UNL     1      -7.579   0.554 -33.828  1.00  0.00     0.097 A 
HETATM    4  C   UNL     1      -7.508   1.959 -34.037  1.00  0.00     0.016 A 
HETATM    5  C   UNL     1      -8.833   2.356 -34.092  1.00  0.00     0.130 A 
ENDROOT
BRANCH   4   6
HETATM    6  C   UNL     1      -6.307   2.819 -34.149  1.00  0.00     0.277 C 
BRANCH   6   7
HETATM    7  N   UNL     1      -6.164   3.878 -33.032  1.00  0.00    -0.067 N 
HETATM    8  H   UNL     1      -7.087   3.865 -32.564  1.00  0.00     0.280 HD
HETATM    9  C   UNL     1      -5.129   3.493 -32.012  1.00  0.00     0.237 C 
HETATM   10  C   UNL     1      -4.966   4.575 -30.965  1.00  0.00     0.061 C 
HETATM   11  C   UNL     1      -4.656   5.957 -31.531  1.00  0.00     0.191 C 
HETATM   12  C   UNL     1      -5.658   6.325 -32.629  1.00  0.00     0.061 C 
HETATM   13  C   UNL     1      -5.960   5.234 -33.654  1.00  0.00     0.237 C 
BRANCH  11  14
HETATM   14  N   UNL     1      -3.191   6.181 -31.909  1.00  0.00    -0.064 N 
HETATM   15  H   UNL     1      -3.161   6.069 -32.947  1.00  0.00     0.280 HD
HETATM   16  C   UNL     1      -2.744   7.657 -31.802  1.00  0.00     0.266 C 
HETATM   17  C   UNL     1      -1.513   7.834 -32.695  1.00  0.00     0.144 C 
HETATM   18  C   UNL     1      -0.375   6.957 -32.185  1.00  0.00     0.035 C 
HETATM   19  C   UNL     1      -0.790   5.488 -32.146  1.00  0.00     0.030 C 
HETATM   20  C   UNL     1      -2.109   5.252 -31.415  1.00  0.00     0.235 C 
BRANCH  17  21
HETATM   21  O   UNL     1      -1.901   7.378 -33.997  1.00  0.00    -0.394 OA
HETATM   22  H   UNL     1      -2.711   6.836 -33.887  1.00  0.00     0.210 HD
ENDBRANCH  17  21
ENDBRANCH  11  14
ENDBRANCH   6   7
ENDBRANCH   4   6
BRANCH   3  23
HETATM   23  C   UNL     1      -6.485  -0.384 -33.599  1.00  0.00    -0.005 A 
HETATM   24  C   UNL     1      -6.238  -1.415 -34.516  1.00  0.00     0.017 A 
HETATM   25  C   UNL     1      -5.185  -2.307 -34.301  1.00  0.00     0.043 A 
HETATM   26  C   UNL     1      -4.391  -2.173 -33.167  1.00  0.00     0.116 A 
HETATM   27  F   UNL     1      -3.379  -3.024 -32.965  1.00  0.00    -0.206 F 
HETATM   28  C   UNL     1      -4.638  -1.170 -32.236  1.00  0.00     0.043 A 
HETATM   29  C   UNL     1      -5.690  -0.277 -32.446  1.00  0.00     0.017 A 
ENDBRANCH   3  23
BRANCH   1  30
HETATM   30  C   UNL     1     -11.032   1.129 -34.101  1.00  0.00     0.058 A 
HETATM   31  C   UNL     1     -11.692   0.063 -33.476  1.00  0.00     0.032 A 
HETATM   32  C   UNL     1     -13.082  -0.054 -33.559  1.00  0.00     0.009 A 
HETATM   33  C   UNL     1     -13.832   0.885 -34.273  1.00  0.00    -0.062 A 
HETATM   34  C   UNL     1     -15.328   0.777 -34.355  1.00  0.00     0.048 C 
HETATM   35  C   UNL     1     -13.174   1.955 -34.889  1.00  0.00     0.009 A 
HETATM   36  C   UNL     1     -11.782   2.080 -34.806  1.00  0.00     0.032 A 
ENDBRANCH   1  30
TORSDOF 6
ENDMDL
MODEL 2
REMARK VINA RESULT:      -9.7      2.872      8.586
REMARK  6 active torsions:
REMARK  status: ('A' for Active; 'I' for Inactive)
REMARK    1  A    between atoms: C_5  and  N_6 
REMARK    2  A    between atoms: C_8  and  C_9 
REMARK    3  A    between atoms: C_16  and  C_17 
REMARK    4  A    between atoms: C_17  and  N_18 
REMARK    5  A    between atoms: C_22  and  N_23 
REMARK    6  A    between atoms: C_26  and  O_27 
ROOT
HETATM    1  N   UNL     1      -4.461   3.032 -32.177  1.00  0.00    -0.244 N 
HETATM    2  N   UNL     1      -4.202   1.858 -32.793  1.00  0.00    -0.167 NA
HETATM    3  C   UNL     1      -5.332   1.151 -32.757  1.00  0.00     0.097 A 
HETATM    4  C   UNL     1      -6.319   1.810 -31.972  1.00  0.00     0.016 A 
HETATM    5  C   UNL     1      -5.746   3.033 -31.671  1.00  0.00     0.130 A 
ENDROOT
BRANCH   4   6
HETATM    6  C   UNL     1      -7.663   1.326 -31.579  1.00  0.00     0.277 C 
BRANCH   6   7
HETATM    7  N   UNL     1      -8.709   1.326 -32.717  1.00  0.00    -0.067 N 
HETATM    8  H   UNL     1      -8.206   0.893 -33.511  1.00  0.00     0.280 HD
HETATM    9  C   UNL     1      -9.895   0.459 -32.400  1.00  0.00     0.237 C 
HETATM   10  C   UNL     1     -10.930   0.525 -33.503  1.00  0.00     0.061 C 
HETATM   11  C   UNL     1     -11.391   1.938 -33.848  1.00  0.00     0.191 C 
HETATM   12  C   UNL     1     -10.187   2.851 -34.094  1.00  0.00     0.061 C 
HETATM   13  C   UNL     1      -9.049   2.747 -33.082  1.00  0.00     0.237 C 
BRANCH  11  14
HETATM   14  N   UNL     1     -12.444   2.518 -32.903  1.00  0.00    -0.064 N 
HETATM   15  H   UNL     1     -12.176   2.168 -31.956  1.00  0.00     0.280 HD
HETATM   16  C   UNL     1     -12.287   4.038 -32.662  1.00  0.00     0.266 C 
HETATM   17  C   UNL     1     -12.990   4.372 -31.344  1.00  0.00     0.144 C 
HETATM   18  C   UNL     1     -14.478   4.061 -31.458  1.00  0.00     0.035 C 
HETATM   19  C   UNL     1     -14.706   2.595 -31.818  1.00  0.00     0.030 C 
HETATM   20  C   UNL     1     -13.899   2.138 -33.030  1.00  0.00     0.235 C 
BRANCH  17  21
HETATM   21  O   UNL     1     -12.411   3.508 -30.358  1.00  0.00    -0.394 OA
HETATM   22  H   UNL     1     -13.098   3.341 -29.677  1.00  0.00     0.210 HD
ENDBRANCH  17  21
ENDBRANCH  11  14
ENDBRANCH   6   7
ENDBRANCH   4   6
BRANCH   3  23
HETATM   23  C   UNL     1      -5.424  -0.139 -33.431  1.00  0.00    -0.005 A 
HETATM   24  C   UNL     1      -4.495  -1.149 -33.147  1.00  0.00     0.017 A 
HETATM   25  C   UNL     1      -4.588  -2.388 -33.786  1.00  0.00     0.043 A 
HETATM   26  C   UNL     1      -5.601  -2.608 -34.712  1.00  0.00     0.116 A 
HETATM   27  F   UNL     1      -5.694  -3.797 -35.319  1.00  0.00    -0.206 F 
HETATM   28  C   UNL     1      -6.517  -1.609 -35.023  1.00  0.00     0.043 A 
HETATM   29  C   UNL     1      -6.426  -0.369 -34.388  1.00  0.00     0.017 A 
ENDBRANCH   3  23
BRANCH   1  30
HETATM   30  C   UNL     1      -3.471   4.044 -32.051  1.00  0.00     0.058 A 
HETATM   31  C   UNL     1      -2.389   4.062 -32.941  1.00  0.00     0.032 A 
HETATM   32  C   UNL     1      -1.397   5.041 -32.827  1.00  0.00     0.009 A 
HETATM   33  C   UNL     1      -1.467   6.009 -31.820  1.00  0.00    -0.062 A 
HETATM   34  C   UNL     1      -0.416   7.074 -31.699  1.00  0.00     0.048 C 
HETATM   35  C   UNL     1      -2.554   5.996 -30.938  1.00  0.00     0.009 A 
HETATM   36  C   UNL     1      -3.552   5.022 -31.050  1.00  0.00     0.032 A 
ENDBRANCH   1  30
TORSDOF 6
ENDMDL
MODEL 3
REMARK VINA RESULT:      -9.6      1.822      2.728
REMARK  6 active torsions:
REMARK  status: ('A' for Active; 'I' for Inactive)
REMARK    1  A    between atoms: C_5  and  N_6 
REMARK    2  A    between atoms: C_8  and  C_9 
REMARK    3  A    between atoms: C_16  and  C_17 
REMARK    4  A    between atoms: C_17  and  N_18 
REMARK    5  A    between atoms: C_22  and  N_23 
REMARK    6  A    between atoms: C_26  and  O_27 
ROOT
HETATM    1  N   UNL     1      -7.851   1.229 -33.329  1.00  0.00    -0.244 N 
HETATM    2  N   UNL     1      -7.307   0.015 -33.565  1.00  0.00    -0.167 NA
HETATM    3  C   UNL     1      -6.049   0.070 -33.126  1.00  0.00     0.097 A 
HETATM    4  C   UNL     1      -5.707   1.391 -32.725  1.00  0.00     0.016 A 
HETATM    5  C   UNL     1      -6.900   2.087 -32.812  1.00  0.00     0.130 A 
ENDROOT
BRANCH   4   6
HETATM    6  C   UNL     1      -4.392   1.915 -32.289  1.00  0.00     0.277 C 
BRANCH   6   7
HETATM    7  N   UNL     1      -4.172   3.420 -32.564  1.00  0.00    -0.067 N 
HETATM    8  H   UNL     1      -4.859   3.635 -33.307  1.00  0.00     0.280 HD
HETATM    9  C   UNL     1      -4.507   4.271 -31.371  1.00  0.00     0.237 C 
HETATM   10  C   UNL     1      -4.225   5.733 -31.647  1.00  0.00     0.061 C 
HETATM   11  C   UNL     1      -2.802   6.022 -32.114  1.00  0.00     0.191 C 
HETATM   12  C   UNL     1      -2.421   5.103 -33.278  1.00  0.00     0.061 C 
HETATM   13  C   UNL     1      -2.787   3.629 -33.116  1.00  0.00     0.237 C 
BRANCH  11  14
HETATM   14  N   UNL     1      -1.762   6.091 -30.995  1.00  0.00    -0.064 N 
HETATM   15  H   UNL     1      -1.825   5.166 -30.513  1.00  0.00     0.280 HD
HETATM   16  C   UNL     1      -0.303   6.011 -31.502  1.00  0.00     0.266 C 
HETATM   17  C   UNL     1       0.567   5.540 -30.333  1.00  0.00     0.144 C 
HETATM   18  C   UNL     1       0.514   6.564 -29.204  1.00  0.00     0.035 C 
HETATM   19  C   UNL     1      -0.922   6.786 -28.734  1.00  0.00     0.030 C 
HETATM   20  C   UNL     1      -1.890   7.092 -29.873  1.00  0.00     0.235 C 
BRANCH  17  21
HETATM   21  O   UNL     1      -0.015   4.315 -29.875  1.00  0.00    -0.394 OA
HETATM   22  H   UNL     1      -0.077   3.714 -30.648  1.00  0.00     0.210 HD
ENDBRANCH  17  21
ENDBRANCH  11  14
ENDBRANCH   6   7
ENDBRANCH   4   6
BRANCH   3  23
HETATM   23  C   UNL     1      -5.205  -1.119 -33.141  1.00  0.00    -0.005 A 
HETATM   24  C   UNL     1      -4.264  -1.328 -32.123  1.00  0.00     0.017 A 
HETATM   25  C   UNL     1      -3.462  -2.472 -32.133  1.00  0.00     0.043 A 
HETATM   26  C   UNL     1      -3.595  -3.395 -33.163  1.00  0.00     0.116 A 
HETATM   27  F   UNL     1      -2.831  -4.493 -33.169  1.00  0.00    -0.206 F 
HETATM   28  C   UNL     1      -4.506  -3.191 -34.194  1.00  0.00     0.043 A 
HETATM   29  C   UNL     1      -5.308  -2.049 -34.189  1.00  0.00     0.017 A 
ENDBRANCH   3  23
BRANCH   1  30
HETATM   30  C   UNL     1      -9.203   1.519 -33.659  1.00  0.00     0.058 A 
HETATM   31  C   UNL     1      -9.512   2.732 -34.289  1.00  0.00     0.032 A 
HETATM   32  C   UNL     1     -10.836   3.044 -34.611  1.00  0.00     0.009 A 
HETATM   33  C   UNL     1     -11.869   2.155 -34.301  1.00  0.00    -0.062 A 
HETATM   34  C   UNL     1     -13.294   2.474 -34.657  1.00  0.00     0.048 C 
HETATM   35  C   UNL     1     -11.560   0.940 -33.681  1.00  0.00     0.009 A 
HETATM   36  C   UNL     1     -10.235   0.620 -33.361  1.00  0.00     0.032 A 
ENDBRANCH   1  30
TORSDOF 6
ENDMDL
MODEL 4
REMARK VINA RESULT:      -9.5      3.433      7.419
REMARK  6 active torsions:
REMARK  status: ('A' for Active; 'I' for Inactive)
REMARK    1  A    between atoms: C_5  and  N_6 
REMARK    2  A    between atoms: C_8  and  C_9 
REMARK    3  A    between atoms: C_16  and  C_17 
REMARK    4  A    between atoms: C_17  and  N_18 
REMARK    5  A    between atoms: C_22  and  N_23 
REMARK    6  A    between atoms: C_26  and  O_27 
ROOT
HETATM    1  N   UNL     1      -4.995   0.760 -32.611  1.00  0.00    -0.244 N 
HETATM    2  N   UNL     1      -4.070   1.619 -33.091  1.00  0.00    -0.167 NA
HETATM    3  C   UNL     1      -4.033   2.649 -32.245  1.00  0.00     0.097 A 
HETATM    4  C   UNL     1      -5.057   2.540 -31.264  1.00  0.00     0.016 A 
HETATM    5  C   UNL     1      -5.610   1.292 -31.494  1.00  0.00     0.130 A 
ENDROOT
BRANCH   4   6
HETATM    6  C   UNL     1      -5.443   3.514 -30.216  1.00  0.00     0.277 C 
BRANCH   6   7
HETATM    7  N   UNL     1      -6.759   4.275 -30.494  1.00  0.00    -0.067 N 
HETATM    8  H   UNL     1      -6.593   5.209 -30.083  1.00  0.00     0.280 HD
HETATM    9  C   UNL     1      -7.009   4.461 -31.965  1.00  0.00     0.237 C 
HETATM   10  C   UNL     1      -8.332   5.153 -32.211  1.00  0.00     0.061 C 
HETATM   11  C   UNL     1      -9.530   4.470 -31.558  1.00  0.00     0.191 C 
HETATM   12  C   UNL     1      -9.254   4.202 -30.075  1.00  0.00     0.061 C 
HETATM   13  C   UNL     1      -7.885   3.613 -29.744  1.00  0.00     0.237 C 
BRANCH  11  14
HETATM   14  N   UNL     1     -10.081   3.268 -32.327  1.00  0.00    -0.064 N 
HETATM   15  H   UNL     1     -10.854   2.899 -31.730  1.00  0.00     0.280 HD
HETATM   16  C   UNL     1     -10.896   3.658 -33.581  1.00  0.00     0.266 C 
HETATM   17  C   UNL     1     -11.816   2.482 -33.920  1.00  0.00     0.144 C 
HETATM   18  C   UNL     1     -10.980   1.254 -34.262  1.00  0.00     0.035 C 
HETATM   19  C   UNL     1     -10.054   0.882 -33.106  1.00  0.00     0.030 C 
HETATM   20  C   UNL     1      -9.223   2.056 -32.595  1.00  0.00     0.235 C 
BRANCH  17  21
HETATM   21  O   UNL     1     -12.568   2.214 -32.730  1.00  0.00    -0.394 OA
HETATM   22  H   UNL     1     -11.936   1.895 -32.051  1.00  0.00     0.210 HD
ENDBRANCH  17  21
ENDBRANCH  11  14
ENDBRANCH   6   7
ENDBRANCH   4   6
BRANCH   3  23
HETATM   23  C   UNL     1      -3.056   3.718 -32.419  1.00  0.00    -0.005 A 
HETATM   24  C   UNL     1      -2.976   4.407 -33.637  1.00  0.00     0.017 A 
HETATM   25  C   UNL     1      -2.047   5.437 -33.801  1.00  0.00     0.043 A 
HETATM   26  C   UNL     1      -1.196   5.768 -32.752  1.00  0.00     0.116 A 
HETATM   27  F   UNL     1      -0.310   6.758 -32.907  1.00  0.00    -0.206 F 
HETATM   28  C   UNL     1      -1.246   5.078 -31.545  1.00  0.00     0.043 A 
HETATM   29  C   UNL     1      -2.172   4.047 -31.378  1.00  0.00     0.017 A 
ENDBRANCH   3  23
BRANCH   1  30
HETATM   30  C   UNL     1      -5.283  -0.470 -33.263  1.00  0.00     0.058 A 
HETATM   31  C   UNL     1      -6.605  -0.767 -33.620  1.00  0.00     0.032 A 
HETATM   32  C   UNL     1      -6.912  -1.977 -34.250  1.00  0.00     0.009 A 
HETATM   33  C   UNL     1      -5.908  -2.908 -34.525  1.00  0.00    -0.062 A 
HETATM   34  C   UNL     1      -6.224  -4.204 -35.216  1.00  0.00     0.048 C 
HETATM   35  C   UNL     1      -4.586  -2.607 -34.178  1.00  0.00     0.009 A 
HETATM   36  C   UNL     1      -4.271  -1.396 -33.552  1.00  0.00     0.032 A 
ENDBRANCH   1  30
TORSDOF 6
ENDMDL
MODEL 5
REMARK VINA RESULT:      -9.5      2.639      7.803
REMARK  6 active torsions:
REMARK  status: ('A' for Active; 'I' for Inactive)
REMARK    1  A    between atoms: C_5  and  N_6 
REMARK    2  A    between atoms: C_8  and  C_9 
REMARK    3  A    between atoms: C_16  and  C_17 
REMARK    4  A    between atoms: C_17  and  N_18 
REMARK    5  A    between atoms: C_22  and  N_23 
REMARK    6  A    between atoms: C_26  and  O_27 
ROOT
HETATM    1  N   UNL     1      -3.762   2.304 -32.228  1.00  0.00    -0.244 N 
HETATM    2  N   UNL     1      -3.247   1.091 -32.523  1.00  0.00    -0.167 NA
HETATM    3  C   UNL     1      -4.232   0.208 -32.351  1.00  0.00     0.097 A 
HETATM    4  C   UNL     1      -5.381   0.830 -31.790  1.00  0.00     0.016 A 
HETATM    5  C   UNL     1      -5.063   2.177 -31.783  1.00  0.00     0.130 A 
ENDROOT
BRANCH   4   6
HETATM    6  C   UNL     1      -6.644   0.202 -31.335  1.00  0.00     0.277 C 
BRANCH   6   7
HETATM    7  N   UNL     1      -7.752   0.128 -32.410  1.00  0.00    -0.067 N 
HETATM    8  H   UNL     1      -7.757  -0.869 -32.687  1.00  0.00     0.280 HD
HETATM    9  C   UNL     1      -9.109   0.454 -31.851  1.00  0.00     0.237 C 
HETATM   10  C   UNL     1     -10.165   0.434 -32.935  1.00  0.00     0.061 C 
HETATM   11  C   UNL     1      -9.859   1.335 -34.127  1.00  0.00     0.191 C 
HETATM   12  C   UNL     1      -8.447   1.068 -34.655  1.00  0.00     0.061 C 
HETATM   13  C   UNL     1      -7.348   0.956 -33.600  1.00  0.00     0.237 C 
BRANCH  11  14
HETATM   14  N   UNL     1     -10.187   2.814 -33.914  1.00  0.00    -0.064 N 
HETATM   15  H   UNL     1      -9.264   3.271 -33.742  1.00  0.00     0.280 HD
HETATM   16  C   UNL     1     -10.594   3.550 -35.212  1.00  0.00     0.266 C 
HETATM   17  C   UNL     1     -10.354   5.046 -34.990  1.00  0.00     0.144 C 
HETATM   18  C   UNL     1     -11.245   5.550 -33.860  1.00  0.00     0.035 C 
HETATM   19  C   UNL     1     -10.983   4.779 -32.569  1.00  0.00     0.030 C 
HETATM   20  C   UNL     1     -11.035   3.264 -32.750  1.00  0.00     0.235 C 
BRANCH  17  21
HETATM   21  O   UNL     1      -8.984   5.171 -34.590  1.00  0.00    -0.394 OA
HETATM   22  H   UNL     1      -8.866   4.629 -33.781  1.00  0.00     0.210 HD
ENDBRANCH  17  21
ENDBRANCH  11  14
ENDBRANCH   6   7
ENDBRANCH   4   6
BRANCH   3  23
HETATM   23  C   UNL     1      -4.035  -1.198 -32.685  1.00  0.00    -0.005 A 
HETATM   24  C   UNL     1      -4.602  -1.731 -33.851  1.00  0.00     0.017 A 
HETATM   25  C   UNL     1      -4.406  -3.076 -34.175  1.00  0.00     0.043 A 
HETATM   26  C   UNL     1      -3.654  -3.884 -33.329  1.00  0.00     0.116 A 
HETATM   27  F   UNL     1      -3.461  -5.170 -33.644  1.00  0.00    -0.206 F 
HETATM   28  C   UNL     1      -3.105  -3.377 -32.157  1.00  0.00     0.043 A 
HETATM   29  C   UNL     1      -3.300  -2.034 -31.829  1.00  0.00     0.017 A 
ENDBRANCH   3  23
BRANCH   1  30
HETATM   30  C   UNL     1      -2.984   3.490 -32.324  1.00  0.00     0.058 A 
HETATM   31  C   UNL     1      -2.593   3.956 -33.587  1.00  0.00     0.032 A 
HETATM   32  C   UNL     1      -1.816   5.112 -33.703  1.00  0.00     0.009 A 
HETATM   33  C   UNL     1      -1.412   5.813 -32.564  1.00  0.00    -0.062 A 
HETATM   34  C   UNL     1      -0.591   7.066 -32.680  1.00  0.00     0.048 C 
HETATM   35  C   UNL     1      -1.811   5.354 -31.304  1.00  0.00     0.009 A 
HETATM   36  C   UNL     1      -2.592   4.199 -31.181  1.00  0.00     0.032 A 
ENDBRANCH   1  30
TORSDOF 6
ENDMDL
MODEL 6
REMARK VINA RESULT:      -9.5      3.163      7.395
REMARK  6 active torsions:
REMARK  status: ('A' for Active; 'I' for Inactive)
REMARK    1  A    between atoms: C_5  and  N_6 
REMARK    2  A    between atoms: C_8  and  C_9 
REMARK    3  A    between atoms: C_16  and  C_17 
REMARK    4  A    between atoms: C_17  and  N_18 
REMARK    5  A    between atoms: C_22  and  N_23 
REMARK    6  A    between atoms: C_26  and  O_27 
ROOT
HETATM    1  N   UNL     1      -5.332   0.595 -32.691  1.00  0.00    -0.244 N 
HETATM    2  N   UNL     1      -4.428   1.475 -33.173  1.00  0.00    -0.167 NA
HETATM    3  C   UNL     1      -4.426   2.515 -32.337  1.00  0.00     0.097 A 
HETATM    4  C   UNL     1      -5.454   2.387 -31.363  1.00  0.00     0.016 A 
HETATM    5  C   UNL     1      -5.970   1.122 -31.584  1.00  0.00     0.130 A 
ENDROOT
BRANCH   4   6
HETATM    6  C   UNL     1      -5.874   3.360 -30.328  1.00  0.00     0.277 C 
BRANCH   6   7
HETATM    7  N   UNL     1      -7.135   4.181 -30.687  1.00  0.00    -0.067 N 
HETATM    8  H   UNL     1      -6.947   5.110 -30.273  1.00  0.00     0.280 HD
HETATM    9  C   UNL     1      -7.290   4.364 -32.171  1.00  0.00     0.237 C 
HETATM   10  C   UNL     1      -8.563   5.117 -32.497  1.00  0.00     0.061 C 
HETATM   11  C   UNL     1      -9.827   4.498 -31.910  1.00  0.00     0.191 C 
HETATM   12  C   UNL     1      -9.650   4.232 -30.412  1.00  0.00     0.061 C 
HETATM   13  C   UNL     1      -8.332   3.581 -29.999  1.00  0.00     0.237 C 
BRANCH  11  14
HETATM   14  N   UNL     1     -10.390   3.317 -32.701  1.00  0.00    -0.064 N 
HETATM   15  H   UNL     1     -10.010   3.436 -33.667  1.00  0.00     0.280 HD
HETATM   16  C   UNL     1      -9.737   1.963 -32.339  1.00  0.00     0.266 C 
HETATM   17  C   UNL     1      -9.956   1.013 -33.520  1.00  0.00     0.144 C 
HETATM   18  C   UNL     1     -11.449   0.778 -33.724  1.00  0.00     0.035 C 
HETATM   19  C   UNL     1     -12.183   2.096 -33.966  1.00  0.00     0.030 C 
HETATM   20  C   UNL     1     -11.876   3.159 -32.915  1.00  0.00     0.235 C 
BRANCH  17  21
HETATM   21  O   UNL     1      -9.432   1.685 -34.671  1.00  0.00    -0.394 OA
HETATM   22  H   UNL     1      -8.478   1.466 -34.728  1.00  0.00     0.210 HD
ENDBRANCH  17  21
ENDBRANCH  11  14
ENDBRANCH   6   7
ENDBRANCH   4   6
BRANCH   3  23
HETATM   23  C   UNL     1      -3.478   3.609 -32.516  1.00  0.00    -0.005 A 
HETATM   24  C   UNL     1      -2.453   3.813 -31.583  1.00  0.00     0.017 A 
HETATM   25  C   UNL     1      -1.540   4.856 -31.760  1.00  0.00     0.043 A 
HETATM   26  C   UNL     1      -1.663   5.696 -32.861  1.00  0.00     0.116 A 
HETATM   27  F   UNL     1      -0.785   6.691 -33.032  1.00  0.00    -0.206 F 
HETATM   28  C   UNL     1      -2.688   5.523 -33.783  1.00  0.00     0.043 A 
HETATM   29  C   UNL     1      -3.603   4.483 -33.609  1.00  0.00     0.017 A 
ENDBRANCH   3  23
BRANCH   1  30
HETATM   30  C   UNL     1      -5.580  -0.649 -33.332  1.00  0.00     0.058 A 
HETATM   31  C   UNL     1      -4.504  -1.495 -33.632  1.00  0.00     0.032 A 
HETATM   32  C   UNL     1      -4.724  -2.717 -34.274  1.00  0.00     0.009 A 
HETATM   33  C   UNL     1      -6.016  -3.107 -34.634  1.00  0.00    -0.062 A 
HETATM   34  C   UNL     1      -6.265  -4.425 -35.310  1.00  0.00     0.048 C 
HETATM   35  C   UNL     1      -7.092  -2.266 -34.326  1.00  0.00     0.009 A 
HETATM   36  C   UNL     1      -6.879  -1.044 -33.678  1.00  0.00     0.032 A 
ENDBRANCH   1  30
TORSDOF 6
ENDMDL
MODEL 7
REMARK VINA RESULT:      -9.5      3.514      7.754
REMARK  6 active torsions:
REMARK  status: ('A' for Active; 'I' for Inactive)
REMARK    1  A    between atoms: C_5  and  N_6 
REMARK    2  A    between atoms: C_8  and  C_9 
REMARK    3  A    between atoms: C_16  and  C_17 
REMARK    4  A    between atoms: C_17  and  N_18 
REMARK    5  A    between atoms: C_22  and  N_23 
REMARK    6  A    between atoms: C_26  and  O_27 
ROOT
HETATM    1  N   UNL     1      -5.796   0.279 -32.784  1.00  0.00    -0.244 N 
HETATM    2  N   UNL     1      -4.889   1.212 -33.146  1.00  0.00    -0.167 NA
HETATM    3  C   UNL     1      -5.050   2.242 -32.315  1.00  0.00     0.097 A 
HETATM    4  C   UNL     1      -6.183   2.049 -31.477  1.00  0.00     0.016 A 
HETATM    5  C   UNL     1      -6.596   0.759 -31.764  1.00  0.00     0.130 A 
ENDROOT
BRANCH   4   6
HETATM    6  C   UNL     1      -6.784   2.987 -30.501  1.00  0.00     0.277 C 
BRANCH   6   7
HETATM    7  N   UNL     1      -7.911   3.879 -31.071  1.00  0.00    -0.067 N 
HETATM    8  H   UNL     1      -7.576   4.841 -30.892  1.00  0.00     0.280 HD
HETATM    9  C   UNL     1      -8.067   3.718 -32.557  1.00  0.00     0.237 C 
HETATM   10  C   UNL     1      -9.216   4.554 -33.079  1.00  0.00     0.061 C 
HETATM   11  C   UNL     1     -10.548   4.297 -32.382  1.00  0.00     0.191 C 
HETATM   12  C   UNL     1     -10.383   4.379 -30.862  1.00  0.00     0.061 C 
HETATM   13  C   UNL     1      -9.172   3.655 -30.279  1.00  0.00     0.237 C 
BRANCH  11  14
HETATM   14  N   UNL     1     -11.301   3.060 -32.872  1.00  0.00    -0.064 N 
HETATM   15  H   UNL     1     -11.797   2.696 -32.028  1.00  0.00     0.280 HD
HETATM   16  C   UNL     1     -12.524   3.391 -33.759  1.00  0.00     0.266 C 
HETATM   17  C   UNL     1     -13.467   2.186 -33.715  1.00  0.00     0.144 C 
HETATM   18  C   UNL     1     -12.772   0.964 -34.304  1.00  0.00     0.035 C 
HETATM   19  C   UNL     1     -11.482   0.649 -33.550  1.00  0.00     0.030 C 
HETATM   20  C   UNL     1     -10.560   1.856 -33.402  1.00  0.00     0.235 C 
BRANCH  17  21
HETATM   21  O   UNL     1     -13.733   1.943 -32.328  1.00  0.00    -0.394 OA
HETATM   22  H   UNL     1     -13.941   0.989 -32.234  1.00  0.00     0.210 HD
ENDBRANCH  17  21
ENDBRANCH  11  14
ENDBRANCH   6   7
ENDBRANCH   4   6
BRANCH   3  23
HETATM   23  C   UNL     1      -4.151   3.389 -32.371  1.00  0.00    -0.005 A 
HETATM   24  C   UNL     1      -3.006   3.427 -31.563  1.00  0.00     0.017 A 
HETATM   25  C   UNL     1      -2.141   4.522 -31.624  1.00  0.00     0.043 A 
HETATM   26  C   UNL     1      -2.428   5.578 -32.482  1.00  0.00     0.116 A 
HETATM   27  F   UNL     1      -1.595   6.623 -32.544  1.00  0.00    -0.206 F 
HETATM   28  C   UNL     1      -3.571   5.567 -33.272  1.00  0.00     0.043 A 
HETATM   29  C   UNL     1      -4.440   4.475 -33.213  1.00  0.00     0.017 A 
ENDBRANCH   3  23
BRANCH   1  30
HETATM   30  C   UNL     1      -5.892  -0.971 -33.454  1.00  0.00     0.058 A 
HETATM   31  C   UNL     1      -4.722  -1.681 -33.754  1.00  0.00     0.032 A 
HETATM   32  C   UNL     1      -4.792  -2.906 -34.425  1.00  0.00     0.009 A 
HETATM   33  C   UNL     1      -6.027  -3.433 -34.812  1.00  0.00    -0.062 A 
HETATM   34  C   UNL     1      -6.114  -4.756 -35.518  1.00  0.00     0.048 C 
HETATM   35  C   UNL     1      -7.195  -2.728 -34.503  1.00  0.00     0.009 A 
HETATM   36  C   UNL     1      -7.132  -1.504 -33.827  1.00  0.00     0.032 A 
ENDBRANCH   1  30
TORSDOF 6
ENDMDL
MODEL 8
REMARK VINA RESULT:      -9.5      3.844      5.923
REMARK  6 active torsions:
REMARK  status: ('A' for Active; 'I' for Inactive)
REMARK    1  A    between atoms: C_5  and  N_6 
REMARK    2  A    between atoms: C_8  and  C_9 
REMARK    3  A    between atoms: C_16  and  C_17 
REMARK    4  A    between atoms: C_17  and  N_18 
REMARK    5  A    between atoms: C_22  and  N_23 
REMARK    6  A    between atoms: C_26  and  O_27 
ROOT
HETATM    1  N   UNL     1      -6.026   0.310 -32.724  1.00  0.00    -0.244 N 
HETATM    2  N   UNL     1      -7.182   0.983 -32.539  1.00  0.00    -0.167 NA
HETATM    3  C   UNL     1      -6.868   2.109 -31.898  1.00  0.00     0.097 A 
HETATM    4  C   UNL     1      -5.497   2.116 -31.522  1.00  0.00     0.016 A 
HETATM    5  C   UNL     1      -4.980   0.980 -32.119  1.00  0.00     0.130 A 
ENDROOT
BRANCH   4   6
HETATM    6  C   UNL     1      -4.767   3.111 -30.701  1.00  0.00     0.277 C 
BRANCH   6   7
HETATM    7  N   UNL     1      -4.058   4.220 -31.511  1.00  0.00    -0.067 N 
HETATM    8  H   UNL     1      -4.479   4.143 -32.453  1.00  0.00     0.280 HD
HETATM    9  C   UNL     1      -4.365   5.594 -30.985  1.00  0.00     0.237 C 
HETATM   10  C   UNL     1      -3.610   6.656 -31.756  1.00  0.00     0.061 C 
HETATM   11  C   UNL     1      -2.101   6.441 -31.809  1.00  0.00     0.191 C 
HETATM   12  C   UNL     1      -1.777   5.016 -32.268  1.00  0.00     0.061 C 
HETATM   13  C   UNL     1      -2.589   3.901 -31.615  1.00  0.00     0.237 C 
BRANCH  11  14
HETATM   14  N   UNL     1      -1.344   6.892 -30.559  1.00  0.00    -0.064 N 
HETATM   15  H   UNL     1      -1.680   6.258 -29.800  1.00  0.00     0.280 HD
HETATM   16  C   UNL     1       0.152   6.501 -30.569  1.00  0.00     0.266 C 
HETATM   17  C   UNL     1       0.638   6.496 -29.117  1.00  0.00     0.144 C 
HETATM   18  C   UNL     1       0.518   7.896 -28.526  1.00  0.00     0.035 C 
HETATM   19  C   UNL     1      -0.922   8.399 -28.597  1.00  0.00     0.030 C 
HETATM   20  C   UNL     1      -1.538   8.275 -29.988  1.00  0.00     0.235 C 
BRANCH  17  21
HETATM   21  O   UNL     1      -0.245   5.617 -28.408  1.00  0.00    -0.394 OA
HETATM   22  H   UNL     1      -0.857   6.178 -27.885  1.00  0.00     0.210 HD
ENDBRANCH  17  21
ENDBRANCH  11  14
ENDBRANCH   6   7
ENDBRANCH   4   6
BRANCH   3  23
HETATM   23  C   UNL     1      -7.886   3.120 -31.630  1.00  0.00    -0.005 A 
HETATM   24  C   UNL     1      -8.897   2.869 -30.693  1.00  0.00     0.017 A 
HETATM   25  C   UNL     1      -9.866   3.841 -30.430  1.00  0.00     0.043 A 
HETATM   26  C   UNL     1      -9.827   5.052 -31.112  1.00  0.00     0.116 A 
HETATM   27  F   UNL     1     -10.752   5.984 -30.855  1.00  0.00    -0.206 F 
HETATM   28  C   UNL     1      -8.845   5.307 -32.062  1.00  0.00     0.043 A 
HETATM   29  C   UNL     1      -7.876   4.338 -32.329  1.00  0.00     0.017 A 
ENDBRANCH   3  23
BRANCH   1  30
HETATM   30  C   UNL     1      -5.988  -0.940 -33.400  1.00  0.00     0.058 A 
HETATM   31  C   UNL     1      -4.755  -1.573 -33.607  1.00  0.00     0.032 A 
HETATM   32  C   UNL     1      -4.693  -2.797 -34.281  1.00  0.00     0.009 A 
HETATM   33  C   UNL     1      -5.858  -3.399 -34.764  1.00  0.00    -0.062 A 
HETATM   34  C   UNL     1      -5.804  -4.721 -35.475  1.00  0.00     0.048 C 
HETATM   35  C   UNL     1      -7.090  -2.772 -34.549  1.00  0.00     0.009 A 
HETATM   36  C   UNL     1      -7.158  -1.550 -33.871  1.00  0.00     0.032 A 
ENDBRANCH   1  30
TORSDOF 6
ENDMDL
MODEL 9
REMARK VINA RESULT:      -9.4      3.118      9.117
REMARK  6 active torsions:
REMARK  status: ('A' for Active; 'I' for Inactive)
REMARK    1  A    between atoms: C_5  and  N_6 
REMARK    2  A    between atoms: C_8  and  C_9 
REMARK    3  A    between atoms: C_16  and  C_17 
REMARK    4  A    between atoms: C_17  and  N_18 
REMARK    5  A    between atoms: C_22  and  N_23 
REMARK    6  A    between atoms: C_26  and  O_27 
ROOT
HETATM    1  N   UNL     1      -4.527   3.994 -32.151  1.00  0.00    -0.244 N 
HETATM    2  N   UNL     1      -4.539   2.730 -32.629  1.00  0.00    -0.167 NA
HETATM    3  C   UNL     1      -5.820   2.386 -32.763  1.00  0.00     0.097 A 
HETATM    4  C   UNL     1      -6.676   3.388 -32.226  1.00  0.00     0.016 A 
HETATM    5  C   UNL     1      -5.816   4.423 -31.901  1.00  0.00     0.130 A 
ENDROOT
BRANCH   4   6
HETATM    6  C   UNL     1      -8.148   3.358 -32.066  1.00  0.00     0.277 C 
BRANCH   6   7
HETATM    7  N   UNL     1      -8.926   2.900 -33.320  1.00  0.00    -0.067 N 
HETATM    8  H   UNL     1      -8.183   2.736 -34.022  1.00  0.00     0.280 HD
HETATM    9  C   UNL     1      -9.642   1.596 -33.101  1.00  0.00     0.237 C 
HETATM   10  C   UNL     1     -10.444   1.201 -34.323  1.00  0.00     0.061 C 
HETATM   11  C   UNL     1     -11.427   2.266 -34.800  1.00  0.00     0.191 C 
HETATM   12  C   UNL     1     -10.725   3.618 -34.949  1.00  0.00     0.061 C 
HETATM   13  C   UNL     1      -9.803   4.025 -33.802  1.00  0.00     0.237 C 
BRANCH  11  14
HETATM   14  N   UNL     1     -12.743   2.317 -34.022  1.00  0.00    -0.064 N 
HETATM   15  H   UNL     1     -13.474   2.503 -34.745  1.00  0.00     0.280 HD
HETATM   16  C   UNL     1     -13.224   0.933 -33.529  1.00  0.00     0.266 C 
HETATM   17  C   UNL     1     -14.733   1.027 -33.284  1.00  0.00     0.144 C 
HETATM   18  C   UNL     1     -15.016   2.046 -32.185  1.00  0.00     0.035 C 
HETATM   19  C   UNL     1     -14.456   3.418 -32.553  1.00  0.00     0.030 C 
HETATM   20  C   UNL     1     -12.990   3.379 -32.978  1.00  0.00     0.235 C 
BRANCH  17  21
HETATM   21  O   UNL     1     -15.303   1.500 -34.511  1.00  0.00    -0.394 OA
HETATM   22  H   UNL     1     -14.568   1.843 -35.062  1.00  0.00     0.210 HD
ENDBRANCH  17  21
ENDBRANCH  11  14
ENDBRANCH   6   7
ENDBRANCH   4   6
BRANCH   3  23
HETATM   23  C   UNL     1      -6.187   1.106 -33.358  1.00  0.00    -0.005 A 
HETATM   24  C   UNL     1      -6.607   1.043 -34.693  1.00  0.00     0.017 A 
HETATM   25  C   UNL     1      -6.949  -0.185 -35.264  1.00  0.00     0.043 A 
HETATM   26  C   UNL     1      -6.880  -1.342 -34.497  1.00  0.00     0.116 A 
HETATM   27  F   UNL     1      -7.202  -2.519 -35.046  1.00  0.00    -0.206 F 
HETATM   28  C   UNL     1      -6.488  -1.295 -33.164  1.00  0.00     0.043 A 
HETATM   29  C   UNL     1      -6.147  -0.069 -32.589  1.00  0.00     0.017 A 
ENDBRANCH   3  23
BRANCH   1  30
HETATM   30  C   UNL     1      -3.312   4.689 -31.905  1.00  0.00     0.058 A 
HETATM   31  C   UNL     1      -3.279   5.691 -30.926  1.00  0.00     0.032 A 
HETATM   32  C   UNL     1      -2.098   6.397 -30.677  1.00  0.00     0.009 A 
HETATM   33  C   UNL     1      -0.938   6.118 -31.405  1.00  0.00    -0.062 A 
HETATM   34  C   UNL     1       0.340   6.859 -31.133  1.00  0.00     0.048 C 
HETATM   35  C   UNL     1      -0.969   5.110 -32.375  1.00  0.00     0.009 A 
HETATM   36  C   UNL     1      -2.146   4.397 -32.626  1.00  0.00     0.032 A 
ENDBRANCH   1  30
TORSDOF 6
ENDMDL
MODEL 10
REMARK VINA RESULT:      -8.9      3.543      8.258
REMARK  6 active torsions:
REMARK  status: ('A' for Active; 'I' for Inactive)
REMARK    1  A    between atoms: C_5  and  N_6 
REMARK    2  A    between atoms: C_8  and  C_9 
REMARK    3  A    between atoms: C_16  and  C_17 
REMARK    4  A    between atoms: C_17  and  N_18 
REMARK    5  A    between atoms: C_22  and  N_23 
REMARK    6  A    between atoms: C_26  and  O_27 
ROOT
HETATM    1  N   UNL     1      -6.176   0.301 -33.238  1.00  0.00    -0.244 N 
HETATM    2  N   UNL     1      -5.208   1.230 -33.400  1.00  0.00    -0.167 NA
HETATM    3  C   UNL     1      -5.660   2.352 -32.840  1.00  0.00     0.097 A 
HETATM    4  C   UNL     1      -7.013   2.206 -32.426  1.00  0.00     0.016 A 
HETATM    5  C   UNL     1      -7.286   0.866 -32.642  1.00  0.00     0.130 A 
ENDROOT
BRANCH   4   6
HETATM    6  C   UNL     1      -7.927   3.231 -31.870  1.00  0.00     0.277 C 
BRANCH   6   7
HETATM    7  N   UNL     1      -8.913   3.841 -32.893  1.00  0.00    -0.067 N 
HETATM    8  H   UNL     1      -8.307   4.420 -33.500  1.00  0.00     0.280 HD
HETATM    9  C   UNL     1      -9.558   2.794 -33.756  1.00  0.00     0.237 C 
HETATM   10  C   UNL     1     -10.563   3.411 -34.705  1.00  0.00     0.061 C 
HETATM   11  C   UNL     1     -11.631   4.261 -34.024  1.00  0.00     0.191 C 
HETATM   12  C   UNL     1     -10.987   5.280 -33.080  1.00  0.00     0.061 C 
HETATM   13  C   UNL     1      -9.878   4.747 -32.175  1.00  0.00     0.237 C 
BRANCH  11  14
HETATM   14  N   UNL     1     -12.786   3.468 -33.409  1.00  0.00    -0.064 N 
HETATM   15  H   UNL     1     -12.399   3.077 -32.521  1.00  0.00     0.280 HD
HETATM   16  C   UNL     1     -13.905   4.360 -32.824  1.00  0.00     0.266 C 
HETATM   17  C   UNL     1     -14.672   3.525 -31.796  1.00  0.00     0.144 C 
HETATM   18  C   UNL     1     -15.328   2.332 -32.484  1.00  0.00     0.035 C 
HETATM   19  C   UNL     1     -14.287   1.468 -33.192  1.00  0.00     0.030 C 
HETATM   20  C   UNL     1     -13.365   2.265 -34.112  1.00  0.00     0.235 C 
BRANCH  17  21
HETATM   21  O   UNL     1     -13.693   3.043 -30.868  1.00  0.00    -0.394 OA
HETATM   22  H   UNL     1     -14.144   2.917 -30.006  1.00  0.00     0.210 HD
ENDBRANCH  17  21
ENDBRANCH  11  14
ENDBRANCH   6   7
ENDBRANCH   4   6
BRANCH   3  23
HETATM   23  C   UNL     1      -4.810   3.534 -32.753  1.00  0.00    -0.005 A 
HETATM   24  C   UNL     1      -4.920   4.553 -33.709  1.00  0.00     0.017 A 
HETATM   25  C   UNL     1      -4.111   5.689 -33.620  1.00  0.00     0.043 A 
HETATM   26  C   UNL     1      -3.190   5.796 -32.584  1.00  0.00     0.116 A 
HETATM   27  F   UNL     1      -2.420   6.887 -32.497  1.00  0.00    -0.206 F 
HETATM   28  C   UNL     1      -3.051   4.784 -31.642  1.00  0.00     0.043 A 
HETATM   29  C   UNL     1      -3.856   3.646 -31.728  1.00  0.00     0.017 A 
ENDBRANCH   3  23
BRANCH   1  30
HETATM   30  C   UNL     1      -6.018  -1.032 -33.704  1.00  0.00     0.058 A 
HETATM   31  C   UNL     1      -4.736  -1.597 -33.754  1.00  0.00     0.032 A 
HETATM   32  C   UNL     1      -4.557  -2.902 -34.222  1.00  0.00     0.009 A 
HETATM   33  C   UNL     1      -5.651  -3.657 -34.654  1.00  0.00    -0.062 A 
HETATM   34  C   UNL     1      -5.471  -5.065 -35.144  1.00  0.00     0.048 C 
HETATM   35  C   UNL     1      -6.931  -3.096 -34.595  1.00  0.00     0.009 A 
HETATM   36  C   UNL     1      -7.118  -1.792 -34.123  1.00  0.00     0.032 A 
ENDBRANCH   1  30
TORSDOF 6
ENDMDL
