MODEL 1
REMARK VINA RESULT:      -7.0      0.000      0.000
REMARK  13 active torsions:
REMARK  status: ('A' for Active; 'I' for Inactive)
REMARK    1  A    between atoms: C_2  and  N_3 
REMARK    2  A    between atoms: N_3  and  C_5 
REMARK    3  A    between atoms: N_3  and  C_34 
REMARK    4  A    between atoms: C_5  and  C_6 
REMARK    5  A    between atoms: C_6  and  O_7 
REMARK    6  A    between atoms: O_7  and  C_8 
REMARK    7  A    between atoms: N_15  and  N_16 
REMARK    8  A    between atoms: C_20  and  O_21 
REMARK    9  A    between atoms: O_21  and  C_22 
REMARK   10  A    between atoms: C_22  and  C_23 
REMARK   11  A    between atoms: C_23  and  N_24 
REMARK   12  A    between atoms: N_24  and  C_26 
REMARK   13  A    between atoms: N_24  and  C_28 
ROOT
HETATM    1  C   UNL     1      -3.984   7.033 -30.803  1.00  0.00     0.087 A 
HETATM    2  C   UNL     1      -4.777   6.370 -29.838  1.00  0.00     0.045 A 
HETATM    3 BR   UNL     1      -4.806   6.968 -28.032  1.00  0.00    -0.048 Br
HETATM    4  C   UNL     1      -5.581   5.271 -30.177  1.00  0.00     0.035 A 
HETATM    5  C   UNL     1      -5.567   4.828 -31.489  1.00  0.00    -0.011 A 
HETATM    6  C   UNL     1      -4.746   5.466 -32.440  1.00  0.00     0.009 A 
HETATM    7  C   UNL     1      -4.936   4.753 -33.733  1.00  0.00     0.093 A 
HETATM    8  N   UNL     1      -4.419   4.908 -34.911  1.00  0.00    -0.203 NA
HETATM    9  C   UNL     1      -5.931   3.686 -33.474  1.00  0.00     0.009 A 
HETATM   10  C   UNL     1      -6.296   3.750 -32.125  1.00  0.00    -0.011 A 
HETATM   11  C   UNL     1      -6.449   2.761 -34.369  1.00  0.00     0.053 A 
HETATM   12  C   UNL     1      -7.381   1.843 -33.883  1.00  0.00     0.087 A 
HETATM   13  C   UNL     1      -7.777   1.910 -32.523  1.00  0.00     0.045 A 
HETATM   14 BR   UNL     1      -9.068   0.694 -31.833  1.00  0.00    -0.048 Br
HETATM   15  C   UNL     1      -7.234   2.856 -31.637  1.00  0.00     0.035 A 
HETATM   16  C   UNL     1      -3.955   6.559 -32.118  1.00  0.00     0.053 A 
ENDROOT
BRANCH   1  17
HETATM   17  O   UNL     1      -3.242   8.108 -30.374  1.00  0.00    -0.348 OA
BRANCH  17  18
HETATM   18  C   UNL     1      -1.821   7.990 -30.522  1.00  0.00     0.203 C 
BRANCH  18  19
HETATM   19  C   UNL     1      -1.243   7.563 -29.167  1.00  0.00     0.261 C 
BRANCH  19  20
HETATM   20  N   UNL     1      -0.795   6.103 -29.172  1.00  0.00    -0.070 N 
HETATM   21  H   UNL     1      -1.574   5.596 -28.719  1.00  0.00     0.279 HD
BRANCH  20  22
HETATM   22  C   UNL     1       0.438   5.857 -28.321  1.00  0.00     0.230 C 
HETATM   23  C   UNL     1       0.918   7.144 -27.674  1.00  0.00     0.034 C 
ENDBRANCH  20  22
BRANCH  20  24
HETATM   24  C   UNL     1      -0.680   5.465 -30.545  1.00  0.00     0.230 C 
HETATM   25  C   UNL     1       0.761   5.211 -30.949  1.00  0.00     0.034 C 
ENDBRANCH  20  24
ENDBRANCH  19  20
ENDBRANCH  18  19
ENDBRANCH  17  18
ENDBRANCH   1  17
BRANCH   8  26
HETATM   26  N   UNL     1      -3.498   5.880 -35.059  1.00  0.00    -0.226 NA
HETATM   27  H   UNL     1      -2.706   5.495 -35.588  1.00  0.00     0.145 HD
HETATM   28  H   UNL     1      -3.069   6.062 -34.145  1.00  0.00     0.145 HD
ENDBRANCH   8  26
BRANCH  12  29
HETATM   29  O   UNL     1      -7.974   0.879 -34.663  1.00  0.00    -0.348 OA
BRANCH  29  30
HETATM   30  C   UNL     1      -7.093  -0.035 -35.324  1.00  0.00     0.203 C 
BRANCH  30  31
HETATM   31  C   UNL     1      -6.718  -1.134 -34.323  1.00  0.00     0.261 C 
BRANCH  31  32
HETATM   32  N   UNL     1      -5.202  -1.292 -34.178  1.00  0.00    -0.070 N 
HETATM   33  H   UNL     1      -4.830  -0.907 -35.062  1.00  0.00     0.279 HD
BRANCH  32  34
HETATM   34  C   UNL     1      -4.572  -0.450 -33.085  1.00  0.00     0.230 C 
HETATM   35  C   UNL     1      -5.277  -0.595 -31.749  1.00  0.00     0.034 C 
ENDBRANCH  32  34
BRANCH  32  36
HETATM   36  C   UNL     1      -4.822  -2.762 -34.168  1.00  0.00     0.230 C 
HETATM   37  C   UNL     1      -5.655  -3.571 -35.144  1.00  0.00     0.034 C 
ENDBRANCH  32  36
ENDBRANCH  31  32
ENDBRANCH  30  31
ENDBRANCH  29  30
ENDBRANCH  12  29
TORSDOF 13
ENDMDL
MODEL 2
REMARK VINA RESULT:      -6.8      0.605      8.427
REMARK  13 active torsions:
REMARK  status: ('A' for Active; 'I' for Inactive)
REMARK    1  A    between atoms: C_2  and  N_3 
REMARK    2  A    between atoms: N_3  and  C_5 
REMARK    3  A    between atoms: N_3  and  C_34 
REMARK    4  A    between atoms: C_5  and  C_6 
REMARK    5  A    between atoms: C_6  and  O_7 
REMARK    6  A    between atoms: O_7  and  C_8 
REMARK    7  A    between atoms: N_15  and  N_16 
REMARK    8  A    between atoms: C_20  and  O_21 
REMARK    9  A    between atoms: O_21  and  C_22 
REMARK   10  A    between atoms: C_22  and  C_23 
REMARK   11  A    between atoms: C_23  and  N_24 
REMARK   12  A    between atoms: N_24  and  C_26 
REMARK   13  A    between atoms: N_24  and  C_28 
ROOT
HETATM    1  C   UNL     1      -7.215   2.128 -33.863  1.00  0.00     0.087 A 
HETATM    2  C   UNL     1      -7.687   2.116 -32.530  1.00  0.00     0.045 A 
HETATM    3 BR   UNL     1      -8.982   0.839 -31.973  1.00  0.00    -0.048 Br
HETATM    4  C   UNL     1      -7.207   3.022 -31.573  1.00  0.00     0.035 A 
HETATM    5  C   UNL     1      -6.263   3.956 -31.969  1.00  0.00    -0.011 A 
HETATM    6  C   UNL     1      -5.824   3.991 -33.307  1.00  0.00     0.009 A 
HETATM    7  C   UNL     1      -4.841   5.104 -33.417  1.00  0.00     0.093 A 
HETATM    8  N   UNL     1      -4.155   5.582 -34.408  1.00  0.00    -0.203 NA
HETATM    9  C   UNL     1      -4.724   5.689 -32.060  1.00  0.00     0.009 A 
HETATM   10  C   UNL     1      -5.584   4.986 -31.209  1.00  0.00    -0.011 A 
HETATM   11  C   UNL     1      -3.922   6.742 -31.647  1.00  0.00     0.053 A 
HETATM   12  C   UNL     1      -3.990   7.117 -30.304  1.00  0.00     0.087 A 
HETATM   13  C   UNL     1      -4.840   6.400 -29.425  1.00  0.00     0.045 A 
HETATM   14 BR   UNL     1      -4.934   6.865 -27.582  1.00  0.00    -0.048 Br
HETATM   15  C   UNL     1      -5.645   5.337 -29.872  1.00  0.00     0.035 A 
HETATM   16  C   UNL     1      -6.285   3.095 -34.259  1.00  0.00     0.053 A 
ENDROOT
BRANCH   1  17
HETATM   17  O   UNL     1      -7.738   1.191 -34.723  1.00  0.00    -0.348 OA
BRANCH  17  18
HETATM   18  C   UNL     1      -6.816   0.215 -35.224  1.00  0.00     0.203 C 
BRANCH  18  19
HETATM   19  C   UNL     1      -7.261  -1.160 -34.708  1.00  0.00     0.261 C 
BRANCH  19  20
HETATM   20  N   UNL     1      -6.095  -1.957 -34.128  1.00  0.00    -0.070 N 
HETATM   21  H   UNL     1      -6.507  -2.466 -33.329  1.00  0.00     0.279 HD
BRANCH  20  22
HETATM   22  C   UNL     1      -4.996  -1.074 -33.562  1.00  0.00     0.230 C 
HETATM   23  C   UNL     1      -5.263  -0.742 -32.105  1.00  0.00     0.034 C 
ENDBRANCH  20  22
BRANCH  20  24
HETATM   24  C   UNL     1      -5.545  -3.049 -35.028  1.00  0.00     0.230 C 
HETATM   25  C   UNL     1      -6.443  -4.271 -35.073  1.00  0.00     0.034 C 
ENDBRANCH  20  24
ENDBRANCH  19  20
ENDBRANCH  18  19
ENDBRANCH  17  18
ENDBRANCH   1  17
BRANCH   8  26
HETATM   26  N   UNL     1      -4.340   5.016 -35.616  1.00  0.00    -0.226 NA
HETATM   27  H   UNL     1      -3.516   4.443 -35.832  1.00  0.00     0.145 HD
HETATM   28  H   UNL     1      -4.277   5.749 -36.331  1.00  0.00     0.145 HD
ENDBRANCH   8  26
BRANCH  12  29
HETATM   29  O   UNL     1      -3.245   8.139 -29.764  1.00  0.00    -0.348 OA
BRANCH  29  30
HETATM   30  C   UNL     1      -1.840   8.116 -30.037  1.00  0.00     0.203 C 
BRANCH  30  31
HETATM   31  C   UNL     1      -1.113   7.786 -28.729  1.00  0.00     0.261 C 
BRANCH  31  32
HETATM   32  N   UNL     1      -0.686   6.318 -28.657  1.00  0.00    -0.070 N 
HETATM   33  H   UNL     1      -1.539   5.830 -28.339  1.00  0.00     0.279 HD
BRANCH  32  34
HETATM   34  C   UNL     1      -0.343   5.685 -29.992  1.00  0.00     0.230 C 
HETATM   35  C   UNL     1       0.855   4.757 -29.914  1.00  0.00     0.034 C 
ENDBRANCH  32  34
BRANCH  32  36
HETATM   36  C   UNL     1       0.344   6.119 -27.559  1.00  0.00     0.230 C 
HETATM   37  C   UNL     1       1.103   7.396 -27.253  1.00  0.00     0.034 C 
ENDBRANCH  32  36
ENDBRANCH  31  32
ENDBRANCH  30  31
ENDBRANCH  29  30
ENDBRANCH  12  29
TORSDOF 13
ENDMDL
MODEL 3
REMARK VINA RESULT:      -6.7      3.003      4.192
REMARK  13 active torsions:
REMARK  status: ('A' for Active; 'I' for Inactive)
REMARK    1  A    between atoms: C_2  and  N_3 
REMARK    2  A    between atoms: N_3  and  C_5 
REMARK    3  A    between atoms: N_3  and  C_34 
REMARK    4  A    between atoms: C_5  and  C_6 
REMARK    5  A    between atoms: C_6  and  O_7 
REMARK    6  A    between atoms: O_7  and  C_8 
REMARK    7  A    between atoms: N_15  and  N_16 
REMARK    8  A    between atoms: C_20  and  O_21 
REMARK    9  A    between atoms: O_21  and  C_22 
REMARK   10  A    between atoms: C_22  and  C_23 
REMARK   11  A    between atoms: C_23  and  N_24 
REMARK   12  A    between atoms: N_24  and  C_26 
REMARK   13  A    between atoms: N_24  and  C_28 
ROOT
HETATM    1  C   UNL     1      -3.030   6.199 -31.593  1.00  0.00     0.087 A 
HETATM    2  C   UNL     1      -2.992   5.811 -32.953  1.00  0.00     0.045 A 
HETATM    3 BR   UNL     1      -1.838   6.698 -34.179  1.00  0.00    -0.048 Br
HETATM    4  C   UNL     1      -3.778   4.756 -33.439  1.00  0.00     0.035 A 
HETATM    5  C   UNL     1      -4.621   4.105 -32.553  1.00  0.00    -0.011 A 
HETATM    6  C   UNL     1      -4.687   4.519 -31.208  1.00  0.00     0.009 A 
HETATM    7  C   UNL     1      -5.685   3.647 -30.530  1.00  0.00     0.093 A 
HETATM    8  N   UNL     1      -6.141   3.605 -29.317  1.00  0.00    -0.203 NA
HETATM    9  C   UNL     1      -6.170   2.695 -31.556  1.00  0.00     0.009 A 
HETATM   10  C   UNL     1      -5.520   2.987 -32.760  1.00  0.00    -0.011 A 
HETATM   11  C   UNL     1      -7.098   1.676 -31.410  1.00  0.00     0.053 A 
HETATM   12  C   UNL     1      -7.397   0.907 -32.536  1.00  0.00     0.087 A 
HETATM   13  C   UNL     1      -6.730   1.177 -33.758  1.00  0.00     0.045 A 
HETATM   14 BR   UNL     1      -7.090   0.130 -35.305  1.00  0.00    -0.048 Br
HETATM   15  C   UNL     1      -5.794   2.219 -33.879  1.00  0.00     0.035 A 
HETATM   16  C   UNL     1      -3.907   5.554 -30.715  1.00  0.00     0.053 A 
ENDROOT
BRANCH   1  17
HETATM   17  O   UNL     1      -2.212   7.236 -31.212  1.00  0.00    -0.348 OA
BRANCH  17  18
HETATM   18  C   UNL     1      -1.978   7.367 -29.805  1.00  0.00     0.203 C 
BRANCH  18  19
HETATM   19  C   UNL     1      -0.464   7.490 -29.590  1.00  0.00     0.261 C 
BRANCH  19  20
HETATM   20  N   UNL     1       0.056   6.452 -28.597  1.00  0.00    -0.070 N 
HETATM   21  H   UNL     1      -0.796   6.090 -28.138  1.00  0.00     0.279 HD
BRANCH  20  22
HETATM   22  C   UNL     1       0.916   7.059 -27.502  1.00  0.00     0.230 C 
HETATM   23  C   UNL     1       1.481   8.400 -27.933  1.00  0.00     0.034 C 
ENDBRANCH  20  22
BRANCH  20  24
HETATM   24  C   UNL     1       0.700   5.226 -29.218  1.00  0.00     0.230 C 
HETATM   25  C   UNL     1       0.696   5.272 -30.735  1.00  0.00     0.034 C 
ENDBRANCH  20  24
ENDBRANCH  19  20
ENDBRANCH  18  19
ENDBRANCH  17  18
ENDBRANCH   1  17
BRANCH   8  26
HETATM   26  N   UNL     1      -5.674   4.524 -28.449  1.00  0.00    -0.226 NA
HETATM   27  H   UNL     1      -5.330   5.329 -28.988  1.00  0.00     0.145 HD
HETATM   28  H   UNL     1      -4.807   4.167 -28.032  1.00  0.00     0.145 HD
ENDBRANCH   8  26
BRANCH  12  29
HETATM   29  O   UNL     1      -8.294  -0.135 -32.527  1.00  0.00    -0.348 OA
BRANCH  29  30
HETATM   30  C   UNL     1      -9.638   0.186 -32.153  1.00  0.00     0.203 C 
BRANCH  30  31
HETATM   31  C   UNL     1     -10.333   0.796 -33.376  1.00  0.00     0.261 C 
BRANCH  31  32
HETATM   32  N   UNL     1     -11.282   1.935 -32.994  1.00  0.00    -0.070 N 
HETATM   33  H   UNL     1     -11.564   1.705 -32.027  1.00  0.00     0.279 HD
BRANCH  32  34
HETATM   34  C   UNL     1     -10.636   3.303 -32.902  1.00  0.00     0.230 C 
HETATM   35  C   UNL     1      -9.579   3.529 -33.967  1.00  0.00     0.034 C 
ENDBRANCH  32  34
BRANCH  32  36
HETATM   36  C   UNL     1     -12.550   1.869 -33.826  1.00  0.00     0.230 C 
HETATM   37  C   UNL     1     -13.241   0.523 -33.704  1.00  0.00     0.034 C 
ENDBRANCH  32  36
ENDBRANCH  31  32
ENDBRANCH  30  31
ENDBRANCH  29  30
ENDBRANCH  12  29
TORSDOF 13
ENDMDL
MODEL 4
REMARK VINA RESULT:      -6.6      1.131      8.289
REMARK  13 active torsions:
REMARK  status: ('A' for Active; 'I' for Inactive)
REMARK    1  A    between atoms: C_2  and  N_3 
REMARK    2  A    between atoms: N_3  and  C_5 
REMARK    3  A    between atoms: N_3  and  C_34 
REMARK    4  A    between atoms: C_5  and  C_6 
REMARK    5  A    between atoms: C_6  and  O_7 
REMARK    6  A    between atoms: O_7  and  C_8 
REMARK    7  A    between atoms: N_15  and  N_16 
REMARK    8  A    between atoms: C_20  and  O_21 
REMARK    9  A    between atoms: O_21  and  C_22 
REMARK   10  A    between atoms: C_22  and  C_23 
REMARK   11  A    between atoms: C_23  and  N_24 
REMARK   12  A    between atoms: N_24  and  C_26 
REMARK   13  A    between atoms: N_24  and  C_28 
ROOT
HETATM    1  C   UNL     1      -7.546   1.569 -33.852  1.00  0.00     0.087 A 
HETATM    2  C   UNL     1      -8.043   1.509 -32.530  1.00  0.00     0.045 A 
HETATM    3 BR   UNL     1      -9.346   0.209 -32.045  1.00  0.00    -0.048 Br
HETATM    4  C   UNL     1      -7.586   2.381 -31.532  1.00  0.00     0.035 A 
HETATM    5  C   UNL     1      -6.637   3.331 -31.875  1.00  0.00    -0.011 A 
HETATM    6  C   UNL     1      -6.171   3.415 -33.202  1.00  0.00     0.009 A 
HETATM    7  C   UNL     1      -5.190   4.533 -33.252  1.00  0.00     0.093 A 
HETATM    8  N   UNL     1      -4.486   5.048 -34.211  1.00  0.00    -0.203 NA
HETATM    9  C   UNL     1      -5.102   5.069 -31.874  1.00  0.00     0.009 A 
HETATM   10  C   UNL     1      -5.976   4.335 -31.066  1.00  0.00    -0.011 A 
HETATM   11  C   UNL     1      -4.312   6.109 -31.407  1.00  0.00     0.053 A 
HETATM   12  C   UNL     1      -4.407   6.435 -30.053  1.00  0.00     0.087 A 
HETATM   13  C   UNL     1      -5.273   5.685 -29.217  1.00  0.00     0.045 A 
HETATM   14 BR   UNL     1      -5.405   6.084 -27.361  1.00  0.00    -0.048 Br
HETATM   15  C   UNL     1      -6.065   4.637 -29.718  1.00  0.00     0.035 A 
HETATM   16  C   UNL     1      -6.610   2.552 -34.194  1.00  0.00     0.053 A 
ENDROOT
BRANCH   1  17
HETATM   17  O   UNL     1      -8.048   0.662 -34.755  1.00  0.00    -0.348 OA
BRANCH  17  18
HETATM   18  C   UNL     1      -7.090  -0.208 -35.371  1.00  0.00     0.203 C 
BRANCH  18  19
HETATM   19  C   UNL     1      -6.843  -1.384 -34.417  1.00  0.00     0.261 C 
BRANCH  19  20
HETATM   20  N   UNL     1      -5.411  -1.906 -34.514  1.00  0.00    -0.070 N 
HETATM   21  H   UNL     1      -5.052  -1.500 -35.394  1.00  0.00     0.279 HD
BRANCH  20  22
HETATM   22  C   UNL     1      -5.338  -3.415 -34.668  1.00  0.00     0.230 C 
HETATM   23  C   UNL     1      -6.689  -3.987 -35.058  1.00  0.00     0.034 C 
ENDBRANCH  20  22
BRANCH  20  24
HETATM   24  C   UNL     1      -4.460  -1.392 -33.448  1.00  0.00     0.230 C 
HETATM   25  C   UNL     1      -5.189  -0.820 -32.246  1.00  0.00     0.034 C 
ENDBRANCH  20  24
ENDBRANCH  19  20
ENDBRANCH  18  19
ENDBRANCH  17  18
ENDBRANCH   1  17
BRANCH   8  26
HETATM   26  N   UNL     1      -4.645   4.525 -35.443  1.00  0.00    -0.226 NA
HETATM   27  H   UNL     1      -5.649   4.515 -35.660  1.00  0.00     0.145 HD
HETATM   28  H   UNL     1      -4.431   3.522 -35.401  1.00  0.00     0.145 HD
ENDBRANCH   8  26
BRANCH  12  29
HETATM   29  O   UNL     1      -3.677   7.439 -29.463  1.00  0.00    -0.348 OA
BRANCH  29  30
HETATM   30  C   UNL     1      -2.332   7.116 -29.095  1.00  0.00     0.203 C 
BRANCH  30  31
HETATM   31  C   UNL     1      -1.391   7.945 -29.976  1.00  0.00     0.261 C 
BRANCH  31  32
HETATM   32  N   UNL     1      -0.949   7.182 -31.228  1.00  0.00    -0.070 N 
HETATM   33  H   UNL     1      -1.483   6.298 -31.178  1.00  0.00     0.279 HD
BRANCH  32  34
HETATM   34  C   UNL     1      -1.358   7.816 -32.543  1.00  0.00     0.230 C 
HETATM   35  C   UNL     1      -1.356   6.833 -33.698  1.00  0.00     0.034 C 
ENDBRANCH  32  34
BRANCH  32  36
HETATM   36  C   UNL     1       0.515   6.792 -31.122  1.00  0.00     0.230 C 
HETATM   37  C   UNL     1       0.691   5.307 -30.867  1.00  0.00     0.034 C 
ENDBRANCH  32  36
ENDBRANCH  31  32
ENDBRANCH  30  31
ENDBRANCH  29  30
ENDBRANCH  12  29
TORSDOF 13
ENDMDL
MODEL 5
REMARK VINA RESULT:      -6.5      3.815      8.947
REMARK  13 active torsions:
REMARK  status: ('A' for Active; 'I' for Inactive)
REMARK    1  A    between atoms: C_2  and  N_3 
REMARK    2  A    between atoms: N_3  and  C_5 
REMARK    3  A    between atoms: N_3  and  C_34 
REMARK    4  A    between atoms: C_5  and  C_6 
REMARK    5  A    between atoms: C_6  and  O_7 
REMARK    6  A    between atoms: O_7  and  C_8 
REMARK    7  A    between atoms: N_15  and  N_16 
REMARK    8  A    between atoms: C_20  and  O_21 
REMARK    9  A    between atoms: O_21  and  C_22 
REMARK   10  A    between atoms: C_22  and  C_23 
REMARK   11  A    between atoms: C_23  and  N_24 
REMARK   12  A    between atoms: N_24  and  C_26 
REMARK   13  A    between atoms: N_24  and  C_28 
ROOT
HETATM    1  C   UNL     1      -9.335   4.986 -32.235  1.00  0.00     0.087 A 
HETATM    2  C   UNL     1      -8.859   5.134 -33.558  1.00  0.00     0.045 A 
HETATM    3 BR   UNL     1     -10.074   5.398 -34.999  1.00  0.00    -0.048 Br
HETATM    4  C   UNL     1      -7.488   5.112 -33.853  1.00  0.00     0.035 A 
HETATM    5  C   UNL     1      -6.596   4.920 -32.811  1.00  0.00    -0.011 A 
HETATM    6  C   UNL     1      -7.074   4.734 -31.498  1.00  0.00     0.009 A 
HETATM    7  C   UNL     1      -5.886   4.535 -30.623  1.00  0.00     0.093 A 
HETATM    8  N   UNL     1      -5.753   4.307 -29.354  1.00  0.00    -0.203 NA
HETATM    9  C   UNL     1      -4.700   4.642 -31.505  1.00  0.00     0.009 A 
HETATM   10  C   UNL     1      -5.148   4.873 -32.809  1.00  0.00    -0.011 A 
HETATM   11  C   UNL     1      -3.361   4.542 -31.156  1.00  0.00     0.053 A 
HETATM   12  C   UNL     1      -2.417   4.675 -32.175  1.00  0.00     0.087 A 
HETATM   13  C   UNL     1      -2.855   4.931 -33.499  1.00  0.00     0.045 A 
HETATM   14 BR   UNL     1      -1.594   5.148 -34.907  1.00  0.00    -0.048 Br
HETATM   15  C   UNL     1      -4.219   5.025 -33.825  1.00  0.00     0.035 A 
HETATM   16  C   UNL     1      -8.427   4.763 -31.195  1.00  0.00     0.053 A 
ENDROOT
BRANCH   1  17
HETATM   17  O   UNL     1     -10.696   5.035 -32.047  1.00  0.00    -0.348 OA
BRANCH  17  18
HETATM   18  C   UNL     1     -11.310   3.827 -31.581  1.00  0.00     0.203 C 
BRANCH  18  19
HETATM   19  C   UNL     1     -12.135   3.245 -32.735  1.00  0.00     0.261 C 
BRANCH  19  20
HETATM   20  N   UNL     1     -11.742   1.802 -33.046  1.00  0.00    -0.070 N 
HETATM   21  H   UNL     1     -12.052   1.269 -32.216  1.00  0.00     0.279 HD
BRANCH  20  22
HETATM   22  C   UNL     1     -10.240   1.606 -33.153  1.00  0.00     0.230 C 
HETATM   23  C   UNL     1      -9.845   0.198 -32.744  1.00  0.00     0.034 C 
ENDBRANCH  20  22
BRANCH  20  24
HETATM   24  C   UNL     1     -12.487   1.161 -34.203  1.00  0.00     0.230 C 
HETATM   25  C   UNL     1     -13.436   0.067 -33.749  1.00  0.00     0.034 C 
ENDBRANCH  20  24
ENDBRANCH  19  20
ENDBRANCH  18  19
ENDBRANCH  17  18
ENDBRANCH   1  17
BRANCH   8  26
HETATM   26  N   UNL     1      -6.880   4.192 -28.626  1.00  0.00    -0.226 NA
HETATM   27  H   UNL     1      -6.971   3.214 -28.325  1.00  0.00     0.145 HD
HETATM   28  H   UNL     1      -7.685   4.292 -29.254  1.00  0.00     0.145 HD
ENDBRANCH   8  26
BRANCH  12  29
HETATM   29  O   UNL     1      -1.060   4.601 -31.965  1.00  0.00    -0.348 OA
BRANCH  29  30
HETATM   30  C   UNL     1      -0.457   5.721 -31.308  1.00  0.00     0.203 C 
BRANCH  30  31
HETATM   31  C   UNL     1       0.050   5.247 -29.941  1.00  0.00     0.261 C 
BRANCH  31  32
HETATM   32  N   UNL     1      -0.496   6.101 -28.794  1.00  0.00    -0.070 N 
HETATM   33  H   UNL     1      -1.079   5.441 -28.253  1.00  0.00     0.279 HD
BRANCH  32  34
HETATM   34  C   UNL     1       0.547   6.600 -27.814  1.00  0.00     0.230 C 
HETATM   35  C   UNL     1       1.047   7.994 -28.145  1.00  0.00     0.034 C 
ENDBRANCH  32  34
BRANCH  32  36
HETATM   36  C   UNL     1      -1.447   7.158 -29.327  1.00  0.00     0.230 C 
HETATM   37  C   UNL     1      -2.709   7.261 -28.491  1.00  0.00     0.034 C 
ENDBRANCH  32  36
ENDBRANCH  31  32
ENDBRANCH  30  31
ENDBRANCH  29  30
ENDBRANCH  12  29
TORSDOF 13
ENDMDL
MODEL 6
REMARK VINA RESULT:      -6.5      3.884      9.644
REMARK  13 active torsions:
REMARK  status: ('A' for Active; 'I' for Inactive)
REMARK    1  A    between atoms: C_2  and  N_3 
REMARK    2  A    between atoms: N_3  and  C_5 
REMARK    3  A    between atoms: N_3  and  C_34 
REMARK    4  A    between atoms: C_5  and  C_6 
REMARK    5  A    between atoms: C_6  and  O_7 
REMARK    6  A    between atoms: O_7  and  C_8 
REMARK    7  A    between atoms: N_15  and  N_16 
REMARK    8  A    between atoms: C_20  and  O_21 
REMARK    9  A    between atoms: O_21  and  C_22 
REMARK   10  A    between atoms: C_22  and  C_23 
REMARK   11  A    between atoms: C_23  and  N_24 
REMARK   12  A    between atoms: N_24  and  C_26 
REMARK   13  A    between atoms: N_24  and  C_28 
ROOT
HETATM    1  C   UNL     1      -9.017   3.374 -32.644  1.00  0.00     0.087 A 
HETATM    2  C   UNL     1      -8.623   4.253 -33.679  1.00  0.00     0.045 A 
HETATM    3 BR   UNL     1      -9.904   4.930 -34.913  1.00  0.00    -0.048 Br
HETATM    4  C   UNL     1      -7.292   4.671 -33.822  1.00  0.00     0.035 A 
HETATM    5  C   UNL     1      -6.352   4.184 -32.928  1.00  0.00    -0.011 A 
HETATM    6  C   UNL     1      -6.740   3.277 -31.921  1.00  0.00     0.009 A 
HETATM    7  C   UNL     1      -5.515   2.929 -31.150  1.00  0.00     0.093 A 
HETATM    8  N   UNL     1      -5.299   2.138 -30.146  1.00  0.00    -0.203 NA
HETATM    9  C   UNL     1      -4.409   3.706 -31.756  1.00  0.00     0.009 A 
HETATM   10  C   UNL     1      -4.932   4.450 -32.819  1.00  0.00    -0.011 A 
HETATM   11  C   UNL     1      -3.074   3.733 -31.381  1.00  0.00     0.053 A 
HETATM   12  C   UNL     1      -2.212   4.549 -32.116  1.00  0.00     0.087 A 
HETATM   13  C   UNL     1      -2.733   5.326 -33.182  1.00  0.00     0.045 A 
HETATM   14 BR   UNL     1      -1.593   6.472 -34.185  1.00  0.00    -0.048 Br
HETATM   15  C   UNL     1      -4.091   5.278 -33.542  1.00  0.00     0.035 A 
HETATM   16  C   UNL     1      -8.054   2.865 -31.766  1.00  0.00     0.053 A 
ENDROOT
BRANCH   1  17
HETATM   17  O   UNL     1     -10.348   3.034 -32.580  1.00  0.00    -0.348 OA
BRANCH  17  18
HETATM   18  C   UNL     1     -10.691   1.741 -33.095  1.00  0.00     0.203 C 
BRANCH  18  19
HETATM   19  C   UNL     1     -12.002   1.881 -33.878  1.00  0.00     0.261 C 
BRANCH  19  20
HETATM   20  N   UNL     1     -13.222   1.592 -33.005  1.00  0.00    -0.070 N 
HETATM   21  H   UNL     1     -12.823   1.365 -32.078  1.00  0.00     0.279 HD
BRANCH  20  22
HETATM   22  C   UNL     1     -13.998   0.367 -33.456  1.00  0.00     0.230 C 
HETATM   23  C   UNL     1     -15.110   0.751 -34.415  1.00  0.00     0.034 C 
ENDBRANCH  20  22
BRANCH  20  24
HETATM   24  C   UNL     1     -14.129   2.780 -32.742  1.00  0.00     0.230 C 
HETATM   25  C   UNL     1     -13.761   3.522 -31.471  1.00  0.00     0.034 C 
ENDBRANCH  20  24
ENDBRANCH  19  20
ENDBRANCH  18  19
ENDBRANCH  17  18
ENDBRANCH   1  17
BRANCH   8  26
HETATM   26  N   UNL     1      -6.351   1.443 -29.671  1.00  0.00    -0.226 NA
HETATM   27  H   UNL     1      -7.035   1.336 -30.429  1.00  0.00     0.145 HD
HETATM   28  H   UNL     1      -6.863   2.038 -29.010  1.00  0.00     0.145 HD
ENDBRANCH   8  26
BRANCH  12  29
HETATM   29  O   UNL     1      -0.870   4.671 -31.846  1.00  0.00    -0.348 OA
BRANCH  29  30
HETATM   30  C   UNL     1      -0.524   5.117 -30.531  1.00  0.00     0.203 C 
BRANCH  30  31
HETATM   31  C   UNL     1      -0.252   6.624 -30.601  1.00  0.00     0.261 C 
BRANCH  31  32
HETATM   32  N   UNL     1      -0.684   7.351 -29.324  1.00  0.00    -0.070 N 
HETATM   33  H   UNL     1      -1.023   6.590 -28.712  1.00  0.00     0.279 HD
BRANCH  32  34
HETATM   34  C   UNL     1       0.440   8.009 -28.550  1.00  0.00     0.230 C 
HETATM   35  C   UNL     1       1.012   7.115 -27.466  1.00  0.00     0.034 C 
ENDBRANCH  32  34
BRANCH  32  36
HETATM   36  C   UNL     1      -1.889   8.233 -29.599  1.00  0.00     0.230 C 
HETATM   37  C   UNL     1      -2.081   8.487 -31.083  1.00  0.00     0.034 C 
ENDBRANCH  32  36
ENDBRANCH  31  32
ENDBRANCH  30  31
ENDBRANCH  29  30
ENDBRANCH  12  29
TORSDOF 13
ENDMDL
MODEL 7
REMARK VINA RESULT:      -6.4      2.438      9.113
REMARK  13 active torsions:
REMARK  status: ('A' for Active; 'I' for Inactive)
REMARK    1  A    between atoms: C_2  and  N_3 
REMARK    2  A    between atoms: N_3  and  C_5 
REMARK    3  A    between atoms: N_3  and  C_34 
REMARK    4  A    between atoms: C_5  and  C_6 
REMARK    5  A    between atoms: C_6  and  O_7 
REMARK    6  A    between atoms: O_7  and  C_8 
REMARK    7  A    between atoms: N_15  and  N_16 
REMARK    8  A    between atoms: C_20  and  O_21 
REMARK    9  A    between atoms: O_21  and  C_22 
REMARK   10  A    between atoms: C_22  and  C_23 
REMARK   11  A    between atoms: C_23  and  N_24 
REMARK   12  A    between atoms: N_24  and  C_26 
REMARK   13  A    between atoms: N_24  and  C_28 
ROOT
HETATM    1  C   UNL     1      -5.466   1.098 -32.667  1.00  0.00     0.087 A 
HETATM    2  C   UNL     1      -4.215   0.914 -32.033  1.00  0.00     0.045 A 
HETATM    3 BR   UNL     1      -3.649  -0.821 -31.495  1.00  0.00    -0.048 Br
HETATM    4  C   UNL     1      -3.345   1.989 -31.797  1.00  0.00     0.035 A 
HETATM    5  C   UNL     1      -3.748   3.256 -32.186  1.00  0.00    -0.011 A 
HETATM    6  C   UNL     1      -5.012   3.442 -32.782  1.00  0.00     0.009 A 
HETATM    7  C   UNL     1      -5.155   4.898 -33.059  1.00  0.00     0.093 A 
HETATM    8  N   UNL     1      -6.109   5.609 -33.573  1.00  0.00    -0.203 NA
HETATM    9  C   UNL     1      -3.893   5.531 -32.610  1.00  0.00     0.009 A 
HETATM   10  C   UNL     1      -3.065   4.530 -32.091  1.00  0.00    -0.011 A 
HETATM   11  C   UNL     1      -3.537   6.870 -32.670  1.00  0.00     0.053 A 
HETATM   12  C   UNL     1      -2.282   7.228 -32.176  1.00  0.00     0.087 A 
HETATM   13  C   UNL     1      -1.423   6.221 -31.666  1.00  0.00     0.045 A 
HETATM   14 BR   UNL     1       0.307   6.669 -31.012  1.00  0.00    -0.048 Br
HETATM   15  C   UNL     1      -1.810   4.870 -31.616  1.00  0.00     0.035 A 
HETATM   16  C   UNL     1      -5.875   2.386 -33.027  1.00  0.00     0.053 A 
ENDROOT
BRANCH   1  17
HETATM   17  O   UNL     1      -6.240  -0.021 -32.865  1.00  0.00    -0.348 OA
BRANCH  17  18
HETATM   18  C   UNL     1      -6.586  -0.313 -34.224  1.00  0.00     0.203 C 
BRANCH  18  19
HETATM   19  C   UNL     1      -5.476  -1.195 -34.811  1.00  0.00     0.261 C 
BRANCH  19  20
HETATM   20  N   UNL     1      -5.539  -2.623 -34.272  1.00  0.00    -0.070 N 
HETATM   21  H   UNL     1      -5.543  -2.508 -33.245  1.00  0.00     0.279 HD
BRANCH  20  22
HETATM   22  C   UNL     1      -4.305  -3.440 -34.613  1.00  0.00     0.230 C 
HETATM   23  C   UNL     1      -3.713  -4.077 -33.369  1.00  0.00     0.034 C 
ENDBRANCH  20  22
BRANCH  20  24
HETATM   24  C   UNL     1      -6.824  -3.374 -34.572  1.00  0.00     0.230 C 
HETATM   25  C   UNL     1      -6.595  -4.587 -35.454  1.00  0.00     0.034 C 
ENDBRANCH  20  24
ENDBRANCH  19  20
ENDBRANCH  18  19
ENDBRANCH  17  18
ENDBRANCH   1  17
BRANCH   8  26
HETATM   26  N   UNL     1      -7.237   4.964 -33.928  1.00  0.00    -0.226 NA
HETATM   27  H   UNL     1      -7.032   4.388 -34.753  1.00  0.00     0.145 HD
HETATM   28  H   UNL     1      -7.897   5.650 -34.311  1.00  0.00     0.145 HD
ENDBRANCH   8  26
BRANCH  12  29
HETATM   29  O   UNL     1      -1.805   8.517 -32.180  1.00  0.00    -0.348 OA
BRANCH  29  30
HETATM   30  C   UNL     1      -2.500   9.455 -31.352  1.00  0.00     0.203 C 
BRANCH  30  31
HETATM   31  C   UNL     1      -1.971   9.303 -29.921  1.00  0.00     0.261 C 
BRANCH  31  32
HETATM   32  N   UNL     1      -3.077   8.924 -28.932  1.00  0.00    -0.070 N 
HETATM   33  H   UNL     1      -3.947   9.075 -29.468  1.00  0.00     0.279 HD
BRANCH  32  34
HETATM   34  C   UNL     1      -3.107   7.462 -28.533  1.00  0.00     0.230 C 
HETATM   35  C   UNL     1      -4.313   6.725 -29.085  1.00  0.00     0.034 C 
ENDBRANCH  32  34
BRANCH  32  36
HETATM   36  C   UNL     1      -3.119   9.914 -27.781  1.00  0.00     0.230 C 
HETATM   37  C   UNL     1      -2.002   9.671 -26.782  1.00  0.00     0.034 C 
ENDBRANCH  32  36
ENDBRANCH  31  32
ENDBRANCH  30  31
ENDBRANCH  29  30
ENDBRANCH  12  29
TORSDOF 13
ENDMDL
MODEL 8
REMARK VINA RESULT:      -6.4      3.279      5.653
REMARK  13 active torsions:
REMARK  status: ('A' for Active; 'I' for Inactive)
REMARK    1  A    between atoms: C_2  and  N_3 
REMARK    2  A    between atoms: N_3  and  C_5 
REMARK    3  A    between atoms: N_3  and  C_34 
REMARK    4  A    between atoms: C_5  and  C_6 
REMARK    5  A    between atoms: C_6  and  O_7 
REMARK    6  A    between atoms: O_7  and  C_8 
REMARK    7  A    between atoms: N_15  and  N_16 
REMARK    8  A    between atoms: C_20  and  O_21 
REMARK    9  A    between atoms: O_21  and  C_22 
REMARK   10  A    between atoms: C_22  and  C_23 
REMARK   11  A    between atoms: C_23  and  N_24 
REMARK   12  A    between atoms: N_24  and  C_26 
REMARK   13  A    between atoms: N_24  and  C_28 
ROOT
HETATM    1  C   UNL     1       0.523   8.291 -28.132  1.00  0.00     0.087 A 
HETATM    2  C   UNL     1      -0.701   8.998 -28.166  1.00  0.00     0.045 A 
HETATM    3 BR   UNL     1      -0.903  10.629 -27.206  1.00  0.00    -0.048 Br
HETATM    4  C   UNL     1      -1.793   8.541 -28.917  1.00  0.00     0.035 A 
HETATM    5  C   UNL     1      -1.656   7.354 -29.619  1.00  0.00    -0.011 A 
HETATM    6  C   UNL     1      -0.448   6.631 -29.552  1.00  0.00     0.009 A 
HETATM    7  C   UNL     1      -0.622   5.410 -30.385  1.00  0.00     0.093 A 
HETATM    8  N   UNL     1       0.153   4.407 -30.654  1.00  0.00    -0.203 NA
HETATM    9  C   UNL     1      -1.989   5.487 -30.953  1.00  0.00     0.009 A 
HETATM   10  C   UNL     1      -2.589   6.658 -30.481  1.00  0.00    -0.011 A 
HETATM   11  C   UNL     1      -2.615   4.589 -31.805  1.00  0.00     0.053 A 
HETATM   12  C   UNL     1      -3.920   4.880 -32.204  1.00  0.00     0.087 A 
HETATM   13  C   UNL     1      -4.534   6.076 -31.752  1.00  0.00     0.045 A 
HETATM   14 BR   UNL     1      -6.302   6.519 -32.299  1.00  0.00    -0.048 Br
HETATM   15  C   UNL     1      -3.877   6.967 -30.885  1.00  0.00     0.035 A 
HETATM   16  C   UNL     1       0.641   7.079 -28.820  1.00  0.00     0.053 A 
ENDROOT
BRANCH   1  17
HETATM   17  O   UNL     1       1.539   8.829 -27.377  1.00  0.00    -0.348 OA
BRANCH  17  18
HETATM   18  C   UNL     1       1.965   8.051 -26.252  1.00  0.00     0.203 C 
BRANCH  18  19
HETATM   19  C   UNL     1       1.726   8.886 -24.987  1.00  0.00     0.261 C 
BRANCH  19  20
HETATM   20  N   UNL     1       2.757  10.003 -24.838  1.00  0.00    -0.070 N 
HETATM   21  H   UNL     1       3.081  10.180 -25.804  1.00  0.00     0.279 HD
BRANCH  20  22
HETATM   22  C   UNL     1       3.978   9.582 -24.040  1.00  0.00     0.230 C 
HETATM   23  C   UNL     1       3.590   8.654 -22.903  1.00  0.00     0.034 C 
ENDBRANCH  20  22
BRANCH  20  24
HETATM   24  C   UNL     1       2.203  11.339 -24.377  1.00  0.00     0.230 C 
HETATM   25  C   UNL     1       0.878  11.199 -23.652  1.00  0.00     0.034 C 
ENDBRANCH  20  24
ENDBRANCH  19  20
ENDBRANCH  18  19
ENDBRANCH  17  18
ENDBRANCH   1  17
BRANCH   8  26
HETATM   26  N   UNL     1       1.370   4.394 -30.075  1.00  0.00    -0.226 NA
HETATM   27  H   UNL     1       1.397   3.619 -29.401  1.00  0.00     0.145 HD
HETATM   28  H   UNL     1       1.444   5.210 -29.456  1.00  0.00     0.145 HD
ENDBRANCH   8  26
BRANCH  12  29
HETATM   29  O   UNL     1      -4.651   4.079 -33.049  1.00  0.00    -0.348 OA
BRANCH  29  30
HETATM   30  C   UNL     1      -4.665   2.680 -32.745  1.00  0.00     0.203 C 
BRANCH  30  31
HETATM   31  C   UNL     1      -5.806   2.425 -31.755  1.00  0.00     0.261 C 
BRANCH  31  32
HETATM   32  N   UNL     1      -6.597   1.158 -32.097  1.00  0.00    -0.070 N 
HETATM   33  H   UNL     1      -7.579   1.430 -31.928  1.00  0.00     0.279 HD
BRANCH  32  34
HETATM   34  C   UNL     1      -6.546   0.746 -33.554  1.00  0.00     0.230 C 
HETATM   35  C   UNL     1      -6.369  -0.750 -33.738  1.00  0.00     0.034 C 
ENDBRANCH  32  34
BRANCH  32  36
HETATM   36  C   UNL     1      -6.290   0.057 -31.097  1.00  0.00     0.230 C 
HETATM   37  C   UNL     1      -5.890   0.614 -29.743  1.00  0.00     0.034 C 
ENDBRANCH  32  36
ENDBRANCH  31  32
ENDBRANCH  30  31
ENDBRANCH  29  30
ENDBRANCH  12  29
TORSDOF 13
ENDMDL
MODEL 9
REMARK VINA RESULT:      -6.4      2.650      9.110
REMARK  13 active torsions:
REMARK  status: ('A' for Active; 'I' for Inactive)
REMARK    1  A    between atoms: C_2  and  N_3 
REMARK    2  A    between atoms: N_3  and  C_5 
REMARK    3  A    between atoms: N_3  and  C_34 
REMARK    4  A    between atoms: C_5  and  C_6 
REMARK    5  A    between atoms: C_6  and  O_7 
REMARK    6  A    between atoms: O_7  and  C_8 
REMARK    7  A    between atoms: N_15  and  N_16 
REMARK    8  A    between atoms: C_20  and  O_21 
REMARK    9  A    between atoms: O_21  and  C_22 
REMARK   10  A    between atoms: C_22  and  C_23 
REMARK   11  A    between atoms: C_23  and  N_24 
REMARK   12  A    between atoms: N_24  and  C_26 
REMARK   13  A    between atoms: N_24  and  C_28 
ROOT
HETATM    1  C   UNL     1      -6.328   1.254 -33.470  1.00  0.00     0.087 A 
HETATM    2  C   UNL     1      -5.147   0.716 -32.908  1.00  0.00     0.045 A 
HETATM    3 BR   UNL     1      -4.897  -1.167 -32.798  1.00  0.00    -0.048 Br
HETATM    4  C   UNL     1      -4.116   1.542 -32.434  1.00  0.00     0.035 A 
HETATM    5  C   UNL     1      -4.289   2.915 -32.510  1.00  0.00    -0.011 A 
HETATM    6  C   UNL     1      -5.483   3.448 -33.034  1.00  0.00     0.009 A 
HETATM    7  C   UNL     1      -5.371   4.930 -32.961  1.00  0.00     0.093 A 
HETATM    8  N   UNL     1      -6.176   5.894 -33.284  1.00  0.00    -0.203 NA
HETATM    9  C   UNL     1      -4.035   5.217 -32.387  1.00  0.00     0.009 A 
HETATM   10  C   UNL     1      -3.404   3.996 -32.125  1.00  0.00    -0.011 A 
HETATM   11  C   UNL     1      -3.458   6.452 -32.133  1.00  0.00     0.053 A 
HETATM   12  C   UNL     1      -2.177   6.465 -31.580  1.00  0.00     0.087 A 
HETATM   13  C   UNL     1      -1.516   5.236 -31.329  1.00  0.00     0.045 A 
HETATM   14 BR   UNL     1       0.243   5.217 -30.604  1.00  0.00    -0.048 Br
HETATM   15  C   UNL     1      -2.126   3.997 -31.594  1.00  0.00     0.035 A 
HETATM   16  C   UNL     1      -6.504   2.641 -33.513  1.00  0.00     0.053 A 
ENDROOT
BRANCH   1  17
HETATM   17  O   UNL     1      -7.273   0.361 -33.918  1.00  0.00    -0.348 OA
BRANCH  17  18
HETATM   18  C   UNL     1      -8.572   0.903 -34.185  1.00  0.00     0.203 C 
BRANCH  18  19
HETATM   19  C   UNL     1      -9.535   0.357 -33.123  1.00  0.00     0.261 C 
BRANCH  19  20
HETATM   20  N   UNL     1     -10.580   1.393 -32.714  1.00  0.00    -0.070 N 
HETATM   21  H   UNL     1     -11.008   0.999 -31.859  1.00  0.00     0.279 HD
BRANCH  20  22
HETATM   22  C   UNL     1     -11.698   1.543 -33.731  1.00  0.00     0.230 C 
HETATM   23  C   UNL     1     -12.646   0.359 -33.675  1.00  0.00     0.034 C 
ENDBRANCH  20  22
BRANCH  20  24
HETATM   24  C   UNL     1     -10.024   2.735 -32.272  1.00  0.00     0.230 C 
HETATM   25  C   UNL     1      -9.267   2.646 -30.960  1.00  0.00     0.034 C 
ENDBRANCH  20  24
ENDBRANCH  19  20
ENDBRANCH  18  19
ENDBRANCH  17  18
ENDBRANCH   1  17
BRANCH   8  26
HETATM   26  N   UNL     1      -7.384   5.552 -33.770  1.00  0.00    -0.226 NA
HETATM   27  H   UNL     1      -7.922   6.412 -33.929  1.00  0.00     0.145 HD
HETATM   28  H   UNL     1      -7.923   5.105 -33.019  1.00  0.00     0.145 HD
ENDBRANCH   8  26
BRANCH  12  29
HETATM   29  O   UNL     1      -1.490   7.619 -31.285  1.00  0.00    -0.348 OA
BRANCH  29  30
HETATM   30  C   UNL     1      -1.997   8.401 -30.198  1.00  0.00     0.203 C 
BRANCH  30  31
HETATM   31  C   UNL     1      -1.020   8.266 -29.026  1.00  0.00     0.261 C 
BRANCH  31  32
HETATM   32  N   UNL     1      -1.506   7.258 -27.980  1.00  0.00    -0.070 N 
HETATM   33  H   UNL     1      -1.973   6.528 -28.542  1.00  0.00     0.279 HD
BRANCH  32  34
HETATM   34  C   UNL     1      -0.407   6.535 -27.227  1.00  0.00     0.230 C 
HETATM   35  C   UNL     1       0.902   7.302 -27.215  1.00  0.00     0.034 C 
ENDBRANCH  32  34
BRANCH  32  36
HETATM   36  C   UNL     1      -2.589   7.876 -27.114  1.00  0.00     0.230 C 
HETATM   37  C   UNL     1      -3.870   7.064 -27.140  1.00  0.00     0.034 C 
ENDBRANCH  32  36
ENDBRANCH  31  32
ENDBRANCH  30  31
ENDBRANCH  29  30
ENDBRANCH  12  29
TORSDOF 13
ENDMDL
MODEL 10
REMARK VINA RESULT:      -6.4      2.320      3.082
REMARK  13 active torsions:
REMARK  status: ('A' for Active; 'I' for Inactive)
REMARK    1  A    between atoms: C_2  and  N_3 
REMARK    2  A    between atoms: N_3  and  C_5 
REMARK    3  A    between atoms: N_3  and  C_34 
REMARK    4  A    between atoms: C_5  and  C_6 
REMARK    5  A    between atoms: C_6  and  O_7 
REMARK    6  A    between atoms: O_7  and  C_8 
REMARK    7  A    between atoms: N_15  and  N_16 
REMARK    8  A    between atoms: C_20  and  O_21 
REMARK    9  A    between atoms: O_21  and  C_22 
REMARK   10  A    between atoms: C_22  and  C_23 
REMARK   11  A    between atoms: C_23  and  N_24 
REMARK   12  A    between atoms: N_24  and  C_26 
REMARK   13  A    between atoms: N_24  and  C_28 
ROOT
HETATM    1  C   UNL     1      -3.937   8.258 -31.192  1.00  0.00     0.087 A 
HETATM    2  C   UNL     1      -5.272   7.855 -30.960  1.00  0.00     0.045 A 
HETATM    3 BR   UNL     1      -6.635   9.148 -30.657  1.00  0.00    -0.048 Br
HETATM    4  C   UNL     1      -5.643   6.502 -30.964  1.00  0.00     0.035 A 
HETATM    5  C   UNL     1      -4.658   5.553 -31.184  1.00  0.00    -0.011 A 
HETATM    6  C   UNL     1      -3.321   5.955 -31.377  1.00  0.00     0.009 A 
HETATM    7  C   UNL     1      -2.514   4.719 -31.563  1.00  0.00     0.093 A 
HETATM    8  N   UNL     1      -1.248   4.511 -31.754  1.00  0.00    -0.203 NA
HETATM    9  C   UNL     1      -3.467   3.587 -31.490  1.00  0.00     0.009 A 
HETATM   10  C   UNL     1      -4.744   4.109 -31.263  1.00  0.00    -0.011 A 
HETATM   11  C   UNL     1      -3.200   2.232 -31.618  1.00  0.00     0.053 A 
HETATM   12  C   UNL     1      -4.275   1.348 -31.507  1.00  0.00     0.087 A 
HETATM   13  C   UNL     1      -5.579   1.864 -31.299  1.00  0.00     0.045 A 
HETATM   14 BR   UNL     1      -7.072   0.691 -31.173  1.00  0.00    -0.048 Br
HETATM   15  C   UNL     1      -5.821   3.243 -31.170  1.00  0.00     0.035 A 
HETATM   16  C   UNL     1      -2.946   7.290 -31.383  1.00  0.00     0.053 A 
ENDROOT
BRANCH   1  17
HETATM   17  O   UNL     1      -3.678   9.608 -31.181  1.00  0.00    -0.348 OA
BRANCH  17  18
HETATM   18  C   UNL     1      -2.401   9.998 -30.661  1.00  0.00     0.203 C 
BRANCH  18  19
HETATM   19  C   UNL     1      -2.549  10.187 -29.146  1.00  0.00     0.261 C 
BRANCH  19  20
HETATM   20  N   UNL     1      -2.103   8.949 -28.371  1.00  0.00    -0.070 N 
HETATM   21  H   UNL     1      -2.096   8.195 -29.078  1.00  0.00     0.279 HD
BRANCH  20  22
HETATM   22  C   UNL     1      -3.094   8.531 -27.299  1.00  0.00     0.230 C 
HETATM   23  C   UNL     1      -3.639   7.141 -27.574  1.00  0.00     0.034 C 
ENDBRANCH  20  22
BRANCH  20  24
HETATM   24  C   UNL     1      -0.678   8.988 -27.849  1.00  0.00     0.230 C 
HETATM   25  C   UNL     1       0.237   8.028 -28.586  1.00  0.00     0.034 C 
ENDBRANCH  20  24
ENDBRANCH  19  20
ENDBRANCH  18  19
ENDBRANCH  17  18
ENDBRANCH   1  17
BRANCH   8  26
HETATM   26  N   UNL     1      -0.442   5.590 -31.777  1.00  0.00    -0.226 NA
HETATM   27  H   UNL     1      -1.016   6.424 -31.607  1.00  0.00     0.145 HD
HETATM   28  H   UNL     1      -0.132   5.744 -32.743  1.00  0.00     0.145 HD
ENDBRANCH   8  26
BRANCH  12  29
HETATM   29  O   UNL     1      -4.149  -0.016 -31.619  1.00  0.00    -0.348 OA
BRANCH  29  30
HETATM   30  C   UNL     1      -3.882  -0.525 -32.930  1.00  0.00     0.203 C 
BRANCH  30  31
HETATM   31  C   UNL     1      -4.552  -1.899 -33.047  1.00  0.00     0.261 C 
BRANCH  31  32
HETATM   32  N   UNL     1      -5.706  -1.897 -34.053  1.00  0.00    -0.070 N 
HETATM   33  H   UNL     1      -6.517  -2.209 -33.496  1.00  0.00     0.279 HD
BRANCH  32  34
HETATM   34  C   UNL     1      -6.092  -0.530 -34.582  1.00  0.00     0.230 C 
HETATM   35  C   UNL     1      -7.548  -0.449 -35.001  1.00  0.00     0.034 C 
ENDBRANCH  32  34
BRANCH  32  36
HETATM   36  C   UNL     1      -5.488  -2.965 -35.110  1.00  0.00     0.230 C 
HETATM   37  C   UNL     1      -6.548  -4.049 -35.050  1.00  0.00     0.034 C 
ENDBRANCH  32  36
ENDBRANCH  31  32
ENDBRANCH  30  31
ENDBRANCH  29  30
ENDBRANCH  12  29
TORSDOF 13
ENDMDL
