MODEL 1
REMARK VINA RESULT:     -10.3      0.000      0.000
REMARK  7 active torsions:
REMARK  status: ('A' for Active; 'I' for Inactive)
REMARK       I    between atoms: C_2  and  N_3 
REMARK    1  A    between atoms: N_3  and  C_4 
REMARK    2  A    between atoms: C_7  and  C_8 
REMARK    3  A    between atoms: C_8  and  N_9 
REMARK    4  A    between atoms: C_18  and  C_19 
REMARK    5  A    between atoms: C_19  and  N_20 
REMARK    6  A    between atoms: C_24  and  O_25 
REMARK    7  A    between atoms: O_25  and  C_26 
ROOT
HETATM    1  N   UNL     1      -0.840   6.051 -31.373  1.00  0.00    -0.061 N 
HETATM    2  H   UNL     1       0.105   5.796 -31.065  1.00  0.00     0.280 HD
HETATM    3  C   UNL     1      -1.397   4.776 -31.966  1.00  0.00     0.276 C 
HETATM    4  C   UNL     1      -2.845   4.814 -32.364  1.00  0.00     0.002 A 
HETATM    5  C   UNL     1      -3.282   5.692 -33.357  1.00  0.00     0.076 A 
HETATM    6  O   UNL     1      -2.406   6.523 -33.996  1.00  0.00    -0.349 OA
HETATM    7  C   UNL     1      -1.919   7.559 -33.133  1.00  0.00     0.203 C 
HETATM    8  C   UNL     1      -0.629   7.140 -32.419  1.00  0.00     0.262 C 
HETATM    9  C   UNL     1      -3.778   3.926 -31.795  1.00  0.00     0.020 A 
HETATM   10  C   UNL     1      -5.128   3.923 -32.201  1.00  0.00    -0.032 A 
HETATM   11  C   UNL     1      -5.528   4.810 -33.210  1.00  0.00     0.011 A 
HETATM   12  C   UNL     1      -4.605   5.682 -33.793  1.00  0.00     0.038 A 
ENDROOT
BRANCH  10  13
HETATM   13  C   UNL     1      -6.119   2.971 -31.573  1.00  0.00     0.273 C 
BRANCH  13  14
HETATM   14  N   UNL     1      -6.858   2.092 -32.568  1.00  0.00    -0.067 N 
HETATM   15  H   UNL     1      -7.753   2.559 -32.764  1.00  0.00     0.280 HD
HETATM   16  C   UNL     1      -6.115   1.948 -33.877  1.00  0.00     0.237 C 
HETATM   17  C   UNL     1      -6.895   1.057 -34.834  1.00  0.00     0.060 C 
HETATM   18  C   UNL     1      -7.157  -0.319 -34.221  1.00  0.00     0.132 C 
HETATM   19  C   UNL     1      -7.930  -0.135 -32.915  1.00  0.00     0.060 C 
HETATM   20  C   UNL     1      -7.169   0.747 -31.937  1.00  0.00     0.237 C 
BRANCH  18  21
HETATM   21  O   UNL     1      -5.921  -0.961 -33.881  1.00  0.00    -0.344 OA
BRANCH  21  22
HETATM   22  C   UNL     1      -5.782  -2.284 -34.185  1.00  0.00     0.086 A 
HETATM   23  C   UNL     1      -4.531  -2.843 -33.949  1.00  0.00     0.152 A 
HETATM   24  N   UNL     1      -4.200  -4.124 -34.223  1.00  0.00    -0.270 NA
HETATM   25  C   UNL     1      -5.186  -4.910 -34.704  1.00  0.00     0.116 A 
HETATM   26  C   UNL     1      -6.475  -4.459 -34.939  1.00  0.00     0.022 A 
HETATM   27  C   UNL     1      -6.776  -3.122 -34.677  1.00  0.00     0.039 A 
ENDBRANCH  21  22
ENDBRANCH  18  21
ENDBRANCH  13  14
ENDBRANCH  10  13
BRANCH   1  28
HETATM   28  C   UNL     1      -1.522   6.564 -30.121  1.00  0.00     0.273 C 
BRANCH  28  29
HETATM   29  C   UNL     1      -0.594   6.934 -28.994  1.00  0.00    -0.032 A 
HETATM   30  C   UNL     1       0.450   7.854 -29.161  1.00  0.00     0.011 A 
HETATM   31  C   UNL     1       1.320   8.140 -28.100  1.00  0.00     0.030 A 
HETATM   32  C   UNL     1       1.170   7.505 -26.863  1.00  0.00     0.034 A 
HETATM   33  C   UNL     1       0.106   6.621 -26.686  1.00  0.00     0.030 A 
HETATM   34  C   UNL     1      -0.773   6.346 -27.734  1.00  0.00     0.011 A 
BRANCH  32  35
HETATM   35  N   UNL     1       2.079   7.821 -25.836  1.00  0.00    -0.328 N 
HETATM   36  C   UNL     1       1.969   8.879 -24.949  1.00  0.00     0.218 C 
HETATM   37  C   UNL     1       3.202   9.077 -24.103  1.00  0.00     0.117 C 
HETATM   38  O   UNL     1       0.969   9.578 -24.798  1.00  0.00    -0.274 OA
HETATM   39  H   UNL     1       2.843   7.172 -25.680  1.00  0.00     0.169 HD
ENDBRANCH  32  35
ENDBRANCH  28  29
ENDBRANCH   1  28
TORSDOF 7
ENDMDL
MODEL 2
REMARK VINA RESULT:      -9.7      4.616      7.690
REMARK  7 active torsions:
REMARK  status: ('A' for Active; 'I' for Inactive)
REMARK       I    between atoms: C_2  and  N_3 
REMARK    1  A    between atoms: N_3  and  C_4 
REMARK    2  A    between atoms: C_7  and  C_8 
REMARK    3  A    between atoms: C_8  and  N_9 
REMARK    4  A    between atoms: C_18  and  C_19 
REMARK    5  A    between atoms: C_19  and  N_20 
REMARK    6  A    between atoms: C_24  and  O_25 
REMARK    7  A    between atoms: O_25  and  C_26 
ROOT
HETATM    1  N   UNL     1      -3.800   1.311 -31.235  1.00  0.00    -0.061 N 
HETATM    2  H   UNL     1      -3.460   1.670 -30.336  1.00  0.00     0.280 HD
HETATM    3  C   UNL     1      -5.295   1.180 -31.043  1.00  0.00     0.276 C 
HETATM    4  C   UNL     1      -6.086   0.815 -32.267  1.00  0.00     0.002 A 
HETATM    5  C   UNL     1      -5.869  -0.404 -32.911  1.00  0.00     0.076 A 
HETATM    6  O   UNL     1      -4.947  -1.295 -32.438  1.00  0.00    -0.349 OA
HETATM    7  C   UNL     1      -3.604  -0.829 -32.621  1.00  0.00     0.203 C 
HETATM    8  C   UNL     1      -3.111  -0.039 -31.404  1.00  0.00     0.262 C 
HETATM    9  C   UNL     1      -7.102   1.659 -32.753  1.00  0.00     0.020 A 
HETATM   10  C   UNL     1      -7.881   1.300 -33.871  1.00  0.00    -0.032 A 
HETATM   11  C   UNL     1      -7.643   0.062 -34.485  1.00  0.00     0.011 A 
HETATM   12  C   UNL     1      -6.649  -0.790 -33.998  1.00  0.00     0.038 A 
ENDROOT
BRANCH  10  13
HETATM   13  C   UNL     1      -8.961   2.223 -34.387  1.00  0.00     0.273 C 
BRANCH  13  14
HETATM   14  N   UNL     1     -10.321   1.564 -34.547  1.00  0.00    -0.067 N 
HETATM   15  H   UNL     1     -10.223   0.866 -35.296  1.00  0.00     0.280 HD
HETATM   16  C   UNL     1     -10.766   0.840 -33.296  1.00  0.00     0.237 C 
HETATM   17  C   UNL     1     -12.132   0.204 -33.510  1.00  0.00     0.060 C 
HETATM   18  C   UNL     1     -13.173   1.248 -33.913  1.00  0.00     0.132 C 
HETATM   19  C   UNL     1     -12.702   1.939 -35.194  1.00  0.00     0.060 C 
HETATM   20  C   UNL     1     -11.340   2.591 -35.006  1.00  0.00     0.237 C 
BRANCH  18  21
HETATM   21  O   UNL     1     -13.279   2.266 -32.911  1.00  0.00    -0.344 OA
BRANCH  21  22
HETATM   22  C   UNL     1     -14.524   2.734 -32.602  1.00  0.00     0.086 A 
HETATM   23  C   UNL     1     -15.580   1.851 -32.796  1.00  0.00     0.152 A 
HETATM   24  N   UNL     1     -16.879   2.152 -32.580  1.00  0.00    -0.270 NA
HETATM   25  C   UNL     1     -17.138   3.382 -32.088  1.00  0.00     0.116 A 
HETATM   26  C   UNL     1     -16.153   4.322 -31.826  1.00  0.00     0.022 A 
HETATM   27  C   UNL     1     -14.824   3.992 -32.091  1.00  0.00     0.039 A 
ENDBRANCH  21  22
ENDBRANCH  18  21
ENDBRANCH  13  14
ENDBRANCH  10  13
BRANCH   1  28
HETATM   28  C   UNL     1      -3.341   2.336 -32.252  1.00  0.00     0.273 C 
BRANCH  28  29
HETATM   29  C   UNL     1      -3.272   3.752 -31.744  1.00  0.00    -0.032 A 
HETATM   30  C   UNL     1      -4.406   4.434 -31.284  1.00  0.00     0.011 A 
HETATM   31  C   UNL     1      -4.309   5.766 -30.859  1.00  0.00     0.030 A 
HETATM   32  C   UNL     1      -3.086   6.441 -30.900  1.00  0.00     0.034 A 
HETATM   33  C   UNL     1      -1.949   5.749 -31.319  1.00  0.00     0.030 A 
HETATM   34  C   UNL     1      -2.038   4.417 -31.727  1.00  0.00     0.011 A 
BRANCH  32  35
HETATM   35  N   UNL     1      -3.047   7.782 -30.473  1.00  0.00    -0.328 N 
HETATM   36  C   UNL     1      -2.434   8.831 -31.138  1.00  0.00     0.218 C 
HETATM   37  C   UNL     1      -2.384  10.102 -30.328  1.00  0.00     0.117 C 
HETATM   38  O   UNL     1      -2.005   8.788 -32.290  1.00  0.00    -0.274 OA
HETATM   39  H   UNL     1      -3.581   8.018 -29.644  1.00  0.00     0.169 HD
ENDBRANCH  32  35
ENDBRANCH  28  29
ENDBRANCH   1  28
TORSDOF 7
ENDMDL
MODEL 3
REMARK VINA RESULT:      -9.6      2.054      2.609
REMARK  7 active torsions:
REMARK  status: ('A' for Active; 'I' for Inactive)
REMARK       I    between atoms: C_2  and  N_3 
REMARK    1  A    between atoms: N_3  and  C_4 
REMARK    2  A    between atoms: C_7  and  C_8 
REMARK    3  A    between atoms: C_8  and  N_9 
REMARK    4  A    between atoms: C_18  and  C_19 
REMARK    5  A    between atoms: C_19  and  N_20 
REMARK    6  A    between atoms: C_24  and  O_25 
REMARK    7  A    between atoms: O_25  and  C_26 
ROOT
HETATM    1  N   UNL     1      -2.494   7.925 -29.858  1.00  0.00    -0.061 N 
HETATM    2  H   UNL     1      -1.872   8.671 -30.185  1.00  0.00     0.280 HD
HETATM    3  C   UNL     1      -3.397   7.646 -31.040  1.00  0.00     0.276 C 
HETATM    4  C   UNL     1      -4.325   6.474 -30.897  1.00  0.00     0.002 A 
HETATM    5  C   UNL     1      -5.305   6.465 -29.903  1.00  0.00     0.076 A 
HETATM    6  O   UNL     1      -5.451   7.523 -29.050  1.00  0.00    -0.349 OA
HETATM    7  C   UNL     1      -4.357   7.629 -28.131  1.00  0.00     0.203 C 
HETATM    8  C   UNL     1      -3.246   8.532 -28.678  1.00  0.00     0.262 C 
HETATM    9  C   UNL     1      -4.271   5.391 -31.795  1.00  0.00     0.020 A 
HETATM   10  C   UNL     1      -5.171   4.311 -31.697  1.00  0.00    -0.032 A 
HETATM   11  C   UNL     1      -6.150   4.343 -30.694  1.00  0.00     0.011 A 
HETATM   12  C   UNL     1      -6.222   5.421 -29.809  1.00  0.00     0.038 A 
ENDROOT
BRANCH  10  13
HETATM   13  C   UNL     1      -5.093   3.152 -32.664  1.00  0.00     0.273 C 
BRANCH  13  14
HETATM   14  N   UNL     1      -4.900   1.799 -32.001  1.00  0.00    -0.067 N 
HETATM   15  H   UNL     1      -4.888   1.967 -30.986  1.00  0.00     0.280 HD
HETATM   16  C   UNL     1      -6.032   0.841 -32.297  1.00  0.00     0.237 C 
HETATM   17  C   UNL     1      -5.786  -0.498 -31.614  1.00  0.00     0.060 C 
HETATM   18  C   UNL     1      -4.453  -1.106 -32.050  1.00  0.00     0.132 C 
HETATM   19  C   UNL     1      -3.332  -0.122 -31.711  1.00  0.00     0.060 C 
HETATM   20  C   UNL     1      -3.549   1.223 -32.387  1.00  0.00     0.237 C 
BRANCH  18  21
HETATM   21  O   UNL     1      -4.424  -1.290 -33.471  1.00  0.00    -0.344 OA
BRANCH  21  22
HETATM   22  C   UNL     1      -4.956  -2.439 -33.979  1.00  0.00     0.086 A 
HETATM   23  C   UNL     1      -4.166  -3.579 -33.885  1.00  0.00     0.152 A 
HETATM   24  N   UNL     1      -4.513  -4.793 -34.365  1.00  0.00    -0.270 NA
HETATM   25  C   UNL     1      -5.740  -4.894 -34.918  1.00  0.00     0.116 A 
HETATM   26  C   UNL     1      -6.617  -3.826 -35.026  1.00  0.00     0.022 A 
HETATM   27  C   UNL     1      -6.216  -2.577 -34.551  1.00  0.00     0.039 A 
ENDBRANCH  21  22
ENDBRANCH  18  21
ENDBRANCH  13  14
ENDBRANCH  10  13
BRANCH   1  28
HETATM   28  C   UNL     1      -1.562   6.804 -29.447  1.00  0.00     0.273 C 
BRANCH  28  29
HETATM   29  C   UNL     1      -0.525   7.180 -28.421  1.00  0.00    -0.032 A 
HETATM   30  C   UNL     1       0.521   8.066 -28.711  1.00  0.00     0.011 A 
HETATM   31  C   UNL     1       1.492   8.358 -27.743  1.00  0.00     0.030 A 
HETATM   32  C   UNL     1       1.441   7.763 -26.479  1.00  0.00     0.034 A 
HETATM   33  C   UNL     1       0.377   6.913 -26.178  1.00  0.00     0.030 A 
HETATM   34  C   UNL     1      -0.602   6.632 -27.133  1.00  0.00     0.011 A 
BRANCH  32  35
HETATM   35  N   UNL     1       2.448   8.082 -25.549  1.00  0.00    -0.328 N 
HETATM   36  C   UNL     1       2.338   8.993 -24.511  1.00  0.00     0.218 C 
HETATM   37  C   UNL     1       3.650   9.269 -23.820  1.00  0.00     0.117 C 
HETATM   38  O   UNL     1       1.290   9.508 -24.126  1.00  0.00    -0.274 OA
HETATM   39  H   UNL     1       3.306   7.542 -25.594  1.00  0.00     0.169 HD
ENDBRANCH  32  35
ENDBRANCH  28  29
ENDBRANCH   1  28
TORSDOF 7
ENDMDL
MODEL 4
REMARK VINA RESULT:      -9.5      4.336      8.821
REMARK  7 active torsions:
REMARK  status: ('A' for Active; 'I' for Inactive)
REMARK       I    between atoms: C_2  and  N_3 
REMARK    1  A    between atoms: N_3  and  C_4 
REMARK    2  A    between atoms: C_7  and  C_8 
REMARK    3  A    between atoms: C_8  and  N_9 
REMARK    4  A    between atoms: C_18  and  C_19 
REMARK    5  A    between atoms: C_19  and  N_20 
REMARK    6  A    between atoms: C_24  and  O_25 
REMARK    7  A    between atoms: O_25  and  C_26 
ROOT
HETATM    1  N   UNL     1      -4.450   3.683 -33.384  1.00  0.00    -0.061 N 
HETATM    2  H   UNL     1      -4.376   3.171 -34.270  1.00  0.00     0.280 HD
HETATM    3  C   UNL     1      -4.772   5.102 -33.799  1.00  0.00     0.276 C 
HETATM    4  C   UNL     1      -5.091   6.057 -32.685  1.00  0.00     0.002 A 
HETATM    5  C   UNL     1      -4.134   6.356 -31.714  1.00  0.00     0.076 A 
HETATM    6  O   UNL     1      -2.887   5.800 -31.762  1.00  0.00    -0.349 OA
HETATM    7  C   UNL     1      -2.911   4.397 -31.471  1.00  0.00     0.203 C 
HETATM    8  C   UNL     1      -3.071   3.559 -32.745  1.00  0.00     0.262 C 
HETATM    9  C   UNL     1      -6.333   6.719 -32.629  1.00  0.00     0.020 A 
HETATM   10  C   UNL     1      -6.620   7.653 -31.614  1.00  0.00    -0.032 A 
HETATM   11  C   UNL     1      -5.630   7.937 -30.663  1.00  0.00     0.011 A 
HETATM   12  C   UNL     1      -4.389   7.299 -30.721  1.00  0.00     0.038 A 
ENDROOT
BRANCH  10  13
HETATM   13  C   UNL     1      -7.963   8.347 -31.562  1.00  0.00     0.273 C 
BRANCH  13  14
HETATM   14  N   UNL     1      -9.148   7.405 -31.432  1.00  0.00    -0.067 N 
HETATM   15  H   UNL     1      -9.908   7.947 -31.001  1.00  0.00     0.280 HD
HETATM   16  C   UNL     1      -9.640   6.905 -32.771  1.00  0.00     0.237 C 
HETATM   17  C   UNL     1     -10.822   5.964 -32.584  1.00  0.00     0.060 C 
HETATM   18  C   UNL     1     -10.456   4.786 -31.682  1.00  0.00     0.132 C 
HETATM   19  C   UNL     1      -9.988   5.330 -30.331  1.00  0.00     0.060 C 
HETATM   20  C   UNL     1      -8.802   6.268 -30.489  1.00  0.00     0.237 C 
BRANCH  18  21
HETATM   21  O   UNL     1      -9.354   4.053 -32.234  1.00  0.00    -0.344 OA
BRANCH  21  22
HETATM   22  C   UNL     1      -9.479   2.699 -32.348  1.00  0.00     0.086 A 
HETATM   23  C   UNL     1     -10.150   2.234 -33.474  1.00  0.00     0.152 A 
HETATM   24  N   UNL     1     -10.400   0.932 -33.734  1.00  0.00    -0.270 NA
HETATM   25  C   UNL     1      -9.902   0.037 -32.855  1.00  0.00     0.116 A 
HETATM   26  C   UNL     1      -9.188   0.397 -31.722  1.00  0.00     0.022 A 
HETATM   27  C   UNL     1      -8.977   1.751 -31.464  1.00  0.00     0.039 A 
ENDBRANCH  21  22
ENDBRANCH  18  21
ENDBRANCH  13  14
ENDBRANCH  10  13
BRANCH   1  28
HETATM   28  C   UNL     1      -5.526   2.950 -32.609  1.00  0.00     0.273 C 
BRANCH  28  29
HETATM   29  C   UNL     1      -5.818   1.553 -33.088  1.00  0.00    -0.032 A 
HETATM   30  C   UNL     1      -6.483   1.304 -34.295  1.00  0.00     0.011 A 
HETATM   31  C   UNL     1      -6.775  -0.010 -34.686  1.00  0.00     0.030 A 
HETATM   32  C   UNL     1      -6.421  -1.092 -33.875  1.00  0.00     0.034 A 
HETATM   33  C   UNL     1      -5.722  -0.845 -32.694  1.00  0.00     0.030 A 
HETATM   34  C   UNL     1      -5.413   0.460 -32.308  1.00  0.00     0.011 A 
BRANCH  32  35
HETATM   35  N   UNL     1      -6.749  -2.389 -34.310  1.00  0.00    -0.328 N 
HETATM   36  C   UNL     1      -5.874  -3.306 -34.869  1.00  0.00     0.218 C 
HETATM   37  C   UNL     1      -6.564  -4.527 -35.425  1.00  0.00     0.117 C 
HETATM   38  O   UNL     1      -4.649  -3.199 -34.886  1.00  0.00    -0.274 OA
HETATM   39  H   UNL     1      -7.693  -2.713 -34.129  1.00  0.00     0.169 HD
ENDBRANCH  32  35
ENDBRANCH  28  29
ENDBRANCH   1  28
TORSDOF 7
ENDMDL
MODEL 5
REMARK VINA RESULT:      -9.5      1.744     11.913
REMARK  7 active torsions:
REMARK  status: ('A' for Active; 'I' for Inactive)
REMARK       I    between atoms: C_2  and  N_3 
REMARK    1  A    between atoms: N_3  and  C_4 
REMARK    2  A    between atoms: C_7  and  C_8 
REMARK    3  A    between atoms: C_8  and  N_9 
REMARK    4  A    between atoms: C_18  and  C_19 
REMARK    5  A    between atoms: C_19  and  N_20 
REMARK    6  A    between atoms: C_24  and  O_25 
REMARK    7  A    between atoms: O_25  and  C_26 
ROOT
HETATM    1  N   UNL     1      -4.908   4.103 -32.692  1.00  0.00    -0.061 N 
HETATM    2  H   UNL     1      -5.816   3.839 -32.293  1.00  0.00     0.280 HD
HETATM    3  C   UNL     1      -4.528   5.367 -31.953  1.00  0.00     0.276 C 
HETATM    4  C   UNL     1      -3.152   5.901 -32.229  1.00  0.00     0.002 A 
HETATM    5  C   UNL     1      -2.800   6.319 -33.513  1.00  0.00     0.076 A 
HETATM    6  O   UNL     1      -3.699   6.265 -34.541  1.00  0.00    -0.349 OA
HETATM    7  C   UNL     1      -3.987   4.917 -34.934  1.00  0.00     0.203 C 
HETATM    8  C   UNL     1      -5.190   4.352 -34.170  1.00  0.00     0.262 C 
HETATM    9  C   UNL     1      -2.210   6.052 -31.193  1.00  0.00     0.020 A 
HETATM   10  C   UNL     1      -0.934   6.599 -31.436  1.00  0.00    -0.032 A 
HETATM   11  C   UNL     1      -0.621   7.020 -32.736  1.00  0.00     0.011 A 
HETATM   12  C   UNL     1      -1.555   6.890 -33.766  1.00  0.00     0.038 A 
ENDROOT
BRANCH  10  13
HETATM   13  C   UNL     1       0.069   6.744 -30.314  1.00  0.00     0.273 C 
BRANCH  13  14
HETATM   14  N   UNL     1      -0.553   6.929 -28.941  1.00  0.00    -0.067 N 
HETATM   15  H   UNL     1      -1.428   6.388 -28.939  1.00  0.00     0.280 HD
HETATM   16  C   UNL     1       0.324   6.393 -27.831  1.00  0.00     0.237 C 
HETATM   17  C   UNL     1      -0.343   6.607 -26.479  1.00  0.00     0.060 C 
HETATM   18  C   UNL     1      -0.652   8.085 -26.241  1.00  0.00     0.132 C 
HETATM   19  C   UNL     1      -1.560   8.583 -27.367  1.00  0.00     0.060 C 
HETATM   20  C   UNL     1      -0.914   8.388 -28.730  1.00  0.00     0.237 C 
BRANCH  18  21
HETATM   21  O   UNL     1       0.548   8.866 -26.303  1.00  0.00    -0.344 OA
BRANCH  21  22
HETATM   22  C   UNL     1       1.222   9.098 -25.139  1.00  0.00     0.086 A 
HETATM   23  C   UNL     1       0.536   9.806 -24.159  1.00  0.00     0.152 A 
HETATM   24  N   UNL     1       1.056  10.158 -22.963  1.00  0.00    -0.270 NA
HETATM   25  C   UNL     1       2.309   9.731 -22.703  1.00  0.00     0.116 A 
HETATM   26  C   UNL     1       3.064   8.988 -23.598  1.00  0.00     0.022 A 
HETATM   27  C   UNL     1       2.510   8.669 -24.838  1.00  0.00     0.039 A 
ENDBRANCH  21  22
ENDBRANCH  18  21
ENDBRANCH  13  14
ENDBRANCH  10  13
BRANCH   1  28
HETATM   28  C   UNL     1      -4.024   2.896 -32.458  1.00  0.00     0.273 C 
BRANCH  28  29
HETATM   29  C   UNL     1      -4.654   1.569 -32.787  1.00  0.00    -0.032 A 
HETATM   30  C   UNL     1      -3.975   0.356 -32.606  1.00  0.00     0.011 A 
HETATM   31  C   UNL     1      -4.581  -0.856 -32.964  1.00  0.00     0.030 A 
HETATM   32  C   UNL     1      -5.863  -0.877 -33.520  1.00  0.00     0.034 A 
HETATM   33  C   UNL     1      -6.554   0.326 -33.660  1.00  0.00     0.030 A 
HETATM   34  C   UNL     1      -5.963   1.535 -33.289  1.00  0.00     0.011 A 
BRANCH  32  35
HETATM   35  N   UNL     1      -6.418  -2.121 -33.873  1.00  0.00    -0.328 N 
HETATM   36  C   UNL     1      -5.844  -3.059 -34.715  1.00  0.00     0.218 C 
HETATM   37  C   UNL     1      -6.774  -4.195 -35.063  1.00  0.00     0.117 C 
HETATM   38  O   UNL     1      -4.684  -3.034 -35.120  1.00  0.00    -0.274 OA
HETATM   39  H   UNL     1      -7.280  -2.391 -33.409  1.00  0.00     0.169 HD
ENDBRANCH  32  35
ENDBRANCH  28  29
ENDBRANCH   1  28
TORSDOF 7
ENDMDL
MODEL 6
REMARK VINA RESULT:      -9.4      3.928      8.753
REMARK  7 active torsions:
REMARK  status: ('A' for Active; 'I' for Inactive)
REMARK       I    between atoms: C_2  and  N_3 
REMARK    1  A    between atoms: N_3  and  C_4 
REMARK    2  A    between atoms: C_7  and  C_8 
REMARK    3  A    between atoms: C_8  and  N_9 
REMARK    4  A    between atoms: C_18  and  C_19 
REMARK    5  A    between atoms: C_19  and  N_20 
REMARK    6  A    between atoms: C_24  and  O_25 
REMARK    7  A    between atoms: O_25  and  C_26 
ROOT
HETATM    1  N   UNL     1      -2.961   3.706 -32.743  1.00  0.00    -0.061 N 
HETATM    2  H   UNL     1      -2.499   3.041 -33.372  1.00  0.00     0.280 HD
HETATM    3  C   UNL     1      -3.811   4.558 -33.659  1.00  0.00     0.276 C 
HETATM    4  C   UNL     1      -4.733   5.533 -32.984  1.00  0.00     0.002 A 
HETATM    5  C   UNL     1      -4.217   6.561 -32.193  1.00  0.00     0.076 A 
HETATM    6  O   UNL     1      -2.869   6.712 -32.026  1.00  0.00    -0.349 OA
HETATM    7  C   UNL     1      -2.304   5.661 -31.232  1.00  0.00     0.203 C 
HETATM    8  C   UNL     1      -1.824   4.493 -32.100  1.00  0.00     0.262 C 
HETATM    9  C   UNL     1      -6.126   5.474 -33.182  1.00  0.00     0.020 A 
HETATM   10  C   UNL     1      -6.991   6.416 -32.591  1.00  0.00    -0.032 A 
HETATM   11  C   UNL     1      -6.436   7.442 -31.813  1.00  0.00     0.011 A 
HETATM   12  C   UNL     1      -5.054   7.519 -31.626  1.00  0.00     0.038 A 
ENDROOT
BRANCH  10  13
HETATM   13  C   UNL     1      -8.485   6.331 -32.806  1.00  0.00     0.273 C 
BRANCH  13  14
HETATM   14  N   UNL     1      -8.929   5.147 -33.647  1.00  0.00    -0.067 N 
HETATM   15  H   UNL     1      -8.201   5.003 -34.359  1.00  0.00     0.280 HD
HETATM   16  C   UNL     1      -9.045   3.873 -32.841  1.00  0.00     0.237 C 
HETATM   17  C   UNL     1      -9.496   2.722 -33.729  1.00  0.00     0.060 C 
HETATM   18  C   UNL     1     -10.827   3.038 -34.412  1.00  0.00     0.132 C 
HETATM   19  C   UNL     1     -10.664   4.315 -35.237  1.00  0.00     0.060 C 
HETATM   20  C   UNL     1     -10.220   5.484 -34.371  1.00  0.00     0.237 C 
BRANCH  18  21
HETATM   21  O   UNL     1     -11.842   3.305 -33.436  1.00  0.00    -0.344 OA
BRANCH  21  22
HETATM   22  C   UNL     1     -13.000   2.586 -33.502  1.00  0.00     0.086 A 
HETATM   23  C   UNL     1     -13.125   1.716 -34.581  1.00  0.00     0.152 A 
HETATM   24  N   UNL     1     -14.212   0.954 -34.828  1.00  0.00    -0.270 NA
HETATM   25  C   UNL     1     -15.209   1.015 -33.920  1.00  0.00     0.116 A 
HETATM   26  C   UNL     1     -15.166   1.822 -32.793  1.00  0.00     0.022 A 
HETATM   27  C   UNL     1     -14.042   2.623 -32.584  1.00  0.00     0.039 A 
ENDBRANCH  21  22
ENDBRANCH  18  21
ENDBRANCH  13  14
ENDBRANCH  10  13
BRANCH   1  28
HETATM   28  C   UNL     1      -3.707   2.836 -31.752  1.00  0.00     0.273 C 
BRANCH  28  29
HETATM   29  C   UNL     1      -4.319   1.588 -32.332  1.00  0.00    -0.032 A 
HETATM   30  C   UNL     1      -5.520   1.615 -33.055  1.00  0.00     0.011 A 
HETATM   31  C   UNL     1      -6.080   0.426 -33.542  1.00  0.00     0.030 A 
HETATM   32  C   UNL     1      -5.461  -0.805 -33.306  1.00  0.00     0.034 A 
HETATM   33  C   UNL     1      -4.245  -0.825 -32.623  1.00  0.00     0.030 A 
HETATM   34  C   UNL     1      -3.674   0.357 -32.150  1.00  0.00     0.011 A 
BRANCH  32  35
HETATM   35  N   UNL     1      -6.074  -1.968 -33.808  1.00  0.00    -0.328 N 
HETATM   36  C   UNL     1      -5.485  -2.901 -34.646  1.00  0.00     0.218 C 
HETATM   37  C   UNL     1      -6.460  -3.922 -35.178  1.00  0.00     0.117 C 
HETATM   38  O   UNL     1      -4.287  -2.958 -34.915  1.00  0.00    -0.274 OA
HETATM   39  H   UNL     1      -7.004  -2.185 -33.466  1.00  0.00     0.169 HD
ENDBRANCH  32  35
ENDBRANCH  28  29
ENDBRANCH   1  28
TORSDOF 7
ENDMDL
MODEL 7
REMARK VINA RESULT:      -9.1      2.955      9.731
REMARK  7 active torsions:
REMARK  status: ('A' for Active; 'I' for Inactive)
REMARK       I    between atoms: C_2  and  N_3 
REMARK    1  A    between atoms: N_3  and  C_4 
REMARK    2  A    between atoms: C_7  and  C_8 
REMARK    3  A    between atoms: C_8  and  N_9 
REMARK    4  A    between atoms: C_18  and  C_19 
REMARK    5  A    between atoms: C_19  and  N_20 
REMARK    6  A    between atoms: C_24  and  O_25 
REMARK    7  A    between atoms: O_25  and  C_26 
ROOT
HETATM    1  N   UNL     1     -10.109   0.896 -33.396  1.00  0.00    -0.061 N 
HETATM    2  H   UNL     1     -10.107  -0.058 -33.020  1.00  0.00     0.280 HD
HETATM    3  C   UNL     1      -9.782   1.767 -32.204  1.00  0.00     0.276 C 
HETATM    4  C   UNL     1      -9.563   3.225 -32.494  1.00  0.00     0.002 A 
HETATM    5  C   UNL     1     -10.596   4.003 -33.020  1.00  0.00     0.076 A 
HETATM    6  O   UNL     1     -11.827   3.464 -33.269  1.00  0.00    -0.349 OA
HETATM    7  C   UNL     1     -11.801   2.548 -34.371  1.00  0.00     0.203 C 
HETATM    8  C   UNL     1     -11.530   1.112 -33.906  1.00  0.00     0.262 C 
HETATM    9  C   UNL     1      -8.341   3.852 -32.187  1.00  0.00     0.020 A 
HETATM   10  C   UNL     1      -8.147   5.229 -32.411  1.00  0.00    -0.032 A 
HETATM   11  C   UNL     1      -9.210   5.982 -32.928  1.00  0.00     0.011 A 
HETATM   12  C   UNL     1     -10.432   5.372 -33.220  1.00  0.00     0.038 A 
ENDROOT
BRANCH  10  13
HETATM   13  C   UNL     1      -6.824   5.885 -32.084  1.00  0.00     0.273 C 
BRANCH  13  14
HETATM   14  N   UNL     1      -5.608   5.046 -32.435  1.00  0.00    -0.067 N 
HETATM   15  H   UNL     1      -5.962   4.151 -32.796  1.00  0.00     0.280 HD
HETATM   16  C   UNL     1      -4.761   5.677 -33.517  1.00  0.00     0.237 C 
HETATM   17  C   UNL     1      -3.556   4.799 -33.827  1.00  0.00     0.060 C 
HETATM   18  C   UNL     1      -2.714   4.552 -32.575  1.00  0.00     0.132 C 
HETATM   19  C   UNL     1      -3.596   3.891 -31.514  1.00  0.00     0.060 C 
HETATM   20  C   UNL     1      -4.805   4.751 -31.181  1.00  0.00     0.237 C 
BRANCH  18  21
HETATM   21  O   UNL     1      -2.262   5.793 -32.019  1.00  0.00    -0.344 OA
BRANCH  21  22
HETATM   22  C   UNL     1      -1.306   5.749 -31.047  1.00  0.00     0.086 A 
HETATM   23  C   UNL     1      -1.546   6.514 -29.910  1.00  0.00     0.152 A 
HETATM   24  N   UNL     1      -0.697   6.622 -28.865  1.00  0.00    -0.270 NA
HETATM   25  C   UNL     1       0.429   5.880 -28.927  1.00  0.00     0.116 A 
HETATM   26  C   UNL     1       0.744   5.058 -29.998  1.00  0.00     0.022 A 
HETATM   27  C   UNL     1      -0.139   4.995 -31.077  1.00  0.00     0.039 A 
ENDBRANCH  21  22
ENDBRANCH  18  21
ENDBRANCH  13  14
ENDBRANCH  10  13
BRANCH   1  28
HETATM   28  C   UNL     1      -9.083   0.869 -34.510  1.00  0.00     0.273 C 
BRANCH  28  29
HETATM   29  C   UNL     1      -7.719   0.373 -34.109  1.00  0.00    -0.032 A 
HETATM   30  C   UNL     1      -7.444  -0.990 -33.934  1.00  0.00     0.011 A 
HETATM   31  C   UNL     1      -6.173  -1.409 -33.519  1.00  0.00     0.030 A 
HETATM   32  C   UNL     1      -5.163  -0.479 -33.259  1.00  0.00     0.034 A 
HETATM   33  C   UNL     1      -5.425   0.875 -33.474  1.00  0.00     0.030 A 
HETATM   34  C   UNL     1      -6.685   1.297 -33.904  1.00  0.00     0.011 A 
BRANCH  32  35
HETATM   35  N   UNL     1      -3.909  -0.954 -32.832  1.00  0.00    -0.328 N 
HETATM   36  C   UNL     1      -3.285  -0.644 -31.635  1.00  0.00     0.218 C 
HETATM   37  C   UNL     1      -1.863  -1.139 -31.559  1.00  0.00     0.117 C 
HETATM   38  O   UNL     1      -3.816  -0.070 -30.685  1.00  0.00    -0.274 OA
HETATM   39  H   UNL     1      -3.454  -1.646 -33.418  1.00  0.00     0.169 HD
ENDBRANCH  32  35
ENDBRANCH  28  29
ENDBRANCH   1  28
TORSDOF 7
ENDMDL
MODEL 8
REMARK VINA RESULT:      -9.1      2.363     10.978
REMARK  7 active torsions:
REMARK  status: ('A' for Active; 'I' for Inactive)
REMARK       I    between atoms: C_2  and  N_3 
REMARK    1  A    between atoms: N_3  and  C_4 
REMARK    2  A    between atoms: C_7  and  C_8 
REMARK    3  A    between atoms: C_8  and  N_9 
REMARK    4  A    between atoms: C_18  and  C_19 
REMARK    5  A    between atoms: C_19  and  N_20 
REMARK    6  A    between atoms: C_24  and  O_25 
REMARK    7  A    between atoms: O_25  and  C_26 
ROOT
HETATM    1  N   UNL     1      -9.536   2.447 -32.951  1.00  0.00    -0.061 N 
HETATM    2  H   UNL     1     -10.057   1.607 -32.679  1.00  0.00     0.280 HD
HETATM    3  C   UNL     1      -8.676   2.759 -31.746  1.00  0.00     0.276 C 
HETATM    4  C   UNL     1      -7.678   3.869 -31.920  1.00  0.00     0.002 A 
HETATM    5  C   UNL     1      -8.107   5.169 -32.189  1.00  0.00     0.076 A 
HETATM    6  O   UNL     1      -9.437   5.465 -32.287  1.00  0.00    -0.349 OA
HETATM    7  C   UNL     1     -10.029   4.903 -33.465  1.00  0.00     0.203 C 
HETATM    8  C   UNL     1     -10.604   3.507 -33.198  1.00  0.00     0.262 C 
HETATM    9  C   UNL     1      -6.299   3.638 -31.754  1.00  0.00     0.020 A 
HETATM   10  C   UNL     1      -5.362   4.684 -31.866  1.00  0.00    -0.032 A 
HETATM   11  C   UNL     1      -5.830   5.980 -32.124  1.00  0.00     0.011 A 
HETATM   12  C   UNL     1      -7.198   6.221 -32.273  1.00  0.00     0.038 A 
ENDROOT
BRANCH  10  13
HETATM   13  C   UNL     1      -3.884   4.418 -31.695  1.00  0.00     0.273 C 
BRANCH  13  14
HETATM   14  N   UNL     1      -3.017   5.664 -31.726  1.00  0.00    -0.067 N 
HETATM   15  H   UNL     1      -3.404   6.274 -32.458  1.00  0.00     0.280 HD
HETATM   16  C   UNL     1      -3.053   6.429 -30.421  1.00  0.00     0.237 C 
HETATM   17  C   UNL     1      -2.167   7.663 -30.505  1.00  0.00     0.060 C 
HETATM   18  C   UNL     1      -0.727   7.289 -30.857  1.00  0.00     0.132 C 
HETATM   19  C   UNL     1      -0.727   6.542 -32.192  1.00  0.00     0.060 C 
HETATM   20  C   UNL     1      -1.601   5.298 -32.134  1.00  0.00     0.237 C 
BRANCH  18  21
HETATM   21  O   UNL     1      -0.189   6.388 -29.881  1.00  0.00    -0.344 OA
BRANCH  21  22
HETATM   22  C   UNL     1       0.290   6.915 -28.717  1.00  0.00     0.086 A 
HETATM   23  C   UNL     1      -0.051   6.242 -27.549  1.00  0.00     0.152 A 
HETATM   24  N   UNL     1       0.300   6.638 -26.306  1.00  0.00    -0.270 NA
HETATM   25  C   UNL     1       1.085   7.734 -26.223  1.00  0.00     0.116 A 
HETATM   26  C   UNL     1       1.509   8.454 -27.330  1.00  0.00     0.022 A 
HETATM   27  C   UNL     1       1.101   8.038 -28.597  1.00  0.00     0.039 A 
ENDBRANCH  21  22
ENDBRANCH  18  21
ENDBRANCH  13  14
ENDBRANCH  10  13
BRANCH   1  28
HETATM   28  C   UNL     1      -8.802   2.048 -34.215  1.00  0.00     0.273 C 
BRANCH  28  29
HETATM   29  C   UNL     1      -7.816   0.921 -34.051  1.00  0.00    -0.032 A 
HETATM   30  C   UNL     1      -8.224  -0.390 -33.770  1.00  0.00     0.011 A 
HETATM   31  C   UNL     1      -7.274  -1.403 -33.581  1.00  0.00     0.030 A 
HETATM   32  C   UNL     1      -5.907  -1.123 -33.658  1.00  0.00     0.034 A 
HETATM   33  C   UNL     1      -5.503   0.173 -33.979  1.00  0.00     0.030 A 
HETATM   34  C   UNL     1      -6.445   1.182 -34.185  1.00  0.00     0.011 A 
BRANCH  32  35
HETATM   35  N   UNL     1      -4.996  -2.175 -33.448  1.00  0.00    -0.328 N 
HETATM   36  C   UNL     1      -4.681  -3.172 -34.357  1.00  0.00     0.218 C 
HETATM   37  C   UNL     1      -3.833  -4.270 -33.766  1.00  0.00     0.117 C 
HETATM   38  O   UNL     1      -4.996  -3.174 -35.546  1.00  0.00    -0.274 OA
HETATM   39  H   UNL     1      -4.464  -2.161 -32.584  1.00  0.00     0.169 HD
ENDBRANCH  32  35
ENDBRANCH  28  29
ENDBRANCH   1  28
TORSDOF 7
ENDMDL
MODEL 9
REMARK VINA RESULT:      -9.1      2.338      5.816
REMARK  7 active torsions:
REMARK  status: ('A' for Active; 'I' for Inactive)
REMARK       I    between atoms: C_2  and  N_3 
REMARK    1  A    between atoms: N_3  and  C_4 
REMARK    2  A    between atoms: C_7  and  C_8 
REMARK    3  A    between atoms: C_8  and  N_9 
REMARK    4  A    between atoms: C_18  and  C_19 
REMARK    5  A    between atoms: C_19  and  N_20 
REMARK    6  A    between atoms: C_24  and  O_25 
REMARK    7  A    between atoms: O_25  and  C_26 
ROOT
HETATM    1  N   UNL     1      -0.138   8.791 -27.443  1.00  0.00    -0.061 N 
HETATM    2  H   UNL     1       0.577   9.439 -27.792  1.00  0.00     0.280 HD
HETATM    3  C   UNL     1      -1.383   9.155 -28.222  1.00  0.00     0.276 C 
HETATM    4  C   UNL     1      -2.569   8.254 -28.024  1.00  0.00     0.002 A 
HETATM    5  C   UNL     1      -3.162   8.132 -26.767  1.00  0.00     0.076 A 
HETATM    6  O   UNL     1      -2.688   8.835 -25.695  1.00  0.00    -0.349 OA
HETATM    7  C   UNL     1      -1.406   8.361 -25.264  1.00  0.00     0.203 C 
HETATM    8  C   UNL     1      -0.264   9.113 -25.957  1.00  0.00     0.262 C 
HETATM    9  C   UNL     1      -3.147   7.565 -29.108  1.00  0.00     0.020 A 
HETATM   10  C   UNL     1      -4.290   6.758 -28.938  1.00  0.00    -0.032 A 
HETATM   11  C   UNL     1      -4.865   6.669 -27.663  1.00  0.00     0.011 A 
HETATM   12  C   UNL     1      -4.309   7.363 -26.586  1.00  0.00     0.038 A 
ENDROOT
BRANCH  10  13
HETATM   13  C   UNL     1      -4.892   6.018 -30.110  1.00  0.00     0.273 C 
BRANCH  13  14
HETATM   14  N   UNL     1      -4.578   4.532 -30.138  1.00  0.00    -0.067 N 
HETATM   15  H   UNL     1      -3.957   4.347 -29.339  1.00  0.00     0.280 HD
HETATM   16  C   UNL     1      -5.813   3.675 -29.969  1.00  0.00     0.237 C 
HETATM   17  C   UNL     1      -5.443   2.199 -30.008  1.00  0.00     0.060 C 
HETATM   18  C   UNL     1      -4.726   1.841 -31.310  1.00  0.00     0.132 C 
HETATM   19  C   UNL     1      -3.472   2.707 -31.433  1.00  0.00     0.060 C 
HETATM   20  C   UNL     1      -3.814   4.189 -31.403  1.00  0.00     0.237 C 
BRANCH  18  21
HETATM   21  O   UNL     1      -5.552   2.150 -32.440  1.00  0.00    -0.344 OA
BRANCH  21  22
HETATM   22  C   UNL     1      -5.948   1.121 -33.244  1.00  0.00     0.086 A 
HETATM   23  C   UNL     1      -6.666   1.469 -34.383  1.00  0.00     0.152 A 
HETATM   24  N   UNL     1      -7.169   0.585 -35.272  1.00  0.00    -0.270 NA
HETATM   25  C   UNL     1      -6.892  -0.717 -35.047  1.00  0.00     0.116 A 
HETATM   26  C   UNL     1      -6.155  -1.164 -33.961  1.00  0.00     0.022 A 
HETATM   27  C   UNL     1      -5.678  -0.228 -33.044  1.00  0.00     0.039 A 
ENDBRANCH  21  22
ENDBRANCH  18  21
ENDBRANCH  13  14
ENDBRANCH  10  13
BRANCH   1  28
HETATM   28  C   UNL     1       0.437   7.414 -27.699  1.00  0.00     0.273 C 
BRANCH  28  29
HETATM   29  C   UNL     1       0.199   6.870 -29.083  1.00  0.00    -0.032 A 
HETATM   30  C   UNL     1       0.480   7.617 -30.235  1.00  0.00     0.011 A 
HETATM   31  C   UNL     1       0.204   7.093 -31.505  1.00  0.00     0.030 A 
HETATM   32  C   UNL     1      -0.367   5.825 -31.646  1.00  0.00     0.034 A 
HETATM   33  C   UNL     1      -0.608   5.065 -30.501  1.00  0.00     0.030 A 
HETATM   34  C   UNL     1      -0.319   5.576 -29.234  1.00  0.00     0.011 A 
BRANCH  32  35
HETATM   35  N   UNL     1      -0.634   5.353 -32.944  1.00  0.00    -0.328 N 
HETATM   36  C   UNL     1      -1.608   5.837 -33.803  1.00  0.00     0.218 C 
HETATM   37  C   UNL     1      -1.788   4.990 -35.038  1.00  0.00     0.117 C 
HETATM   38  O   UNL     1      -2.246   6.875 -33.639  1.00  0.00    -0.274 OA
HETATM   39  H   UNL     1      -0.009   4.645 -33.316  1.00  0.00     0.169 HD
ENDBRANCH  32  35
ENDBRANCH  28  29
ENDBRANCH   1  28
TORSDOF 7
ENDMDL
MODEL 10
REMARK VINA RESULT:      -8.9      5.173     10.048
REMARK  7 active torsions:
REMARK  status: ('A' for Active; 'I' for Inactive)
REMARK       I    between atoms: C_2  and  N_3 
REMARK    1  A    between atoms: N_3  and  C_4 
REMARK    2  A    between atoms: C_7  and  C_8 
REMARK    3  A    between atoms: C_8  and  N_9 
REMARK    4  A    between atoms: C_18  and  C_19 
REMARK    5  A    between atoms: C_19  and  N_20 
REMARK    6  A    between atoms: C_24  and  O_25 
REMARK    7  A    between atoms: O_25  and  C_26 
ROOT
HETATM    1  N   UNL     1     -10.515   1.594 -33.786  1.00  0.00    -0.061 N 
HETATM    2  H   UNL     1     -10.509   0.605 -33.514  1.00  0.00     0.280 HD
HETATM    3  C   UNL     1     -10.691   2.339 -32.482  1.00  0.00     0.276 C 
HETATM    4  C   UNL     1     -10.581   3.835 -32.559  1.00  0.00     0.002 A 
HETATM    5  C   UNL     1     -11.488   4.572 -33.322  1.00  0.00     0.076 A 
HETATM    6  O   UNL     1     -12.499   3.955 -34.003  1.00  0.00    -0.349 OA
HETATM    7  C   UNL     1     -12.013   3.187 -35.111  1.00  0.00     0.203 C 
HETATM    8  C   UNL     1     -11.721   1.737 -34.709  1.00  0.00     0.262 C 
HETATM    9  C   UNL     1      -9.607   4.532 -31.817  1.00  0.00     0.020 A 
HETATM   10  C   UNL     1      -9.531   5.938 -31.847  1.00  0.00    -0.032 A 
HETATM   11  C   UNL     1     -10.466   6.646 -32.615  1.00  0.00     0.011 A 
HETATM   12  C   UNL     1     -11.447   5.964 -33.339  1.00  0.00     0.038 A 
ENDROOT
BRANCH  10  13
HETATM   13  C   UNL     1      -8.472   6.670 -31.053  1.00  0.00     0.273 C 
BRANCH  13  14
HETATM   14  N   UNL     1      -7.047   6.288 -31.413  1.00  0.00    -0.067 N 
HETATM   15  H   UNL     1      -6.472   7.129 -31.270  1.00  0.00     0.280 HD
HETATM   16  C   UNL     1      -6.496   5.196 -30.523  1.00  0.00     0.237 C 
HETATM   17  C   UNL     1      -5.070   4.850 -30.929  1.00  0.00     0.060 C 
HETATM   18  C   UNL     1      -4.999   4.422 -32.395  1.00  0.00     0.132 C 
HETATM   19  C   UNL     1      -5.539   5.559 -33.264  1.00  0.00     0.060 C 
HETATM   20  C   UNL     1      -6.967   5.921 -32.884  1.00  0.00     0.237 C 
BRANCH  18  21
HETATM   21  O   UNL     1      -5.844   3.288 -32.629  1.00  0.00    -0.344 OA
BRANCH  21  22
HETATM   22  C   UNL     1      -5.385   2.060 -32.252  1.00  0.00     0.086 A 
HETATM   23  C   UNL     1      -6.212   1.324 -31.409  1.00  0.00     0.152 A 
HETATM   24  N   UNL     1      -5.907   0.108 -30.907  1.00  0.00    -0.270 NA
HETATM   25  C   UNL     1      -4.739  -0.434 -31.311  1.00  0.00     0.116 A 
HETATM   26  C   UNL     1      -3.862   0.201 -32.177  1.00  0.00     0.022 A 
HETATM   27  C   UNL     1      -4.191   1.471 -32.652  1.00  0.00     0.039 A 
ENDBRANCH  21  22
ENDBRANCH  18  21
ENDBRANCH  13  14
ENDBRANCH  10  13
BRANCH   1  28
HETATM   28  C   UNL     1      -9.197   1.800 -34.505  1.00  0.00     0.273 C 
BRANCH  28  29
HETATM   29  C   UNL     1      -8.244   0.636 -34.436  1.00  0.00    -0.032 A 
HETATM   30  C   UNL     1      -7.111   0.552 -35.256  1.00  0.00     0.011 A 
HETATM   31  C   UNL     1      -6.271  -0.569 -35.192  1.00  0.00     0.030 A 
HETATM   32  C   UNL     1      -6.555  -1.626 -34.323  1.00  0.00     0.034 A 
HETATM   33  C   UNL     1      -7.660  -1.522 -33.477  1.00  0.00     0.030 A 
HETATM   34  C   UNL     1      -8.490  -0.401 -33.524  1.00  0.00     0.011 A 
BRANCH  32  35
HETATM   35  N   UNL     1      -5.685  -2.732 -34.309  1.00  0.00    -0.328 N 
HETATM   36  C   UNL     1      -5.982  -4.007 -34.762  1.00  0.00     0.218 C 
HETATM   37  C   UNL     1      -4.920  -5.022 -34.421  1.00  0.00     0.117 C 
HETATM   38  O   UNL     1      -6.973  -4.313 -35.422  1.00  0.00    -0.274 OA
HETATM   39  H   UNL     1      -4.730  -2.564 -34.012  1.00  0.00     0.169 HD
ENDBRANCH  32  35
ENDBRANCH  28  29
ENDBRANCH   1  28
TORSDOF 7
ENDMDL
