MODEL 1
REMARK VINA RESULT:      -8.5      0.000      0.000
REMARK  4 active torsions:
REMARK  status: ('A' for Active; 'I' for Inactive)
REMARK    1  A    between atoms: C_9  and  N_10 
REMARK    2  A    between atoms: N_10  and  C_12 
REMARK    3  A    between atoms: C_12  and  C_13 
REMARK    4  A    between atoms: C_14  and  C_15 
ROOT
HETATM    1  C   UNL     1      -7.200   3.380 -32.923  1.00  0.00     0.016 A 
HETATM    2  C   UNL     1      -6.733   4.530 -33.638  1.00  0.00     0.096 A 
HETATM    3  N   UNL     1      -7.747   5.166 -34.235  1.00  0.00    -0.174 NA
HETATM    4  N   UNL     1      -8.840   4.476 -33.908  1.00  0.00    -0.288 N 
HETATM    5  H   UNL     1      -9.738   4.809 -34.251  1.00  0.00     0.188 HD
HETATM    6  C   UNL     1      -8.573   3.398 -33.112  1.00  0.00     0.120 A 
ENDROOT
BRANCH   1   7
HETATM    7  C   UNL     1      -6.383   2.451 -32.094  1.00  0.00     0.277 C 
BRANCH   7   8
HETATM    8  N   UNL     1      -5.458   1.554 -32.886  1.00  0.00    -0.065 N 
HETATM    9  H   UNL     1      -5.452   1.894 -33.856  1.00  0.00     0.280 HD
HETATM   10  C   UNL     1      -4.050   1.551 -32.354  1.00  0.00     0.270 C 
BRANCH   8  11
HETATM   11  C   UNL     1      -5.969   0.147 -32.810  1.00  0.00     0.205 C 
HETATM   12  C   UNL     1      -7.099  -0.248 -33.896  1.00  0.00     0.008 C 
HETATM   13  C   UNL     1      -7.124   0.416 -35.274  1.00  0.00     0.020 C 
HETATM   14  C   UNL     1      -8.513  -0.316 -33.309  1.00  0.00     0.020 C 
HETATM   15  C   UNL     1      -6.405  -1.623 -33.835  1.00  0.00     0.137 C 
HETATM   16  C   UNL     1      -5.064  -0.870 -33.591  1.00  0.00     0.049 C 
HETATM   17  O   UNL     1      -6.133  -2.524 -34.907  1.00  0.00    -0.385 OA
HETATM   18  C   UNL     1      -4.288  -2.172 -33.446  1.00  0.00     0.035 C 
HETATM   19  C   UNL     1      -4.773  -2.982 -34.686  1.00  0.00     0.168 C 
ENDBRANCH   8  11
ENDBRANCH   7   8
ENDBRANCH   1   7
BRANCH   2  20
HETATM   20  C   UNL     1      -5.379   5.069 -33.728  1.00  0.00    -0.002 A 
HETATM   21  C   UNL     1      -4.863   5.813 -32.656  1.00  0.00     0.053 A 
HETATM   22  C   UNL     1      -3.568   6.325 -32.713  1.00  0.00     0.103 A 
HETATM   23  C   UNL     1      -2.787   6.122 -33.852  1.00  0.00     0.102 A 
HETATM   24  O   UNL     1      -3.136   7.028 -31.619  1.00  0.00    -0.346 OA
HETATM   25  O   UNL     1      -1.518   6.624 -33.991  1.00  0.00    -0.346 OA
HETATM   26  C   UNL     1      -3.289   5.383 -34.921  1.00  0.00     0.040 A 
HETATM   27  C   UNL     1      -1.275   7.677 -33.048  1.00  0.00     0.202 C 
HETATM   28  C   UNL     1      -1.723   7.263 -31.656  1.00  0.00     0.202 C 
HETATM   29  C   UNL     1      -4.587   4.866 -34.867  1.00  0.00     0.017 A 
ENDBRANCH   2  20
TORSDOF 4
ENDMDL
MODEL 2
REMARK VINA RESULT:      -8.4      2.047      2.949
REMARK  4 active torsions:
REMARK  status: ('A' for Active; 'I' for Inactive)
REMARK    1  A    between atoms: C_9  and  N_10 
REMARK    2  A    between atoms: N_10  and  C_12 
REMARK    3  A    between atoms: C_12  and  C_13 
REMARK    4  A    between atoms: C_14  and  C_15 
ROOT
HETATM    1  C   UNL     1      -6.960   1.993 -32.425  1.00  0.00     0.016 A 
HETATM    2  C   UNL     1      -6.158   2.863 -31.618  1.00  0.00     0.096 A 
HETATM    3  N   UNL     1      -6.722   3.057 -30.420  1.00  0.00    -0.174 NA
HETATM    4  N   UNL     1      -7.837   2.326 -30.430  1.00  0.00    -0.288 N 
HETATM    5  H   UNL     1      -8.414   2.319 -29.592  1.00  0.00     0.188 HD
HETATM    6  C   UNL     1      -8.026   1.657 -31.606  1.00  0.00     0.120 A 
ENDROOT
BRANCH   1   7
HETATM    7  C   UNL     1      -6.643   1.502 -33.795  1.00  0.00     0.277 C 
BRANCH   7   8
HETATM    8  N   UNL     1      -6.951   0.039 -34.022  1.00  0.00    -0.065 N 
HETATM    9  H   UNL     1      -7.341  -0.336 -33.149  1.00  0.00     0.280 HD
HETATM   10  C   UNL     1      -7.935  -0.185 -35.139  1.00  0.00     0.270 C 
BRANCH   8  11
HETATM   11  C   UNL     1      -5.682  -0.669 -34.394  1.00  0.00     0.205 C 
HETATM   12  C   UNL     1      -4.640  -0.920 -33.186  1.00  0.00     0.008 C 
HETATM   13  C   UNL     1      -5.138  -1.117 -31.753  1.00  0.00     0.020 C 
HETATM   14  C   UNL     1      -3.437   0.029 -33.209  1.00  0.00     0.020 C 
HETATM   15  C   UNL     1      -4.342  -2.215 -33.967  1.00  0.00     0.137 C 
HETATM   16  C   UNL     1      -5.837  -2.229 -34.398  1.00  0.00     0.049 C 
HETATM   17  O   UNL     1      -4.093  -3.521 -33.451  1.00  0.00    -0.385 OA
HETATM   18  C   UNL     1      -5.642  -3.473 -35.257  1.00  0.00     0.035 C 
HETATM   19  C   UNL     1      -4.865  -4.418 -34.291  1.00  0.00     0.168 C 
ENDBRANCH   8  11
ENDBRANCH   7   8
ENDBRANCH   1   7
BRANCH   2  20
HETATM   20  C   UNL     1      -4.864   3.467 -31.922  1.00  0.00    -0.002 A 
HETATM   21  C   UNL     1      -4.791   4.484 -32.886  1.00  0.00     0.053 A 
HETATM   22  C   UNL     1      -3.568   5.085 -33.183  1.00  0.00     0.103 A 
HETATM   23  C   UNL     1      -2.406   4.657 -32.540  1.00  0.00     0.102 A 
HETATM   24  O   UNL     1      -3.587   6.080 -34.125  1.00  0.00    -0.346 OA
HETATM   25  O   UNL     1      -1.166   5.179 -32.806  1.00  0.00    -0.346 OA
HETATM   26  C   UNL     1      -2.468   3.648 -31.581  1.00  0.00     0.040 A 
HETATM   27  C   UNL     1      -1.161   5.882 -34.057  1.00  0.00     0.202 C 
HETATM   28  C   UNL     1      -2.356   6.815 -34.151  1.00  0.00     0.202 C 
HETATM   29  C   UNL     1      -3.693   3.044 -31.279  1.00  0.00     0.017 A 
ENDBRANCH   2  20
TORSDOF 4
ENDMDL
MODEL 3
REMARK VINA RESULT:      -8.2      2.682      4.611
REMARK  4 active torsions:
REMARK  status: ('A' for Active; 'I' for Inactive)
REMARK    1  A    between atoms: C_9  and  N_10 
REMARK    2  A    between atoms: N_10  and  C_12 
REMARK    3  A    between atoms: C_12  and  C_13 
REMARK    4  A    between atoms: C_14  and  C_15 
ROOT
HETATM    1  C   UNL     1      -6.483   1.363 -31.172  1.00  0.00     0.016 A 
HETATM    2  C   UNL     1      -5.367   1.492 -32.060  1.00  0.00     0.096 A 
HETATM    3  N   UNL     1      -4.780   0.307 -32.265  1.00  0.00    -0.174 NA
HETATM    4  N   UNL     1      -5.496  -0.569 -31.561  1.00  0.00    -0.288 N 
HETATM    5  H   UNL     1      -5.224  -1.549 -31.595  1.00  0.00     0.188 HD
HETATM    6  C   UNL     1      -6.538   0.007 -30.892  1.00  0.00     0.120 A 
ENDROOT
BRANCH   1   7
HETATM    7  C   UNL     1      -7.414   2.444 -30.745  1.00  0.00     0.277 C 
BRANCH   7   8
HETATM    8  N   UNL     1      -8.869   2.183 -31.071  1.00  0.00    -0.065 N 
HETATM    9  H   UNL     1      -9.080   1.217 -30.794  1.00  0.00     0.280 HD
HETATM   10  C   UNL     1      -9.805   3.119 -30.354  1.00  0.00     0.270 C 
BRANCH   8  11
HETATM   11  C   UNL     1      -9.076   2.380 -32.542  1.00  0.00     0.205 C 
HETATM   12  C   UNL     1      -9.391   1.043 -33.391  1.00  0.00     0.008 C 
HETATM   13  C   UNL     1     -10.125  -0.136 -32.749  1.00  0.00     0.020 C 
HETATM   14  C   UNL     1      -8.196   0.546 -34.214  1.00  0.00     0.020 C 
HETATM   15  C   UNL     1     -10.272   2.002 -34.215  1.00  0.00     0.137 C 
HETATM   16  C   UNL     1     -10.550   2.783 -32.898  1.00  0.00     0.049 C 
HETATM   17  O   UNL     1     -11.559   1.757 -34.779  1.00  0.00    -0.385 OA
HETATM   18  C   UNL     1     -11.388   3.830 -33.622  1.00  0.00     0.035 C 
HETATM   19  C   UNL     1     -12.338   2.946 -34.486  1.00  0.00     0.168 C 
ENDBRANCH   8  11
ENDBRANCH   7   8
ENDBRANCH   1   7
BRANCH   2  20
HETATM   20  C   UNL     1      -4.875   2.680 -32.753  1.00  0.00    -0.002 A 
HETATM   21  C   UNL     1      -3.563   3.119 -32.518  1.00  0.00     0.053 A 
HETATM   22  C   UNL     1      -3.068   4.242 -33.179  1.00  0.00     0.103 A 
HETATM   23  C   UNL     1      -3.887   4.952 -34.058  1.00  0.00     0.102 A 
HETATM   24  O   UNL     1      -1.773   4.595 -32.903  1.00  0.00    -0.346 OA
HETATM   25  O   UNL     1      -3.478   6.083 -34.717  1.00  0.00    -0.346 OA
HETATM   26  C   UNL     1      -5.191   4.524 -34.300  1.00  0.00     0.040 A 
HETATM   27  C   UNL     1      -2.314   6.647 -34.096  1.00  0.00     0.202 C 
HETATM   28  C   UNL     1      -1.276   5.570 -33.828  1.00  0.00     0.202 C 
HETATM   29  C   UNL     1      -5.691   3.397 -33.640  1.00  0.00     0.017 A 
ENDBRANCH   2  20
TORSDOF 4
ENDMDL
MODEL 4
REMARK VINA RESULT:      -8.1      1.795      7.725
REMARK  4 active torsions:
REMARK  status: ('A' for Active; 'I' for Inactive)
REMARK    1  A    between atoms: C_9  and  N_10 
REMARK    2  A    between atoms: N_10  and  C_12 
REMARK    3  A    between atoms: C_12  and  C_13 
REMARK    4  A    between atoms: C_14  and  C_15 
ROOT
HETATM    1  C   UNL     1      -6.195   2.224 -32.335  1.00  0.00     0.016 A 
HETATM    2  C   UNL     1      -6.618   0.858 -32.257  1.00  0.00     0.096 A 
HETATM    3  N   UNL     1      -7.778   0.755 -31.598  1.00  0.00    -0.174 NA
HETATM    4  N   UNL     1      -8.115   2.004 -31.275  1.00  0.00    -0.288 N 
HETATM    5  H   UNL     1      -8.989   2.151 -30.776  1.00  0.00     0.188 HD
HETATM    6  C   UNL     1      -7.205   2.929 -31.702  1.00  0.00     0.120 A 
ENDROOT
BRANCH   1   7
HETATM    7  C   UNL     1      -4.985   2.745 -33.031  1.00  0.00     0.277 C 
BRANCH   7   8
HETATM    8  N   UNL     1      -3.951   3.360 -32.114  1.00  0.00    -0.065 N 
HETATM    9  H   UNL     1      -4.435   4.031 -31.505  1.00  0.00     0.280 HD
HETATM   10  C   UNL     1      -3.245   2.339 -31.262  1.00  0.00     0.270 C 
BRANCH   8  11
HETATM   11  C   UNL     1      -2.910   4.042 -32.950  1.00  0.00     0.205 C 
HETATM   12  C   UNL     1      -3.369   5.424 -33.649  1.00  0.00     0.008 C 
HETATM   13  C   UNL     1      -4.415   6.325 -32.989  1.00  0.00     0.020 C 
HETATM   14  C   UNL     1      -3.652   5.286 -35.149  1.00  0.00     0.020 C 
HETATM   15  C   UNL     1      -1.901   5.818 -33.395  1.00  0.00     0.137 C 
HETATM   16  C   UNL     1      -1.954   4.952 -32.102  1.00  0.00     0.049 C 
HETATM   17  O   UNL     1      -1.383   7.079 -32.975  1.00  0.00    -0.385 OA
HETATM   18  C   UNL     1      -0.487   5.221 -31.788  1.00  0.00     0.035 C 
HETATM   19  C   UNL     1      -0.395   6.768 -31.958  1.00  0.00     0.168 C 
ENDBRANCH   8  11
ENDBRANCH   7   8
ENDBRANCH   1   7
BRANCH   2  20
HETATM   20  C   UNL     1      -5.994  -0.333 -32.827  1.00  0.00    -0.002 A 
HETATM   21  C   UNL     1      -6.797  -1.293 -33.460  1.00  0.00     0.053 A 
HETATM   22  C   UNL     1      -6.221  -2.431 -34.024  1.00  0.00     0.103 A 
HETATM   23  C   UNL     1      -4.842  -2.632 -33.935  1.00  0.00     0.102 A 
HETATM   24  O   UNL     1      -7.074  -3.311 -34.635  1.00  0.00    -0.346 OA
HETATM   25  O   UNL     1      -4.213  -3.742 -34.438  1.00  0.00    -0.346 OA
HETATM   26  C   UNL     1      -4.036  -1.684 -33.310  1.00  0.00     0.040 A 
HETATM   27  C   UNL     1      -5.150  -4.803 -34.673  1.00  0.00     0.202 C 
HETATM   28  C   UNL     1      -6.369  -4.284 -35.417  1.00  0.00     0.202 C 
HETATM   29  C   UNL     1      -4.610  -0.540 -32.745  1.00  0.00     0.017 A 
ENDBRANCH   2  20
TORSDOF 4
ENDMDL
MODEL 5
REMARK VINA RESULT:      -8.0      3.266      5.607
REMARK  4 active torsions:
REMARK  status: ('A' for Active; 'I' for Inactive)
REMARK    1  A    between atoms: C_9  and  N_10 
REMARK    2  A    between atoms: N_10  and  C_12 
REMARK    3  A    between atoms: C_12  and  C_13 
REMARK    4  A    between atoms: C_14  and  C_15 
ROOT
HETATM    1  C   UNL     1      -5.786   3.400 -32.924  1.00  0.00     0.016 A 
HETATM    2  C   UNL     1      -6.957   4.109 -33.346  1.00  0.00     0.096 A 
HETATM    3  N   UNL     1      -6.626   5.237 -33.985  1.00  0.00    -0.174 NA
HETATM    4  N   UNL     1      -5.294   5.258 -34.002  1.00  0.00    -0.288 N 
HETATM    5  H   UNL     1      -4.831   6.037 -34.466  1.00  0.00     0.188 HD
HETATM    6  C   UNL     1      -4.734   4.173 -33.388  1.00  0.00     0.120 A 
ENDROOT
BRANCH   1   7
HETATM    7  C   UNL     1      -5.743   2.083 -32.230  1.00  0.00     0.277 C 
BRANCH   7   8
HETATM    8  N   UNL     1      -5.014   0.997 -32.992  1.00  0.00    -0.065 N 
HETATM    9  H   UNL     1      -4.903   1.320 -33.961  1.00  0.00     0.280 HD
HETATM   10  C   UNL     1      -3.659   0.688 -32.416  1.00  0.00     0.270 C 
BRANCH   8  11
HETATM   11  C   UNL     1      -5.825  -0.262 -32.932  1.00  0.00     0.205 C 
HETATM   12  C   UNL     1      -7.121  -0.307 -33.896  1.00  0.00     0.008 C 
HETATM   13  C   UNL     1      -7.134   0.452 -35.224  1.00  0.00     0.020 C 
HETATM   14  C   UNL     1      -8.445  -0.105 -33.150  1.00  0.00     0.020 C 
HETATM   15  C   UNL     1      -6.760  -1.803 -33.992  1.00  0.00     0.137 C 
HETATM   16  C   UNL     1      -5.264  -1.389 -33.867  1.00  0.00     0.049 C 
HETATM   17  O   UNL     1      -6.815  -2.654 -35.134  1.00  0.00    -0.385 OA
HETATM   18  C   UNL     1      -4.798  -2.840 -33.885  1.00  0.00     0.035 C 
HETATM   19  C   UNL     1      -5.582  -3.420 -35.101  1.00  0.00     0.168 C 
ENDBRANCH   8  11
ENDBRANCH   7   8
ENDBRANCH   1   7
BRANCH   2  20
HETATM   20  C   UNL     1      -8.360   3.730 -33.212  1.00  0.00    -0.002 A 
HETATM   21  C   UNL     1      -9.170   3.676 -34.357  1.00  0.00     0.053 A 
HETATM   22  C   UNL     1     -10.509   3.303 -34.255  1.00  0.00     0.103 A 
HETATM   23  C   UNL     1     -11.057   3.007 -33.006  1.00  0.00     0.102 A 
HETATM   24  O   UNL     1     -11.225   3.263 -35.422  1.00  0.00    -0.346 OA
HETATM   25  O   UNL     1     -12.374   2.665 -32.828  1.00  0.00    -0.346 OA
HETATM   26  C   UNL     1     -10.262   3.055 -31.864  1.00  0.00     0.040 A 
HETATM   27  C   UNL     1     -13.162   3.043 -33.965  1.00  0.00     0.202 C 
HETATM   28  C   UNL     1     -12.487   2.605 -35.254  1.00  0.00     0.202 C 
HETATM   29  C   UNL     1      -8.918   3.428 -31.962  1.00  0.00     0.017 A 
ENDBRANCH   2  20
TORSDOF 4
ENDMDL
MODEL 6
REMARK VINA RESULT:      -7.8      1.942      6.833
REMARK  4 active torsions:
REMARK  status: ('A' for Active; 'I' for Inactive)
REMARK    1  A    between atoms: C_9  and  N_10 
REMARK    2  A    between atoms: N_10  and  C_12 
REMARK    3  A    between atoms: C_12  and  C_13 
REMARK    4  A    between atoms: C_14  and  C_15 
ROOT
HETATM    1  C   UNL     1      -7.868   2.679 -31.450  1.00  0.00     0.016 A 
HETATM    2  C   UNL     1      -7.821   1.253 -31.579  1.00  0.00     0.096 A 
HETATM    3  N   UNL     1      -9.052   0.730 -31.548  1.00  0.00    -0.174 NA
HETATM    4  N   UNL     1      -9.877   1.771 -31.428  1.00  0.00    -0.288 N 
HETATM    5  H   UNL     1     -10.878   1.590 -31.404  1.00  0.00     0.188 HD
HETATM    6  C   UNL     1      -9.221   2.968 -31.374  1.00  0.00     0.120 A 
ENDROOT
BRANCH   1   7
HETATM    7  C   UNL     1      -6.713   3.617 -31.490  1.00  0.00     0.277 C 
BRANCH   7   8
HETATM    8  N   UNL     1      -5.886   3.539 -32.755  1.00  0.00    -0.065 N 
HETATM    9  H   UNL     1      -5.381   2.645 -32.740  1.00  0.00     0.280 HD
HETATM   10  C   UNL     1      -6.722   3.614 -34.005  1.00  0.00     0.270 C 
BRANCH   8  11
HETATM   11  C   UNL     1      -4.934   4.697 -32.781  1.00  0.00     0.205 C 
HETATM   12  C   UNL     1      -3.664   4.582 -31.791  1.00  0.00     0.008 C 
HETATM   13  C   UNL     1      -3.071   3.218 -31.435  1.00  0.00     0.020 C 
HETATM   14  C   UNL     1      -3.785   5.457 -30.538  1.00  0.00     0.020 C 
HETATM   15  C   UNL     1      -2.950   5.338 -32.929  1.00  0.00     0.137 C 
HETATM   16  C   UNL     1      -3.872   4.582 -33.930  1.00  0.00     0.049 C 
HETATM   17  O   UNL     1      -1.627   5.145 -33.425  1.00  0.00    -0.385 OA
HETATM   18  C   UNL     1      -3.283   5.320 -35.125  1.00  0.00     0.035 C 
HETATM   19  C   UNL     1      -1.751   5.184 -34.871  1.00  0.00     0.168 C 
ENDBRANCH   8  11
ENDBRANCH   7   8
ENDBRANCH   1   7
BRANCH   2  20
HETATM   20  C   UNL     1      -6.664   0.386 -31.781  1.00  0.00    -0.002 A 
HETATM   21  C   UNL     1      -6.671  -0.534 -32.841  1.00  0.00     0.053 A 
HETATM   22  C   UNL     1      -5.572  -1.362 -33.062  1.00  0.00     0.103 A 
HETATM   23  C   UNL     1      -4.468  -1.298 -32.209  1.00  0.00     0.102 A 
HETATM   24  O   UNL     1      -5.654  -2.220 -34.126  1.00  0.00    -0.346 OA
HETATM   25  O   UNL     1      -3.368  -2.105 -32.347  1.00  0.00    -0.346 OA
HETATM   26  C   UNL     1      -4.450  -0.388 -31.155  1.00  0.00     0.040 A 
HETATM   27  C   UNL     1      -3.662  -3.242 -33.170  1.00  0.00     0.202 C 
HETATM   28  C   UNL     1      -4.386  -2.813 -34.435  1.00  0.00     0.202 C 
HETATM   29  C   UNL     1      -5.550   0.445 -30.931  1.00  0.00     0.017 A 
ENDBRANCH   2  20
TORSDOF 4
ENDMDL
MODEL 7
REMARK VINA RESULT:      -7.7      3.758      6.996
REMARK  4 active torsions:
REMARK  status: ('A' for Active; 'I' for Inactive)
REMARK    1  A    between atoms: C_9  and  N_10 
REMARK    2  A    between atoms: N_10  and  C_12 
REMARK    3  A    between atoms: C_12  and  C_13 
REMARK    4  A    between atoms: C_14  and  C_15 
ROOT
HETATM    1  C   UNL     1      -4.979   1.653 -31.014  1.00  0.00     0.016 A 
HETATM    2  C   UNL     1      -4.037   1.013 -31.883  1.00  0.00     0.096 A 
HETATM    3  N   UNL     1      -3.077   1.866 -32.257  1.00  0.00    -0.174 NA
HETATM    4  N   UNL     1      -3.362   3.013 -31.642  1.00  0.00    -0.288 N 
HETATM    5  H   UNL     1      -2.734   3.802 -31.780  1.00  0.00     0.188 HD
HETATM    6  C   UNL     1      -4.489   2.941 -30.873  1.00  0.00     0.120 A 
ENDROOT
BRANCH   1   7
HETATM    7  C   UNL     1      -6.154   1.021 -30.351  1.00  0.00     0.277 C 
BRANCH   7   8
HETATM    8  N   UNL     1      -7.490   1.597 -30.765  1.00  0.00    -0.065 N 
HETATM    9  H   UNL     1      -8.217   0.931 -30.477  1.00  0.00     0.280 HD
HETATM   10  C   UNL     1      -7.769   2.936 -30.138  1.00  0.00     0.270 C 
BRANCH   8  11
HETATM   11  C   UNL     1      -7.493   1.790 -32.252  1.00  0.00     0.205 C 
HETATM   12  C   UNL     1      -8.626   0.972 -33.063  1.00  0.00     0.008 C 
HETATM   13  C   UNL     1      -9.973   0.651 -32.412  1.00  0.00     0.020 C 
HETATM   14  C   UNL     1      -8.083  -0.255 -33.803  1.00  0.00     0.020 C 
HETATM   15  C   UNL     1      -8.608   2.220 -33.967  1.00  0.00     0.137 C 
HETATM   16  C   UNL     1      -8.292   3.064 -32.697  1.00  0.00     0.049 C 
HETATM   17  O   UNL     1      -9.711   2.881 -34.585  1.00  0.00    -0.385 OA
HETATM   18  C   UNL     1      -8.185   4.352 -33.504  1.00  0.00     0.035 C 
HETATM   19  C   UNL     1      -9.474   4.297 -34.379  1.00  0.00     0.168 C 
ENDBRANCH   8  11
ENDBRANCH   7   8
ENDBRANCH   1   7
BRANCH   2  20
HETATM   20  C   UNL     1      -3.989  -0.379 -32.321  1.00  0.00    -0.002 A 
HETATM   21  C   UNL     1      -4.801  -0.791 -33.389  1.00  0.00     0.053 A 
HETATM   22  C   UNL     1      -4.761  -2.112 -33.835  1.00  0.00     0.103 A 
HETATM   23  C   UNL     1      -3.931  -3.037 -33.200  1.00  0.00     0.102 A 
HETATM   24  O   UNL     1      -5.574  -2.428 -34.891  1.00  0.00    -0.346 OA
HETATM   25  O   UNL     1      -3.865  -4.358 -33.564  1.00  0.00    -0.346 OA
HETATM   26  C   UNL     1      -3.119  -2.638 -32.141  1.00  0.00     0.040 A 
HETATM   27  C   UNL     1      -5.004  -4.732 -34.351  1.00  0.00     0.202 C 
HETATM   28  C   UNL     1      -5.256  -3.710 -35.447  1.00  0.00     0.202 C 
HETATM   29  C   UNL     1      -3.155  -1.314 -31.692  1.00  0.00     0.017 A 
ENDBRANCH   2  20
TORSDOF 4
ENDMDL
MODEL 8
REMARK VINA RESULT:      -7.6      1.803      6.887
REMARK  4 active torsions:
REMARK  status: ('A' for Active; 'I' for Inactive)
REMARK    1  A    between atoms: C_9  and  N_10 
REMARK    2  A    between atoms: N_10  and  C_12 
REMARK    3  A    between atoms: C_12  and  C_13 
REMARK    4  A    between atoms: C_14  and  C_15 
ROOT
HETATM    1  C   UNL     1      -8.158   2.714 -32.551  1.00  0.00     0.016 A 
HETATM    2  C   UNL     1      -8.105   1.319 -32.231  1.00  0.00     0.096 A 
HETATM    3  N   UNL     1      -8.896   1.039 -31.188  1.00  0.00    -0.174 NA
HETATM    4  N   UNL     1      -9.463   2.197 -30.852  1.00  0.00    -0.288 N 
HETATM    5  H   UNL     1     -10.126   2.200 -30.079  1.00  0.00     0.188 HD
HETATM    6  C   UNL     1      -9.065   3.237 -31.643  1.00  0.00     0.120 A 
ENDROOT
BRANCH   1   7
HETATM    7  C   UNL     1      -7.460   3.399 -33.674  1.00  0.00     0.277 C 
BRANCH   7   8
HETATM    8  N   UNL     1      -5.965   3.540 -33.489  1.00  0.00    -0.065 N 
HETATM    9  H   UNL     1      -5.564   2.594 -33.479  1.00  0.00     0.280 HD
HETATM   10  C   UNL     1      -5.314   4.342 -34.584  1.00  0.00     0.270 C 
BRANCH   8  11
HETATM   11  C   UNL     1      -5.704   4.251 -32.196  1.00  0.00     0.205 C 
HETATM   12  C   UNL     1      -4.674   3.520 -31.189  1.00  0.00     0.008 C 
HETATM   13  C   UNL     1      -3.541   2.646 -31.730  1.00  0.00     0.020 C 
HETATM   14  C   UNL     1      -5.362   2.832 -30.004  1.00  0.00     0.020 C 
HETATM   15  C   UNL     1      -4.284   4.969 -30.840  1.00  0.00     0.137 C 
HETATM   16  C   UNL     1      -4.587   5.345 -32.320  1.00  0.00     0.049 C 
HETATM   17  O   UNL     1      -2.985   5.498 -30.583  1.00  0.00    -0.385 OA
HETATM   18  C   UNL     1      -4.289   6.818 -32.072  1.00  0.00     0.035 C 
HETATM   19  C   UNL     1      -2.931   6.753 -31.310  1.00  0.00     0.168 C 
ENDBRANCH   8  11
ENDBRANCH   7   8
ENDBRANCH   1   7
BRANCH   2  20
HETATM   20  C   UNL     1      -7.379   0.247 -32.906  1.00  0.00    -0.002 A 
HETATM   21  C   UNL     1      -6.164  -0.204 -32.368  1.00  0.00     0.053 A 
HETATM   22  C   UNL     1      -5.460  -1.236 -32.987  1.00  0.00     0.103 A 
HETATM   23  C   UNL     1      -5.950  -1.806 -34.163  1.00  0.00     0.102 A 
HETATM   24  O   UNL     1      -4.290  -1.625 -32.390  1.00  0.00    -0.346 OA
HETATM   25  O   UNL     1      -5.294  -2.801 -34.843  1.00  0.00    -0.346 OA
HETATM   26  C   UNL     1      -7.156  -1.367 -34.704  1.00  0.00     0.040 A 
HETATM   27  C   UNL     1      -3.918  -2.876 -34.445  1.00  0.00     0.202 C 
HETATM   28  C   UNL     1      -3.798  -2.858 -32.930  1.00  0.00     0.202 C 
HETATM   29  C   UNL     1      -7.865  -0.334 -34.085  1.00  0.00     0.017 A 
ENDBRANCH   2  20
TORSDOF 4
ENDMDL
MODEL 9
REMARK VINA RESULT:      -7.6      4.117      7.472
REMARK  4 active torsions:
REMARK  status: ('A' for Active; 'I' for Inactive)
REMARK    1  A    between atoms: C_9  and  N_10 
REMARK    2  A    between atoms: N_10  and  C_12 
REMARK    3  A    between atoms: C_12  and  C_13 
REMARK    4  A    between atoms: C_14  and  C_15 
ROOT
HETATM    1  C   UNL     1      -7.298   1.708 -33.980  1.00  0.00     0.016 A 
HETATM    2  C   UNL     1      -6.076   1.040 -33.647  1.00  0.00     0.096 A 
HETATM    3  N   UNL     1      -5.232   1.872 -33.026  1.00  0.00    -0.174 NA
HETATM    4  N   UNL     1      -5.880   3.032 -32.934  1.00  0.00    -0.288 N 
HETATM    5  H   UNL     1      -5.413   3.808 -32.471  1.00  0.00     0.188 HD
HETATM    6  C   UNL     1      -7.131   2.990 -33.482  1.00  0.00     0.120 A 
ENDROOT
BRANCH   1   7
HETATM    7  C   UNL     1      -8.497   1.106 -34.628  1.00  0.00     0.277 C 
BRANCH   7   8
HETATM    8  N   UNL     1      -9.703   0.985 -33.724  1.00  0.00    -0.065 N 
HETATM    9  H   UNL     1     -10.221   0.144 -34.008  1.00  0.00     0.280 HD
HETATM   10  C   UNL     1      -9.335   0.872 -32.269  1.00  0.00     0.270 C 
BRANCH   8  11
HETATM   11  C   UNL     1     -10.547   2.215 -33.878  1.00  0.00     0.205 C 
HETATM   12  C   UNL     1     -12.102   1.959 -34.233  1.00  0.00     0.008 C 
HETATM   13  C   UNL     1     -12.816   0.697 -33.747  1.00  0.00     0.020 C 
HETATM   14  C   UNL     1     -12.448   2.240 -35.699  1.00  0.00     0.020 C 
HETATM   15  C   UNL     1     -12.309   3.214 -33.363  1.00  0.00     0.137 C 
HETATM   16  C   UNL     1     -11.092   2.751 -32.509  1.00  0.00     0.049 C 
HETATM   17  O   UNL     1     -13.346   3.474 -32.419  1.00  0.00    -0.385 OA
HETATM   18  C   UNL     1     -11.163   3.990 -31.625  1.00  0.00     0.035 C 
HETATM   19  C   UNL     1     -12.679   4.048 -31.265  1.00  0.00     0.168 C 
ENDBRANCH   8  11
ENDBRANCH   7   8
ENDBRANCH   1   7
BRANCH   2  20
HETATM   20  C   UNL     1      -5.708  -0.359 -33.847  1.00  0.00    -0.002 A 
HETATM   21  C   UNL     1      -4.675  -0.915 -33.077  1.00  0.00     0.053 A 
HETATM   22  C   UNL     1      -4.316  -2.252 -33.242  1.00  0.00     0.103 A 
HETATM   23  C   UNL     1      -4.967  -3.037 -34.195  1.00  0.00     0.102 A 
HETATM   24  O   UNL     1      -3.308  -2.719 -32.440  1.00  0.00    -0.346 OA
HETATM   25  O   UNL     1      -4.643  -4.348 -34.433  1.00  0.00    -0.346 OA
HETATM   26  C   UNL     1      -5.994  -2.495 -34.964  1.00  0.00     0.040 A 
HETATM   27  C   UNL     1      -3.347  -4.663 -33.906  1.00  0.00     0.202 C 
HETATM   28  C   UNL     1      -3.210  -4.149 -32.483  1.00  0.00     0.202 C 
HETATM   29  C   UNL     1      -6.358  -1.155 -34.801  1.00  0.00     0.017 A 
ENDBRANCH   2  20
TORSDOF 4
ENDMDL
MODEL 10
REMARK VINA RESULT:      -7.6      4.445      6.000
REMARK  4 active torsions:
REMARK  status: ('A' for Active; 'I' for Inactive)
REMARK    1  A    between atoms: C_9  and  N_10 
REMARK    2  A    between atoms: N_10  and  C_12 
REMARK    3  A    between atoms: C_12  and  C_13 
REMARK    4  A    between atoms: C_14  and  C_15 
ROOT
HETATM    1  C   UNL     1      -6.900   1.990 -31.434  1.00  0.00     0.016 A 
HETATM    2  C   UNL     1      -8.080   2.801 -31.387  1.00  0.00     0.096 A 
HETATM    3  N   UNL     1      -8.303   3.247 -30.145  1.00  0.00    -0.174 NA
HETATM    4  N   UNL     1      -7.299   2.768 -29.411  1.00  0.00    -0.288 N 
HETATM    5  H   UNL     1      -7.270   3.010 -28.423  1.00  0.00     0.188 HD
HETATM    6  C   UNL     1      -6.419   2.015 -30.135  1.00  0.00     0.120 A 
ENDROOT
BRANCH   1   7
HETATM    7  C   UNL     1      -6.298   1.359 -32.641  1.00  0.00     0.277 C 
BRANCH   7   8
HETATM    8  N   UNL     1      -6.650  -0.101 -32.826  1.00  0.00    -0.065 N 
HETATM    9  H   UNL     1      -6.621  -0.546 -31.900  1.00  0.00     0.280 HD
HETATM   10  C   UNL     1      -8.013  -0.302 -33.430  1.00  0.00     0.270 C 
BRANCH   8  11
HETATM   11  C   UNL     1      -5.651  -0.723 -33.755  1.00  0.00     0.205 C 
HETATM   12  C   UNL     1      -4.245  -1.154 -33.086  1.00  0.00     0.008 C 
HETATM   13  C   UNL     1      -4.177  -1.585 -31.620  1.00  0.00     0.020 C 
HETATM   14  C   UNL     1      -3.093  -0.199 -33.417  1.00  0.00     0.020 C 
HETATM   15  C   UNL     1      -4.328  -2.302 -34.111  1.00  0.00     0.137 C 
HETATM   16  C   UNL     1      -5.875  -2.265 -33.940  1.00  0.00     0.049 C 
HETATM   17  O   UNL     1      -3.969  -3.671 -33.936  1.00  0.00    -0.385 OA
HETATM   18  C   UNL     1      -6.079  -3.351 -34.989  1.00  0.00     0.035 C 
HETATM   19  C   UNL     1      -5.045  -4.430 -34.547  1.00  0.00     0.168 C 
ENDBRANCH   8  11
ENDBRANCH   7   8
ENDBRANCH   1   7
BRANCH   2  20
HETATM   20  C   UNL     1      -8.963   3.205 -32.478  1.00  0.00    -0.002 A 
HETATM   21  C   UNL     1     -10.140   2.479 -32.713  1.00  0.00     0.053 A 
HETATM   22  C   UNL     1     -11.005   2.855 -33.740  1.00  0.00     0.103 A 
HETATM   23  C   UNL     1     -10.687   3.941 -34.557  1.00  0.00     0.102 A 
HETATM   24  O   UNL     1     -12.139   2.102 -33.893  1.00  0.00    -0.346 OA
HETATM   25  O   UNL     1     -11.474   4.346 -35.604  1.00  0.00    -0.346 OA
HETATM   26  C   UNL     1      -9.522   4.670 -34.331  1.00  0.00     0.040 A 
HETATM   27  C   UNL     1     -12.390   3.312 -35.991  1.00  0.00     0.202 C 
HETATM   28  C   UNL     1     -13.083   2.729 -34.771  1.00  0.00     0.202 C 
HETATM   29  C   UNL     1      -8.653   4.296 -33.301  1.00  0.00     0.017 A 
ENDBRANCH   2  20
TORSDOF 4
ENDMDL
