MODEL 1
REMARK VINA RESULT:      -9.4      0.000      0.000
REMARK  8 active torsions:
REMARK  status: ('A' for Active; 'I' for Inactive)
REMARK    1  A    between atoms: C_6  and  N_7 
REMARK       I    between atoms: N_7  and  C_8 
REMARK    2  A    between atoms: C_8  and  C_9 
REMARK    3  A    between atoms: C_9  and  N_10 
REMARK       I    between atoms: N_10  and  C_11 
REMARK    4  A    between atoms: C_11  and  C_12 
REMARK    5  A    between atoms: C_12  and  S_13 
REMARK    6  A    between atoms: S_13  and  C_14 
REMARK    7  A    between atoms: C_16  and  C_17 
REMARK    8  A    between atoms: C_20  and  O_21 
ROOT
HETATM    1  N   UNL     1      -4.658   3.869 -33.408  1.00  0.00    -0.352 N 
HETATM    2  C   UNL     1      -4.752   5.085 -34.035  1.00  0.00     0.227 C 
HETATM    3  O   UNL     1      -5.586   5.925 -33.697  1.00  0.00    -0.273 OA
HETATM    4  H   UNL     1      -3.882   3.258 -33.659  1.00  0.00     0.162 HD
ENDROOT
BRANCH   2   5
HETATM    5  C   UNL     1      -3.794   5.300 -35.198  1.00  0.00     0.185 C 
BRANCH   5   6
HETATM    6  S   UNL     1      -2.068   4.920 -34.760  1.00  0.00    -0.081 SA
BRANCH   6   7
HETATM    7  C   UNL     1      -1.723   6.162 -33.623  1.00  0.00     0.185 A 
HETATM    8  N   UNL     1      -1.301   6.016 -32.394  1.00  0.00    -0.201 NA
HETATM    9  C   UNL     1      -1.250   7.312 -31.916  1.00  0.00     0.182 A 
HETATM   10  N   UNL     1      -1.616   8.237 -32.822  1.00  0.00    -0.152 NA
HETATM   11  N   UNL     1      -1.919   7.478 -33.891  1.00  0.00    -0.253 N 
HETATM   12  H   UNL     1      -2.253   7.911 -34.744  1.00  0.00     0.191 HD
BRANCH   9  13
HETATM   13  C   UNL     1      -0.866   7.598 -30.537  1.00  0.00     0.014 A 
HETATM   14  C   UNL     1       0.285   7.013 -29.992  1.00  0.00     0.018 A 
HETATM   15  C   UNL     1       0.647   7.253 -28.663  1.00  0.00     0.037 A 
HETATM   16  C   UNL     1      -0.131   8.082 -27.855  1.00  0.00     0.068 A 
HETATM   17  C   UNL     1      -1.273   8.679 -28.390  1.00  0.00     0.037 A 
HETATM   18  C   UNL     1      -1.638   8.437 -29.722  1.00  0.00     0.018 A 
BRANCH  16  19
HETATM   19  O   UNL     1       0.333   8.225 -26.577  1.00  0.00    -0.356 OA
HETATM   20  C   UNL     1       1.654   7.770 -26.316  1.00  0.00     0.210 C 
ENDBRANCH  16  19
ENDBRANCH   9  13
ENDBRANCH   6   7
ENDBRANCH   5   6
ENDBRANCH   2   5
BRANCH   1  21
HETATM   21  C   UNL     1      -5.498   3.468 -32.297  1.00  0.00     0.225 C 
BRANCH  21  22
HETATM   22  C   UNL     1      -5.974   2.012 -32.392  1.00  0.00     0.239 C 
HETATM   23  N   UNL     1      -5.689   1.436 -33.621  1.00  0.00    -0.325 N 
HETATM   24  H   UNL     1      -5.030   1.969 -34.189  1.00  0.00     0.169 HD
HETATM   25  O   UNL     1      -6.434   1.434 -31.409  1.00  0.00    -0.271 OA
BRANCH  23  26
HETATM   26  C   UNL     1      -5.810   0.060 -33.912  1.00  0.00     0.046 A 
HETATM   27  C   UNL     1      -4.776  -0.862 -33.655  1.00  0.00    -0.034 A 
HETATM   28  C   UNL     1      -4.962  -2.214 -34.002  1.00  0.00     0.015 A 
HETATM   29  C   UNL     1      -3.482  -0.499 -32.976  1.00  0.00     0.050 C 
HETATM   30  C   UNL     1      -6.162  -2.666 -34.556  1.00  0.00    -0.061 A 
HETATM   31  C   UNL     1      -6.358  -4.113 -34.897  1.00  0.00     0.048 C 
HETATM   32  C   UNL     1      -7.203  -1.755 -34.746  1.00  0.00     0.015 A 
HETATM   33  C   UNL     1      -7.043  -0.395 -34.431  1.00  0.00    -0.034 A 
HETATM   34  C   UNL     1      -8.189   0.542 -34.707  1.00  0.00     0.050 C 
ENDBRANCH  23  26
ENDBRANCH  21  22
ENDBRANCH   1  21
TORSDOF 8
ENDMDL
MODEL 2
REMARK VINA RESULT:      -9.3      0.278      1.589
REMARK  8 active torsions:
REMARK  status: ('A' for Active; 'I' for Inactive)
REMARK    1  A    between atoms: C_6  and  N_7 
REMARK       I    between atoms: N_7  and  C_8 
REMARK    2  A    between atoms: C_8  and  C_9 
REMARK    3  A    between atoms: C_9  and  N_10 
REMARK       I    between atoms: N_10  and  C_11 
REMARK    4  A    between atoms: C_11  and  C_12 
REMARK    5  A    between atoms: C_12  and  S_13 
REMARK    6  A    between atoms: S_13  and  C_14 
REMARK    7  A    between atoms: C_16  and  C_17 
REMARK    8  A    between atoms: C_20  and  O_21 
ROOT
HETATM    1  N   UNL     1      -4.501   3.726 -33.125  1.00  0.00    -0.352 N 
HETATM    2  C   UNL     1      -4.806   4.880 -33.798  1.00  0.00     0.227 C 
HETATM    3  O   UNL     1      -5.767   5.580 -33.480  1.00  0.00    -0.273 OA
HETATM    4  H   UNL     1      -3.634   3.245 -33.364  1.00  0.00     0.162 HD
ENDROOT
BRANCH   2   5
HETATM    5  C   UNL     1      -3.910   5.205 -34.985  1.00  0.00     0.185 C 
BRANCH   5   6
HETATM    6  S   UNL     1      -2.151   4.883 -34.640  1.00  0.00    -0.081 SA
BRANCH   6   7
HETATM    7  C   UNL     1      -1.782   6.147 -33.537  1.00  0.00     0.185 A 
HETATM    8  N   UNL     1      -1.326   6.025 -32.317  1.00  0.00    -0.201 NA
HETATM    9  C   UNL     1      -1.268   7.330 -31.864  1.00  0.00     0.182 A 
HETATM   10  N   UNL     1      -1.665   8.236 -32.776  1.00  0.00    -0.152 NA
HETATM   11  N   UNL     1      -1.994   7.457 -33.823  1.00  0.00    -0.253 N 
HETATM   12  H   UNL     1      -2.353   7.873 -34.673  1.00  0.00     0.191 HD
BRANCH   9  13
HETATM   13  C   UNL     1      -0.847   7.643 -30.501  1.00  0.00     0.014 A 
HETATM   14  C   UNL     1       0.331   7.088 -29.985  1.00  0.00     0.018 A 
HETATM   15  C   UNL     1       0.729   7.354 -28.672  1.00  0.00     0.037 A 
HETATM   16  C   UNL     1      -0.040   8.180 -27.851  1.00  0.00     0.068 A 
HETATM   17  C   UNL     1      -1.209   8.746 -28.359  1.00  0.00     0.037 A 
HETATM   18  C   UNL     1      -1.610   8.479 -29.675  1.00  0.00     0.018 A 
BRANCH  16  19
HETATM   19  O   UNL     1       0.461   8.350 -26.590  1.00  0.00    -0.356 OA
HETATM   20  C   UNL     1       1.853   8.617 -26.479  1.00  0.00     0.210 C 
ENDBRANCH  16  19
ENDBRANCH   9  13
ENDBRANCH   6   7
ENDBRANCH   5   6
ENDBRANCH   2   5
BRANCH   1  21
HETATM   21  C   UNL     1      -5.248   3.235 -31.984  1.00  0.00     0.225 C 
BRANCH  21  22
HETATM   22  C   UNL     1      -5.793   1.814 -32.182  1.00  0.00     0.239 C 
HETATM   23  N   UNL     1      -5.514   1.306 -33.442  1.00  0.00    -0.325 N 
HETATM   24  H   UNL     1      -4.820   1.841 -33.964  1.00  0.00     0.169 HD
HETATM   25  O   UNL     1      -6.298   1.197 -31.247  1.00  0.00    -0.271 OA
BRANCH  23  26
HETATM   26  C   UNL     1      -5.696  -0.040 -33.825  1.00  0.00     0.046 A 
HETATM   27  C   UNL     1      -6.864  -0.494 -34.469  1.00  0.00    -0.034 A 
HETATM   28  C   UNL     1      -6.983  -1.859 -34.790  1.00  0.00     0.015 A 
HETATM   29  C   UNL     1      -7.992   0.411 -34.888  1.00  0.00     0.050 C 
HETATM   30  C   UNL     1      -5.953  -2.764 -34.522  1.00  0.00    -0.061 A 
HETATM   31  C   UNL     1      -6.081  -4.211 -34.894  1.00  0.00     0.048 C 
HETATM   32  C   UNL     1      -4.774  -2.291 -33.943  1.00  0.00     0.015 A 
HETATM   33  C   UNL     1      -4.631  -0.939 -33.589  1.00  0.00    -0.034 A 
HETATM   34  C   UNL     1      -3.352  -0.506 -32.923  1.00  0.00     0.050 C 
ENDBRANCH  23  26
ENDBRANCH  21  22
ENDBRANCH   1  21
TORSDOF 8
ENDMDL
MODEL 3
REMARK VINA RESULT:      -9.3      1.758      2.664
REMARK  8 active torsions:
REMARK  status: ('A' for Active; 'I' for Inactive)
REMARK    1  A    between atoms: C_6  and  N_7 
REMARK       I    between atoms: N_7  and  C_8 
REMARK    2  A    between atoms: C_8  and  C_9 
REMARK    3  A    between atoms: C_9  and  N_10 
REMARK       I    between atoms: N_10  and  C_11 
REMARK    4  A    between atoms: C_11  and  C_12 
REMARK    5  A    between atoms: C_12  and  S_13 
REMARK    6  A    between atoms: S_13  and  C_14 
REMARK    7  A    between atoms: C_16  and  C_17 
REMARK    8  A    between atoms: C_20  and  O_21 
ROOT
HETATM    1  N   UNL     1      -4.567   3.466 -32.357  1.00  0.00    -0.352 N 
HETATM    2  C   UNL     1      -3.201   3.556 -32.267  1.00  0.00     0.227 C 
HETATM    3  O   UNL     1      -2.584   3.085 -31.311  1.00  0.00    -0.273 OA
HETATM    4  H   UNL     1      -5.011   3.778 -33.220  1.00  0.00     0.162 HD
ENDROOT
BRANCH   2   5
HETATM    5  C   UNL     1      -2.516   4.312 -33.396  1.00  0.00     0.185 C 
BRANCH   5   6
HETATM    6  S   UNL     1      -2.276   6.075 -33.010  1.00  0.00    -0.081 SA
BRANCH   6   7
HETATM    7  C   UNL     1      -1.162   5.991 -31.704  1.00  0.00     0.185 A 
HETATM    8  N   UNL     1      -1.134   6.747 -30.637  1.00  0.00    -0.201 NA
HETATM    9  C   UNL     1      -0.017   6.300 -29.956  1.00  0.00     0.182 A 
HETATM   10  N   UNL     1       0.623   5.291 -30.573  1.00  0.00    -0.152 NA
HETATM   11  N   UNL     1      -0.120   5.122 -31.682  1.00  0.00    -0.253 N 
HETATM   12  H   UNL     1       0.139   4.421 -32.367  1.00  0.00     0.191 HD
BRANCH   9  13
HETATM   13  C   UNL     1       0.412   6.923 -28.707  1.00  0.00     0.014 A 
HETATM   14  C   UNL     1       0.056   6.352 -27.478  1.00  0.00     0.018 A 
HETATM   15  C   UNL     1       0.432   6.956 -26.275  1.00  0.00     0.037 A 
HETATM   16  C   UNL     1       1.172   8.139 -26.276  1.00  0.00     0.068 A 
HETATM   17  C   UNL     1       1.541   8.710 -27.494  1.00  0.00     0.037 A 
HETATM   18  C   UNL     1       1.162   8.106 -28.701  1.00  0.00     0.018 A 
BRANCH  16  19
HETATM   19  O   UNL     1       1.466   8.624 -25.032  1.00  0.00    -0.356 OA
HETATM   20  C   UNL     1       0.736   9.764 -24.595  1.00  0.00     0.210 C 
ENDBRANCH  16  19
ENDBRANCH   9  13
ENDBRANCH   6   7
ENDBRANCH   5   6
ENDBRANCH   2   5
BRANCH   1  21
HETATM   21  C   UNL     1      -5.399   2.807 -31.371  1.00  0.00     0.225 C 
BRANCH  21  22
HETATM   22  C   UNL     1      -5.988   1.479 -31.866  1.00  0.00     0.239 C 
HETATM   23  N   UNL     1      -5.433   1.063 -33.067  1.00  0.00    -0.325 N 
HETATM   24  H   UNL     1      -4.586   1.565 -33.332  1.00  0.00     0.169 HD
HETATM   25  O   UNL     1      -6.769   0.837 -31.167  1.00  0.00    -0.271 OA
BRANCH  23  26
HETATM   26  C   UNL     1      -5.619  -0.214 -33.639  1.00  0.00     0.046 A 
HETATM   27  C   UNL     1      -6.728  -0.526 -34.451  1.00  0.00    -0.034 A 
HETATM   28  C   UNL     1      -6.858  -1.832 -34.959  1.00  0.00     0.015 A 
HETATM   29  C   UNL     1      -7.775   0.477 -34.857  1.00  0.00     0.050 C 
HETATM   30  C   UNL     1      -5.894  -2.811 -34.711  1.00  0.00    -0.061 A 
HETATM   31  C   UNL     1      -6.030  -4.192 -35.280  1.00  0.00     0.048 C 
HETATM   32  C   UNL     1      -4.766  -2.472 -33.960  1.00  0.00     0.015 A 
HETATM   33  C   UNL     1      -4.616  -1.184 -33.419  1.00  0.00    -0.034 A 
HETATM   34  C   UNL     1      -3.399  -0.900 -32.577  1.00  0.00     0.050 C 
ENDBRANCH  23  26
ENDBRANCH  21  22
ENDBRANCH   1  21
TORSDOF 8
ENDMDL
MODEL 4
REMARK VINA RESULT:      -8.9      2.406     10.241
REMARK  8 active torsions:
REMARK  status: ('A' for Active; 'I' for Inactive)
REMARK    1  A    between atoms: C_6  and  N_7 
REMARK       I    between atoms: N_7  and  C_8 
REMARK    2  A    between atoms: C_8  and  C_9 
REMARK    3  A    between atoms: C_9  and  N_10 
REMARK       I    between atoms: N_10  and  C_11 
REMARK    4  A    between atoms: C_11  and  C_12 
REMARK    5  A    between atoms: C_12  and  S_13 
REMARK    6  A    between atoms: S_13  and  C_14 
REMARK    7  A    between atoms: C_16  and  C_17 
REMARK    8  A    between atoms: C_20  and  O_21 
ROOT
HETATM    1  N   UNL     1      -4.350   5.471 -32.510  1.00  0.00    -0.352 N 
HETATM    2  C   UNL     1      -5.616   5.897 -32.202  1.00  0.00     0.227 C 
HETATM    3  O   UNL     1      -6.022   7.012 -32.532  1.00  0.00    -0.273 OA
HETATM    4  H   UNL     1      -4.107   4.502 -32.306  1.00  0.00     0.162 HD
ENDROOT
BRANCH   2   5
HETATM    5  C   UNL     1      -6.458   4.924 -31.389  1.00  0.00     0.185 C 
BRANCH   5   6
HETATM    6  S   UNL     1      -5.510   4.130 -30.051  1.00  0.00    -0.081 SA
BRANCH   6   7
HETATM    7  C   UNL     1      -5.706   2.466 -30.434  1.00  0.00     0.185 A 
HETATM    8  N   UNL     1      -5.401   1.871 -31.558  1.00  0.00    -0.201 NA
HETATM    9  C   UNL     1      -5.816   0.569 -31.355  1.00  0.00     0.182 A 
HETATM   10  N   UNL     1      -6.352   0.356 -30.139  1.00  0.00    -0.152 NA
HETATM   11  N   UNL     1      -6.277   1.579 -29.581  1.00  0.00    -0.253 N 
HETATM   12  H   UNL     1      -6.633   1.733 -28.645  1.00  0.00     0.191 HD
BRANCH   9  13
HETATM   13  C   UNL     1      -5.700  -0.439 -32.405  1.00  0.00     0.014 A 
HETATM   14  C   UNL     1      -6.795  -0.720 -33.233  1.00  0.00     0.018 A 
HETATM   15  C   UNL     1      -6.707  -1.705 -34.221  1.00  0.00     0.037 A 
HETATM   16  C   UNL     1      -5.527  -2.425 -34.403  1.00  0.00     0.068 A 
HETATM   17  C   UNL     1      -4.427  -2.145 -33.592  1.00  0.00     0.037 A 
HETATM   18  C   UNL     1      -4.514  -1.159 -32.599  1.00  0.00     0.018 A 
BRANCH  16  19
HETATM   19  O   UNL     1      -5.581  -3.361 -35.398  1.00  0.00    -0.356 OA
HETATM   20  C   UNL     1      -6.405  -4.497 -35.171  1.00  0.00     0.210 C 
ENDBRANCH  16  19
ENDBRANCH   9  13
ENDBRANCH   6   7
ENDBRANCH   5   6
ENDBRANCH   2   5
BRANCH   1  21
HETATM   21  C   UNL     1      -3.392   6.262 -33.256  1.00  0.00     0.225 C 
BRANCH  21  22
HETATM   22  C   UNL     1      -2.562   7.201 -32.371  1.00  0.00     0.239 C 
HETATM   23  N   UNL     1      -2.310   6.667 -31.115  1.00  0.00    -0.325 N 
HETATM   24  H   UNL     1      -2.514   5.671 -31.036  1.00  0.00     0.169 HD
HETATM   25  O   UNL     1      -2.091   8.242 -32.824  1.00  0.00    -0.271 OA
BRANCH  23  26
HETATM   26  C   UNL     1      -1.397   7.204 -30.182  1.00  0.00     0.046 A 
HETATM   27  C   UNL     1      -1.757   8.207 -29.261  1.00  0.00    -0.034 A 
HETATM   28  C   UNL     1      -0.780   8.713 -28.382  1.00  0.00     0.015 A 
HETATM   29  C   UNL     1      -3.154   8.748 -29.119  1.00  0.00     0.050 C 
HETATM   30  C   UNL     1       0.524   8.214 -28.376  1.00  0.00    -0.061 A 
HETATM   31  C   UNL     1       1.549   8.742 -27.418  1.00  0.00     0.048 C 
HETATM   32  C   UNL     1       0.852   7.174 -29.249  1.00  0.00     0.015 A 
HETATM   33  C   UNL     1      -0.092   6.661 -30.154  1.00  0.00    -0.034 A 
HETATM   34  C   UNL     1       0.342   5.574 -31.101  1.00  0.00     0.050 C 
ENDBRANCH  23  26
ENDBRANCH  21  22
ENDBRANCH   1  21
TORSDOF 8
ENDMDL
MODEL 5
REMARK VINA RESULT:      -8.9      2.257     10.133
REMARK  8 active torsions:
REMARK  status: ('A' for Active; 'I' for Inactive)
REMARK    1  A    between atoms: C_6  and  N_7 
REMARK       I    between atoms: N_7  and  C_8 
REMARK    2  A    between atoms: C_8  and  C_9 
REMARK    3  A    between atoms: C_9  and  N_10 
REMARK       I    between atoms: N_10  and  C_11 
REMARK    4  A    between atoms: C_11  and  C_12 
REMARK    5  A    between atoms: C_12  and  S_13 
REMARK    6  A    between atoms: S_13  and  C_14 
REMARK    7  A    between atoms: C_16  and  C_17 
REMARK    8  A    between atoms: C_20  and  O_21 
ROOT
HETATM    1  N   UNL     1      -4.441   6.009 -33.260  1.00  0.00    -0.352 N 
HETATM    2  C   UNL     1      -5.427   5.300 -33.895  1.00  0.00     0.227 C 
HETATM    3  O   UNL     1      -5.213   4.688 -34.942  1.00  0.00    -0.273 OA
HETATM    4  H   UNL     1      -4.648   6.405 -32.344  1.00  0.00     0.162 HD
ENDROOT
BRANCH   2   5
HETATM    5  C   UNL     1      -6.802   5.360 -33.245  1.00  0.00     0.185 C 
BRANCH   5   6
HETATM    6  S   UNL     1      -6.998   4.136 -31.911  1.00  0.00    -0.081 SA
BRANCH   6   7
HETATM    7  C   UNL     1      -7.093   2.671 -32.803  1.00  0.00     0.185 A 
HETATM    8  N   UNL     1      -6.342   1.609 -32.664  1.00  0.00    -0.201 NA
HETATM    9  C   UNL     1      -6.796   0.762 -33.657  1.00  0.00     0.182 A 
HETATM   10  N   UNL     1      -7.805   1.275 -34.384  1.00  0.00    -0.152 NA
HETATM   11  N   UNL     1      -7.966   2.488 -33.826  1.00  0.00    -0.253 N 
HETATM   12  H   UNL     1      -8.664   3.127 -34.188  1.00  0.00     0.191 HD
BRANCH   9  13
HETATM   13  C   UNL     1      -6.179  -0.542 -33.884  1.00  0.00     0.014 A 
HETATM   14  C   UNL     1      -6.851  -1.515 -34.637  1.00  0.00     0.018 A 
HETATM   15  C   UNL     1      -6.287  -2.778 -34.835  1.00  0.00     0.037 A 
HETATM   16  C   UNL     1      -5.043  -3.094 -34.288  1.00  0.00     0.068 A 
HETATM   17  C   UNL     1      -4.361  -2.129 -33.546  1.00  0.00     0.037 A 
HETATM   18  C   UNL     1      -4.927  -0.862 -33.345  1.00  0.00     0.018 A 
BRANCH  16  19
HETATM   19  O   UNL     1      -4.613  -4.364 -34.553  1.00  0.00    -0.356 OA
HETATM   20  C   UNL     1      -3.430  -4.796 -33.891  1.00  0.00     0.210 C 
ENDBRANCH  16  19
ENDBRANCH   9  13
ENDBRANCH   6   7
ENDBRANCH   5   6
ENDBRANCH   2   5
BRANCH   1  21
HETATM   21  C   UNL     1      -3.074   6.093 -33.735  1.00  0.00     0.225 C 
BRANCH  21  22
HETATM   22  C   UNL     1      -2.182   6.986 -32.861  1.00  0.00     0.239 C 
HETATM   23  N   UNL     1      -2.211   6.621 -31.522  1.00  0.00    -0.325 N 
HETATM   24  H   UNL     1      -2.630   5.708 -31.347  1.00  0.00     0.169 HD
HETATM   25  O   UNL     1      -1.448   7.831 -33.366  1.00  0.00    -0.271 OA
BRANCH  23  26
HETATM   26  C   UNL     1      -1.330   7.115 -30.536  1.00  0.00     0.046 A 
HETATM   27  C   UNL     1      -0.075   6.530 -30.279  1.00  0.00    -0.034 A 
HETATM   28  C   UNL     1       0.733   7.064 -29.256  1.00  0.00     0.015 A 
HETATM   29  C   UNL     1       0.491   5.383 -31.073  1.00  0.00     0.050 C 
HETATM   30  C   UNL     1       0.335   8.182 -28.521  1.00  0.00    -0.061 A 
HETATM   31  C   UNL     1       1.215   8.757 -27.452  1.00  0.00     0.048 C 
HETATM   32  C   UNL     1      -0.883   8.793 -28.828  1.00  0.00     0.015 A 
HETATM   33  C   UNL     1      -1.723   8.274 -29.828  1.00  0.00    -0.034 A 
HETATM   34  C   UNL     1      -3.044   8.953 -30.075  1.00  0.00     0.050 C 
ENDBRANCH  23  26
ENDBRANCH  21  22
ENDBRANCH   1  21
TORSDOF 8
ENDMDL
MODEL 6
REMARK VINA RESULT:      -8.5      1.705      2.116
REMARK  8 active torsions:
REMARK  status: ('A' for Active; 'I' for Inactive)
REMARK    1  A    between atoms: C_6  and  N_7 
REMARK       I    between atoms: N_7  and  C_8 
REMARK    2  A    between atoms: C_8  and  C_9 
REMARK    3  A    between atoms: C_9  and  N_10 
REMARK       I    between atoms: N_10  and  C_11 
REMARK    4  A    between atoms: C_11  and  C_12 
REMARK    5  A    between atoms: C_12  and  S_13 
REMARK    6  A    between atoms: S_13  and  C_14 
REMARK    7  A    between atoms: C_16  and  C_17 
REMARK    8  A    between atoms: C_20  and  O_21 
ROOT
HETATM    1  N   UNL     1      -4.717   3.713 -31.318  1.00  0.00    -0.352 N 
HETATM    2  C   UNL     1      -3.440   3.734 -31.818  1.00  0.00     0.227 C 
HETATM    3  O   UNL     1      -2.573   2.960 -31.412  1.00  0.00    -0.273 OA
HETATM    4  H   UNL     1      -5.417   4.302 -31.767  1.00  0.00     0.162 HD
ENDROOT
BRANCH   2   5
HETATM    5  C   UNL     1      -3.162   4.804 -32.864  1.00  0.00     0.185 C 
BRANCH   5   6
HETATM    6  S   UNL     1      -1.390   5.202 -33.001  1.00  0.00    -0.081 SA
BRANCH   6   7
HETATM    7  C   UNL     1      -1.180   6.283 -31.682  1.00  0.00     0.185 A 
HETATM    8  N   UNL     1      -0.377   6.138 -30.659  1.00  0.00    -0.201 NA
HETATM    9  C   UNL     1      -0.647   7.247 -29.880  1.00  0.00     0.182 A 
HETATM   10  N   UNL     1      -1.579   8.062 -30.405  1.00  0.00    -0.152 NA
HETATM   11  N   UNL     1      -1.905   7.422 -31.543  1.00  0.00    -0.253 N 
HETATM   12  H   UNL     1      -2.616   7.802 -32.156  1.00  0.00     0.191 HD
BRANCH   9  13
HETATM   13  C   UNL     1       0.014   7.451 -28.594  1.00  0.00     0.014 A 
HETATM   14  C   UNL     1       1.085   8.349 -28.489  1.00  0.00     0.018 A 
HETATM   15  C   UNL     1       1.747   8.530 -27.272  1.00  0.00     0.037 A 
HETATM   16  C   UNL     1       1.353   7.821 -26.137  1.00  0.00     0.068 A 
HETATM   17  C   UNL     1       0.282   6.932 -26.228  1.00  0.00     0.037 A 
HETATM   18  C   UNL     1      -0.383   6.748 -27.449  1.00  0.00     0.018 A 
BRANCH  16  19
HETATM   19  O   UNL     1       2.090   8.088 -25.017  1.00  0.00    -0.356 OA
HETATM   20  C   UNL     1       2.669   9.383 -24.920  1.00  0.00     0.210 C 
ENDBRANCH  16  19
ENDBRANCH   9  13
ENDBRANCH   6   7
ENDBRANCH   5   6
ENDBRANCH   2   5
BRANCH   1  21
HETATM   21  C   UNL     1      -5.170   2.785 -30.301  1.00  0.00     0.225 C 
BRANCH  21  22
HETATM   22  C   UNL     1      -5.648   1.444 -30.873  1.00  0.00     0.239 C 
HETATM   23  N   UNL     1      -5.260   1.258 -32.192  1.00  0.00    -0.325 N 
HETATM   24  H   UNL     1      -4.549   1.914 -32.515  1.00  0.00     0.169 HD
HETATM   25  O   UNL     1      -6.198   0.612 -30.155  1.00  0.00    -0.271 OA
BRANCH  23  26
HETATM   26  C   UNL     1      -5.366   0.039 -32.897  1.00  0.00     0.046 A 
HETATM   27  C   UNL     1      -4.363  -0.949 -32.857  1.00  0.00    -0.034 A 
HETATM   28  C   UNL     1      -4.530  -2.125 -33.613  1.00  0.00     0.015 A 
HETATM   29  C   UNL     1      -3.126  -0.849 -32.005  1.00  0.00     0.050 C 
HETATM   30  C   UNL     1      -5.683  -2.351 -34.367  1.00  0.00    -0.061 A 
HETATM   31  C   UNL     1      -5.861  -3.619 -35.146  1.00  0.00     0.048 C 
HETATM   32  C   UNL     1      -6.700  -1.393 -34.347  1.00  0.00     0.015 A 
HETATM   33  C   UNL     1      -6.557  -0.198 -33.621  1.00  0.00    -0.034 A 
HETATM   34  C   UNL     1      -7.671   0.813 -33.682  1.00  0.00     0.050 C 
ENDBRANCH  23  26
ENDBRANCH  21  22
ENDBRANCH   1  21
TORSDOF 8
ENDMDL
MODEL 7
REMARK VINA RESULT:      -8.4      4.824      8.540
REMARK  8 active torsions:
REMARK  status: ('A' for Active; 'I' for Inactive)
REMARK    1  A    between atoms: C_6  and  N_7 
REMARK       I    between atoms: N_7  and  C_8 
REMARK    2  A    between atoms: C_8  and  C_9 
REMARK    3  A    between atoms: C_9  and  N_10 
REMARK       I    between atoms: N_10  and  C_11 
REMARK    4  A    between atoms: C_11  and  C_12 
REMARK    5  A    between atoms: C_12  and  S_13 
REMARK    6  A    between atoms: S_13  and  C_14 
REMARK    7  A    between atoms: C_16  and  C_17 
REMARK    8  A    between atoms: C_20  and  O_21 
ROOT
HETATM    1  N   UNL     1      -6.116   3.424 -31.966  1.00  0.00    -0.352 N 
HETATM    2  C   UNL     1      -5.239   3.961 -32.873  1.00  0.00     0.227 C 
HETATM    3  O   UNL     1      -4.104   3.508 -33.022  1.00  0.00    -0.273 OA
HETATM    4  H   UNL     1      -7.075   3.771 -31.963  1.00  0.00     0.162 HD
ENDROOT
BRANCH   2   5
HETATM    5  C   UNL     1      -5.746   5.174 -33.640  1.00  0.00     0.185 C 
BRANCH   5   6
HETATM    6  S   UNL     1      -6.604   6.369 -32.567  1.00  0.00    -0.081 SA
BRANCH   6   7
HETATM    7  C   UNL     1      -8.245   6.098 -32.996  1.00  0.00     0.185 A 
HETATM    8  N   UNL     1      -8.841   4.944 -33.161  1.00  0.00    -0.201 NA
HETATM    9  C   UNL     1     -10.117   5.295 -33.556  1.00  0.00     0.182 A 
HETATM   10  N   UNL     1     -10.315   6.624 -33.624  1.00  0.00    -0.152 NA
HETATM   11  N   UNL     1      -9.110   7.107 -33.272  1.00  0.00    -0.253 N 
HETATM   12  H   UNL     1      -8.948   8.107 -33.251  1.00  0.00     0.191 HD
BRANCH   9  13
HETATM   13  C   UNL     1     -11.113   4.283 -33.896  1.00  0.00     0.014 A 
HETATM   14  C   UNL     1     -11.232   3.831 -35.217  1.00  0.00     0.018 A 
HETATM   15  C   UNL     1     -12.202   2.886 -35.563  1.00  0.00     0.037 A 
HETATM   16  C   UNL     1     -13.069   2.373 -34.598  1.00  0.00     0.068 A 
HETATM   17  C   UNL     1     -12.952   2.808 -33.278  1.00  0.00     0.037 A 
HETATM   18  C   UNL     1     -11.980   3.757 -32.930  1.00  0.00     0.018 A 
BRANCH  16  19
HETATM   19  O   UNL     1     -13.972   1.463 -35.073  1.00  0.00    -0.356 OA
HETATM   20  C   UNL     1     -14.500   0.530 -34.138  1.00  0.00     0.210 C 
ENDBRANCH  16  19
ENDBRANCH   9  13
ENDBRANCH   6   7
ENDBRANCH   5   6
ENDBRANCH   2   5
BRANCH   1  21
HETATM   21  C   UNL     1      -5.811   2.284 -31.125  1.00  0.00     0.225 C 
BRANCH  21  22
HETATM   22  C   UNL     1      -6.312   0.954 -31.703  1.00  0.00     0.239 C 
HETATM   23  N   UNL     1      -5.693   0.625 -32.901  1.00  0.00    -0.325 N 
HETATM   24  H   UNL     1      -4.865   1.181 -33.109  1.00  0.00     0.169 HD
HETATM   25  O   UNL     1      -7.082   0.240 -31.065  1.00  0.00    -0.271 OA
BRANCH  23  26
HETATM   26  C   UNL     1      -5.792  -0.630 -33.539  1.00  0.00     0.046 A 
HETATM   27  C   UNL     1      -6.872  -0.971 -34.377  1.00  0.00    -0.034 A 
HETATM   28  C   UNL     1      -6.913  -2.256 -34.952  1.00  0.00     0.015 A 
HETATM   29  C   UNL     1      -7.978  -0.018 -34.745  1.00  0.00     0.050 C 
HETATM   30  C   UNL     1      -5.890  -3.182 -34.742  1.00  0.00    -0.061 A 
HETATM   31  C   UNL     1      -5.932  -4.538 -35.381  1.00  0.00     0.048 C 
HETATM   32  C   UNL     1      -4.793  -2.810 -33.962  1.00  0.00     0.015 A 
HETATM   33  C   UNL     1      -4.730  -1.544 -33.355  1.00  0.00    -0.034 A 
HETATM   34  C   UNL     1      -3.542  -1.226 -32.487  1.00  0.00     0.050 C 
ENDBRANCH  23  26
ENDBRANCH  21  22
ENDBRANCH   1  21
TORSDOF 8
ENDMDL
MODEL 8
REMARK VINA RESULT:      -8.4      4.815      8.588
REMARK  8 active torsions:
REMARK  status: ('A' for Active; 'I' for Inactive)
REMARK    1  A    between atoms: C_6  and  N_7 
REMARK       I    between atoms: N_7  and  C_8 
REMARK    2  A    between atoms: C_8  and  C_9 
REMARK    3  A    between atoms: C_9  and  N_10 
REMARK       I    between atoms: N_10  and  C_11 
REMARK    4  A    between atoms: C_11  and  C_12 
REMARK    5  A    between atoms: C_12  and  S_13 
REMARK    6  A    between atoms: S_13  and  C_14 
REMARK    7  A    between atoms: C_16  and  C_17 
REMARK    8  A    between atoms: C_20  and  O_21 
ROOT
HETATM    1  N   UNL     1      -7.512   5.935 -32.088  1.00  0.00    -0.352 N 
HETATM    2  C   UNL     1      -6.545   5.284 -32.810  1.00  0.00     0.227 C 
HETATM    3  O   UNL     1      -6.670   5.073 -34.017  1.00  0.00    -0.273 OA
HETATM    4  H   UNL     1      -7.308   6.176 -31.119  1.00  0.00     0.162 HD
ENDROOT
BRANCH   2   5
HETATM    5  C   UNL     1      -5.342   4.803 -32.012  1.00  0.00     0.185 C 
BRANCH   5   6
HETATM    6  S   UNL     1      -5.802   4.176 -30.365  1.00  0.00    -0.081 SA
BRANCH   6   7
HETATM    7  C   UNL     1      -5.902   2.486 -30.659  1.00  0.00     0.185 A 
HETATM    8  N   UNL     1      -5.572   1.851 -31.755  1.00  0.00    -0.201 NA
HETATM    9  C   UNL     1      -5.906   0.539 -31.479  1.00  0.00     0.182 A 
HETATM   10  N   UNL     1      -6.417   0.359 -30.247  1.00  0.00    -0.152 NA
HETATM   11  N   UNL     1      -6.410   1.611 -29.754  1.00  0.00    -0.253 N 
HETATM   12  H   UNL     1      -6.765   1.793 -28.823  1.00  0.00     0.191 HD
BRANCH   9  13
HETATM   13  C   UNL     1      -5.740  -0.513 -32.477  1.00  0.00     0.014 A 
HETATM   14  C   UNL     1      -6.839  -0.944 -33.234  1.00  0.00     0.018 A 
HETATM   15  C   UNL     1      -6.700  -1.972 -34.170  1.00  0.00     0.037 A 
HETATM   16  C   UNL     1      -5.465  -2.588 -34.371  1.00  0.00     0.068 A 
HETATM   17  C   UNL     1      -4.363  -2.160 -33.631  1.00  0.00     0.037 A 
HETATM   18  C   UNL     1      -4.500  -1.129 -32.690  1.00  0.00     0.018 A 
BRANCH  16  19
HETATM   19  O   UNL     1      -5.473  -3.582 -35.310  1.00  0.00    -0.356 OA
HETATM   20  C   UNL     1      -6.599  -4.450 -35.321  1.00  0.00     0.210 C 
ENDBRANCH  16  19
ENDBRANCH   9  13
ENDBRANCH   6   7
ENDBRANCH   5   6
ENDBRANCH   2   5
BRANCH   1  21
HETATM   21  C   UNL     1      -8.740   6.447 -32.663  1.00  0.00     0.225 C 
BRANCH  21  22
HETATM   22  C   UNL     1      -9.911   5.459 -32.570  1.00  0.00     0.239 C 
HETATM   23  N   UNL     1      -9.962   4.589 -33.650  1.00  0.00    -0.325 N 
HETATM   24  H   UNL     1      -9.117   4.582 -34.221  1.00  0.00     0.169 HD
HETATM   25  O   UNL     1     -10.614   5.407 -31.564  1.00  0.00    -0.271 OA
BRANCH  23  26
HETATM   26  C   UNL     1     -10.787   3.445 -33.723  1.00  0.00     0.046 A 
HETATM   27  C   UNL     1     -10.391   2.192 -33.214  1.00  0.00    -0.034 A 
HETATM   28  C   UNL     1     -11.258   1.092 -33.353  1.00  0.00     0.015 A 
HETATM   29  C   UNL     1      -9.100   1.960 -32.476  1.00  0.00     0.050 C 
HETATM   30  C   UNL     1     -12.516   1.225 -33.946  1.00  0.00    -0.061 A 
HETATM   31  C   UNL     1     -13.442   0.052 -34.064  1.00  0.00     0.048 C 
HETATM   32  C   UNL     1     -12.924   2.485 -34.387  1.00  0.00     0.015 A 
HETATM   33  C   UNL     1     -12.074   3.600 -34.284  1.00  0.00    -0.034 A 
HETATM   34  C   UNL     1     -12.558   4.920 -34.825  1.00  0.00     0.050 C 
ENDBRANCH  23  26
ENDBRANCH  21  22
ENDBRANCH   1  21
TORSDOF 8
ENDMDL
MODEL 9
REMARK VINA RESULT:      -8.4      3.039      9.366
REMARK  8 active torsions:
REMARK  status: ('A' for Active; 'I' for Inactive)
REMARK    1  A    between atoms: C_6  and  N_7 
REMARK       I    between atoms: N_7  and  C_8 
REMARK    2  A    between atoms: C_8  and  C_9 
REMARK    3  A    between atoms: C_9  and  N_10 
REMARK       I    between atoms: N_10  and  C_11 
REMARK    4  A    between atoms: C_11  and  C_12 
REMARK    5  A    between atoms: C_12  and  S_13 
REMARK    6  A    between atoms: S_13  and  C_14 
REMARK    7  A    between atoms: C_16  and  C_17 
REMARK    8  A    between atoms: C_20  and  O_21 
ROOT
HETATM    1  N   UNL     1      -7.361   4.496 -32.975  1.00  0.00    -0.352 N 
HETATM    2  C   UNL     1      -7.837   5.525 -32.204  1.00  0.00     0.227 C 
HETATM    3  O   UNL     1      -7.420   6.676 -32.332  1.00  0.00    -0.273 OA
HETATM    4  H   UNL     1      -7.818   3.588 -32.900  1.00  0.00     0.162 HD
ENDROOT
BRANCH   2   5
HETATM    5  C   UNL     1      -8.871   5.137 -31.157  1.00  0.00     0.185 C 
BRANCH   5   6
HETATM    6  S   UNL     1      -8.197   4.012 -29.893  1.00  0.00    -0.081 SA
BRANCH   6   7
HETATM    7  C   UNL     1      -8.233   2.507 -30.721  1.00  0.00     0.185 A 
HETATM    8  N   UNL     1      -7.228   1.889 -31.287  1.00  0.00    -0.201 NA
HETATM    9  C   UNL     1      -7.815   0.773 -31.852  1.00  0.00     0.182 A 
HETATM   10  N   UNL     1      -9.140   0.691 -31.635  1.00  0.00    -0.152 NA
HETATM   11  N   UNL     1      -9.378   1.807 -30.924  1.00  0.00    -0.253 N 
HETATM   12  H   UNL     1     -10.321   2.028 -30.624  1.00  0.00     0.191 HD
BRANCH   9  13
HETATM   13  C   UNL     1      -7.034  -0.180 -32.637  1.00  0.00     0.014 A 
HETATM   14  C   UNL     1      -7.625  -0.852 -33.715  1.00  0.00     0.018 A 
HETATM   15  C   UNL     1      -6.899  -1.791 -34.454  1.00  0.00     0.037 A 
HETATM   16  C   UNL     1      -5.572  -2.074 -34.133  1.00  0.00     0.068 A 
HETATM   17  C   UNL     1      -4.971  -1.403 -33.068  1.00  0.00     0.037 A 
HETATM   18  C   UNL     1      -5.698  -0.463 -32.325  1.00  0.00     0.018 A 
BRANCH  16  19
HETATM   19  O   UNL     1      -4.984  -3.015 -34.932  1.00  0.00    -0.356 OA
HETATM   20  C   UNL     1      -5.538  -4.324 -34.901  1.00  0.00     0.210 C 
ENDBRANCH  16  19
ENDBRANCH   9  13
ENDBRANCH   6   7
ENDBRANCH   5   6
ENDBRANCH   2   5
BRANCH   1  21
HETATM   21  C   UNL     1      -6.358   4.660 -34.008  1.00  0.00     0.225 C 
BRANCH  21  22
HETATM   22  C   UNL     1      -4.921   4.580 -33.476  1.00  0.00     0.239 C 
HETATM   23  N   UNL     1      -4.302   5.821 -33.421  1.00  0.00    -0.325 N 
HETATM   24  H   UNL     1      -4.939   6.610 -33.529  1.00  0.00     0.169 HD
HETATM   25  O   UNL     1      -4.468   3.524 -33.040  1.00  0.00    -0.271 OA
BRANCH  23  26
HETATM   26  C   UNL     1      -3.074   6.079 -32.775  1.00  0.00     0.046 A 
HETATM   27  C   UNL     1      -1.829   5.799 -33.372  1.00  0.00    -0.034 A 
HETATM   28  C   UNL     1      -0.649   6.056 -32.649  1.00  0.00     0.015 A 
HETATM   29  C   UNL     1      -1.675   5.278 -34.776  1.00  0.00     0.050 C 
HETATM   30  C   UNL     1      -0.684   6.621 -31.372  1.00  0.00    -0.061 A 
HETATM   31  C   UNL     1       0.580   6.915 -30.623  1.00  0.00     0.048 C 
HETATM   32  C   UNL     1      -1.921   6.955 -30.816  1.00  0.00     0.015 A 
HETATM   33  C   UNL     1      -3.120   6.691 -31.501  1.00  0.00    -0.034 A 
HETATM   34  C   UNL     1      -4.420   7.031 -30.823  1.00  0.00     0.050 C 
ENDBRANCH  23  26
ENDBRANCH  21  22
ENDBRANCH   1  21
TORSDOF 8
ENDMDL
MODEL 10
REMARK VINA RESULT:      -8.3      2.651      9.452
REMARK  8 active torsions:
REMARK  status: ('A' for Active; 'I' for Inactive)
REMARK    1  A    between atoms: C_6  and  N_7 
REMARK       I    between atoms: N_7  and  C_8 
REMARK    2  A    between atoms: C_8  and  C_9 
REMARK    3  A    between atoms: C_9  and  N_10 
REMARK       I    between atoms: N_10  and  C_11 
REMARK    4  A    between atoms: C_11  and  C_12 
REMARK    5  A    between atoms: C_12  and  S_13 
REMARK    6  A    between atoms: S_13  and  C_14 
REMARK    7  A    between atoms: C_16  and  C_17 
REMARK    8  A    between atoms: C_20  and  O_21 
ROOT
HETATM    1  N   UNL     1      -6.454   4.496 -33.337  1.00  0.00    -0.352 N 
HETATM    2  C   UNL     1      -7.150   5.308 -32.479  1.00  0.00     0.227 C 
HETATM    3  O   UNL     1      -6.820   6.478 -32.285  1.00  0.00    -0.273 OA
HETATM    4  H   UNL     1      -6.835   3.573 -33.539  1.00  0.00     0.162 HD
ENDROOT
BRANCH   2   5
HETATM    5  C   UNL     1      -8.317   4.652 -31.755  1.00  0.00     0.185 C 
BRANCH   5   6
HETATM    6  S   UNL     1      -7.790   3.725 -30.279  1.00  0.00    -0.081 SA
BRANCH   6   7
HETATM    7  C   UNL     1      -6.717   2.571 -30.965  1.00  0.00     0.185 A 
HETATM    8  N   UNL     1      -7.000   1.661 -31.861  1.00  0.00    -0.201 NA
HETATM    9  C   UNL     1      -5.809   0.975 -32.008  1.00  0.00     0.182 A 
HETATM   10  N   UNL     1      -4.814   1.449 -31.238  1.00  0.00    -0.152 NA
HETATM   11  N   UNL     1      -5.420   2.454 -30.581  1.00  0.00    -0.253 N 
HETATM   12  H   UNL     1      -4.907   2.999 -29.898  1.00  0.00     0.191 HD
BRANCH   9  13
HETATM   13  C   UNL     1      -5.702  -0.177 -32.900  1.00  0.00     0.014 A 
HETATM   14  C   UNL     1      -6.760  -0.502 -33.758  1.00  0.00     0.018 A 
HETATM   15  C   UNL     1      -6.684  -1.621 -34.593  1.00  0.00     0.037 A 
HETATM   16  C   UNL     1      -5.549  -2.432 -34.590  1.00  0.00     0.068 A 
HETATM   17  C   UNL     1      -4.485  -2.111 -33.747  1.00  0.00     0.037 A 
HETATM   18  C   UNL     1      -4.562  -0.991 -32.907  1.00  0.00     0.018 A 
BRANCH  16  19
HETATM   19  O   UNL     1      -5.609  -3.494 -35.449  1.00  0.00    -0.356 OA
HETATM   20  C   UNL     1      -6.418  -4.596 -35.057  1.00  0.00     0.210 C 
ENDBRANCH  16  19
ENDBRANCH   9  13
ENDBRANCH   6   7
ENDBRANCH   5   6
ENDBRANCH   2   5
BRANCH   1  21
HETATM   21  C   UNL     1      -5.300   4.929 -34.100  1.00  0.00     0.225 C 
BRANCH  21  22
HETATM   22  C   UNL     1      -4.005   4.954 -33.278  1.00  0.00     0.239 C 
HETATM   23  N   UNL     1      -3.653   6.234 -32.874  1.00  0.00    -0.325 N 
HETATM   24  H   UNL     1      -4.394   6.925 -32.986  1.00  0.00     0.169 HD
HETATM   25  O   UNL     1      -3.454   3.909 -32.937  1.00  0.00    -0.271 OA
BRANCH  23  26
HETATM   26  C   UNL     1      -2.645   6.531 -31.931  1.00  0.00     0.046 A 
HETATM   27  C   UNL     1      -2.891   6.566 -30.544  1.00  0.00    -0.034 A 
HETATM   28  C   UNL     1      -1.839   6.902 -29.671  1.00  0.00     0.015 A 
HETATM   29  C   UNL     1      -4.216   6.216 -29.921  1.00  0.00     0.050 C 
HETATM   30  C   UNL     1      -0.551   7.158 -30.145  1.00  0.00    -0.061 A 
HETATM   31  C   UNL     1       0.568   7.488 -29.203  1.00  0.00     0.048 C 
HETATM   32  C   UNL     1      -0.304   7.056 -31.516  1.00  0.00     0.015 A 
HETATM   33  C   UNL     1      -1.336   6.745 -32.418  1.00  0.00    -0.034 A 
HETATM   34  C   UNL     1      -1.010   6.699 -33.887  1.00  0.00     0.050 C 
ENDBRANCH  23  26
ENDBRANCH  21  22
ENDBRANCH   1  21
TORSDOF 8
ENDMDL
