MODEL 1
REMARK VINA RESULT:      -8.5      0.000      0.000
REMARK  5 active torsions:
REMARK  status: ('A' for Active; 'I' for Inactive)
REMARK    1  A    between atoms: O_2  and  C_3 
REMARK    2  A    between atoms: C_7  and  C_8 
REMARK    3  A    between atoms: C_8  and  C_9 
REMARK       I    between atoms: C_9  and  N_10 
REMARK    4  A    between atoms: N_10  and  C_11 
REMARK    5  A    between atoms: C_11  and  C_12 
ROOT
HETATM    1  C   UNL     1      -3.998   2.993 -31.903  1.00  0.00     0.222 C 
HETATM    2  N   UNL     1      -2.889   3.550 -31.314  1.00  0.00    -0.354 N 
HETATM    3  O   UNL     1      -4.486   3.443 -32.939  1.00  0.00    -0.273 OA
HETATM    4  H   UNL     1      -2.385   3.039 -30.594  1.00  0.00     0.162 HD
ENDROOT
BRANCH   1   5
HETATM    5  C   UNL     1      -4.626   1.828 -31.160  1.00  0.00     0.144 C 
BRANCH   5   6
HETATM    6  C   UNL     1      -4.160   0.487 -31.622  1.00  0.00    -0.014 A 
HETATM    7  C   UNL     1      -4.741  -0.365 -32.616  1.00  0.00     0.006 A 
HETATM    8  C   UNL     1      -3.929  -1.490 -32.679  1.00  0.00     0.088 A 
HETATM    9  C   UNL     1      -5.854  -0.303 -33.472  1.00  0.00     0.017 A 
HETATM   10  C   UNL     1      -4.129  -2.566 -33.544  1.00  0.00     0.074 A 
HETATM   11  O   UNL     1      -2.912  -1.390 -31.780  1.00  0.00    -0.321 OA
HETATM   12  C   UNL     1      -5.229  -2.480 -34.404  1.00  0.00     0.070 A 
HETATM   13  C   UNL     1      -6.078  -1.367 -34.359  1.00  0.00     0.038 A 
HETATM   14  C   UNL     1      -3.059  -0.201 -31.146  1.00  0.00     0.151 A 
BRANCH  12  15
HETATM   15  O   UNL     1      -5.585  -3.423 -35.333  1.00  0.00    -0.356 OA
HETATM   16  C   UNL     1      -6.658  -4.290 -34.985  1.00  0.00     0.210 C 
ENDBRANCH  12  15
ENDBRANCH   5   6
ENDBRANCH   1   5
BRANCH   2  17
HETATM   17  C   UNL     1      -2.143   4.577 -31.997  1.00  0.00     0.201 C 
BRANCH  17  18
HETATM   18  C   UNL     1      -1.463   5.430 -30.986  1.00  0.00     0.123 A 
HETATM   19  N   UNL     1      -1.643   6.723 -30.782  1.00  0.00    -0.232 NA
HETATM   20  C   UNL     1      -0.827   7.047 -29.725  1.00  0.00     0.085 A 
HETATM   21  C   UNL     1      -0.126   5.932 -29.280  1.00  0.00     0.062 A 
HETATM   22  C   UNL     1      -0.634   8.278 -29.084  1.00  0.00     0.034 A 
HETATM   23  N   UNL     1      -0.545   4.917 -30.101  1.00  0.00    -0.341 N 
HETATM   24  C   UNL     1       0.777   5.969 -28.215  1.00  0.00     0.032 A 
HETATM   25  H   UNL     1      -0.238   3.957 -30.056  1.00  0.00     0.167 HD
HETATM   26  C   UNL     1       0.956   7.206 -27.587  1.00  0.00     0.002 A 
HETATM   27  C   UNL     1       0.264   8.343 -28.010  1.00  0.00     0.002 A 
ENDBRANCH  17  18
ENDBRANCH   2  17
TORSDOF 5
ENDMDL
MODEL 2
REMARK VINA RESULT:      -8.5      1.536      2.237
REMARK  5 active torsions:
REMARK  status: ('A' for Active; 'I' for Inactive)
REMARK    1  A    between atoms: O_2  and  C_3 
REMARK    2  A    between atoms: C_7  and  C_8 
REMARK    3  A    between atoms: C_8  and  C_9 
REMARK       I    between atoms: C_9  and  N_10 
REMARK    4  A    between atoms: N_10  and  C_11 
REMARK    5  A    between atoms: C_11  and  C_12 
ROOT
HETATM    1  C   UNL     1      -4.671   2.768 -31.499  1.00  0.00     0.222 C 
HETATM    2  N   UNL     1      -3.341   2.684 -31.835  1.00  0.00    -0.354 N 
HETATM    3  O   UNL     1      -5.333   3.785 -31.696  1.00  0.00    -0.273 OA
HETATM    4  H   UNL     1      -2.880   1.777 -31.862  1.00  0.00     0.162 HD
ENDROOT
BRANCH   1   5
HETATM    5  C   UNL     1      -5.255   1.551 -30.804  1.00  0.00     0.144 C 
BRANCH   5   6
HETATM    6  C   UNL     1      -6.113   0.701 -31.683  1.00  0.00    -0.014 A 
HETATM    7  C   UNL     1      -5.709  -0.324 -32.598  1.00  0.00     0.006 A 
HETATM    8  C   UNL     1      -6.879  -0.816 -33.163  1.00  0.00     0.088 A 
HETATM    9  C   UNL     1      -4.489  -0.895 -33.002  1.00  0.00     0.017 A 
HETATM   10  C   UNL     1      -6.935  -1.850 -34.099  1.00  0.00     0.074 A 
HETATM   11  O   UNL     1      -7.958  -0.147 -32.673  1.00  0.00    -0.321 OA
HETATM   12  C   UNL     1      -5.715  -2.420 -34.473  1.00  0.00     0.070 A 
HETATM   13  C   UNL     1      -4.514  -1.941 -33.935  1.00  0.00     0.038 A 
HETATM   14  C   UNL     1      -7.489   0.765 -31.786  1.00  0.00     0.151 A 
BRANCH  12  15
HETATM   15  O   UNL     1      -5.563  -3.452 -35.364  1.00  0.00    -0.356 OA
HETATM   16  C   UNL     1      -6.449  -4.555 -35.222  1.00  0.00     0.210 C 
ENDBRANCH  12  15
ENDBRANCH   5   6
ENDBRANCH   1   5
BRANCH   2  17
HETATM   17  C   UNL     1      -2.720   3.730 -32.608  1.00  0.00     0.201 C 
BRANCH  17  18
HETATM   18  C   UNL     1      -2.030   4.667 -31.681  1.00  0.00     0.123 A 
HETATM   19  N   UNL     1      -0.727   4.825 -31.532  1.00  0.00    -0.232 NA
HETATM   20  C   UNL     1      -0.581   5.823 -30.598  1.00  0.00     0.085 A 
HETATM   21  C   UNL     1      -1.820   6.276 -30.159  1.00  0.00     0.062 A 
HETATM   22  C   UNL     1       0.584   6.401 -30.075  1.00  0.00     0.034 A 
HETATM   23  N   UNL     1      -2.725   5.521 -30.860  1.00  0.00    -0.341 N 
HETATM   24  C   UNL     1      -1.974   7.288 -29.210  1.00  0.00     0.032 A 
HETATM   25  H   UNL     1      -3.729   5.591 -30.791  1.00  0.00     0.167 HD
HETATM   26  C   UNL     1      -0.801   7.853 -28.700  1.00  0.00     0.002 A 
HETATM   27  C   UNL     1       0.459   7.421 -29.123  1.00  0.00     0.002 A 
ENDBRANCH  17  18
ENDBRANCH   2  17
TORSDOF 5
ENDMDL
MODEL 3
REMARK VINA RESULT:      -8.2      1.475      1.981
REMARK  5 active torsions:
REMARK  status: ('A' for Active; 'I' for Inactive)
REMARK    1  A    between atoms: O_2  and  C_3 
REMARK    2  A    between atoms: C_7  and  C_8 
REMARK    3  A    between atoms: C_8  and  C_9 
REMARK       I    between atoms: C_9  and  N_10 
REMARK    4  A    between atoms: N_10  and  C_11 
REMARK    5  A    between atoms: C_11  and  C_12 
ROOT
HETATM    1  C   UNL     1      -6.071   2.567 -31.177  1.00  0.00     0.222 C 
HETATM    2  N   UNL     1      -5.107   3.458 -30.769  1.00  0.00    -0.354 N 
HETATM    3  O   UNL     1      -6.948   2.874 -31.982  1.00  0.00    -0.273 OA
HETATM    4  H   UNL     1      -4.280   3.124 -30.280  1.00  0.00     0.162 HD
ENDROOT
BRANCH   1   5
HETATM    5  C   UNL     1      -6.027   1.200 -30.519  1.00  0.00     0.144 C 
BRANCH   5   6
HETATM    6  C   UNL     1      -5.190   0.200 -31.246  1.00  0.00    -0.014 A 
HETATM    7  C   UNL     1      -5.562  -0.645 -32.341  1.00  0.00     0.006 A 
HETATM    8  C   UNL     1      -4.428  -1.382 -32.659  1.00  0.00     0.088 A 
HETATM    9  C   UNL     1      -6.725  -0.859 -33.101  1.00  0.00     0.017 A 
HETATM   10  C   UNL     1      -4.353  -2.317 -33.692  1.00  0.00     0.074 A 
HETATM   11  O   UNL     1      -3.406  -1.061 -31.821  1.00  0.00    -0.321 OA
HETATM   12  C   UNL     1      -5.512  -2.503 -34.451  1.00  0.00     0.070 A 
HETATM   13  C   UNL     1      -6.678  -1.788 -34.151  1.00  0.00     0.038 A 
HETATM   14  C   UNL     1      -3.871  -0.111 -30.973  1.00  0.00     0.151 A 
BRANCH  12  15
HETATM   15  O   UNL     1      -5.634  -3.361 -35.513  1.00  0.00    -0.356 OA
HETATM   16  C   UNL     1      -6.432  -4.521 -35.309  1.00  0.00     0.210 C 
ENDBRANCH  12  15
ENDBRANCH   5   6
ENDBRANCH   1   5
BRANCH   2  17
HETATM   17  C   UNL     1      -4.980   4.738 -31.420  1.00  0.00     0.201 C 
BRANCH  17  18
HETATM   18  C   UNL     1      -3.604   5.258 -31.194  1.00  0.00     0.123 A 
HETATM   19  N   UNL     1      -2.550   5.087 -31.971  1.00  0.00    -0.232 NA
HETATM   20  C   UNL     1      -1.530   5.782 -31.366  1.00  0.00     0.085 A 
HETATM   21  C   UNL     1      -1.967   6.381 -30.190  1.00  0.00     0.062 A 
HETATM   22  C   UNL     1      -0.198   5.951 -31.767  1.00  0.00     0.034 A 
HETATM   23  N   UNL     1      -3.289   6.029 -30.101  1.00  0.00    -0.341 N 
HETATM   24  C   UNL     1      -1.141   7.152 -29.370  1.00  0.00     0.032 A 
HETATM   25  H   UNL     1      -3.922   6.299 -29.363  1.00  0.00     0.167 HD
HETATM   26  C   UNL     1       0.185   7.310 -29.786  1.00  0.00     0.002 A 
HETATM   27  C   UNL     1       0.653   6.723 -30.964  1.00  0.00     0.002 A 
ENDBRANCH  17  18
ENDBRANCH   2  17
TORSDOF 5
ENDMDL
MODEL 4
REMARK VINA RESULT:      -8.2      4.653      7.935
REMARK  5 active torsions:
REMARK  status: ('A' for Active; 'I' for Inactive)
REMARK    1  A    between atoms: O_2  and  C_3 
REMARK    2  A    between atoms: C_7  and  C_8 
REMARK    3  A    between atoms: C_8  and  C_9 
REMARK       I    between atoms: C_9  and  N_10 
REMARK    4  A    between atoms: N_10  and  C_11 
REMARK    5  A    between atoms: C_11  and  C_12 
ROOT
HETATM    1  C   UNL     1      -5.983   2.069 -31.027  1.00  0.00     0.222 C 
HETATM    2  N   UNL     1      -7.106   2.359 -31.763  1.00  0.00    -0.354 N 
HETATM    3  O   UNL     1      -6.016   1.941 -29.804  1.00  0.00    -0.273 OA
HETATM    4  H   UNL     1      -7.095   2.247 -32.774  1.00  0.00     0.162 HD
ENDROOT
BRANCH   1   5
HETATM    5  C   UNL     1      -4.684   1.985 -31.809  1.00  0.00     0.144 C 
BRANCH   5   6
HETATM    6  C   UNL     1      -4.241   0.591 -32.107  1.00  0.00    -0.014 A 
HETATM    7  C   UNL     1      -4.813  -0.347 -33.026  1.00  0.00     0.006 A 
HETATM    8  C   UNL     1      -4.033  -1.493 -32.939  1.00  0.00     0.088 A 
HETATM    9  C   UNL     1      -5.894  -0.350 -33.925  1.00  0.00     0.017 A 
HETATM   10  C   UNL     1      -4.235  -2.651 -33.692  1.00  0.00     0.074 A 
HETATM   11  O   UNL     1      -3.045  -1.324 -32.018  1.00  0.00    -0.321 OA
HETATM   12  C   UNL     1      -5.301  -2.629 -34.596  1.00  0.00     0.070 A 
HETATM   13  C   UNL     1      -6.119  -1.496 -34.701  1.00  0.00     0.038 A 
HETATM   14  C   UNL     1      -3.178  -0.070 -31.521  1.00  0.00     0.151 A 
BRANCH  12  15
HETATM   15  O   UNL     1      -5.653  -3.658 -35.432  1.00  0.00    -0.356 OA
HETATM   16  C   UNL     1      -6.719  -4.496 -35.001  1.00  0.00     0.210 C 
ENDBRANCH  12  15
ENDBRANCH   5   6
ENDBRANCH   1   5
BRANCH   2  17
HETATM   17  C   UNL     1      -8.407   2.338 -31.142  1.00  0.00     0.201 C 
BRANCH  17  18
HETATM   18  C   UNL     1      -9.447   2.351 -32.205  1.00  0.00     0.123 A 
HETATM   19  N   UNL     1      -9.608   3.256 -33.153  1.00  0.00    -0.232 NA
HETATM   20  C   UNL     1     -10.667   2.815 -33.908  1.00  0.00     0.085 A 
HETATM   21  C   UNL     1     -11.172   1.621 -33.406  1.00  0.00     0.062 A 
HETATM   22  C   UNL     1     -11.256   3.382 -35.047  1.00  0.00     0.034 A 
HETATM   23  N   UNL     1     -10.381   1.349 -32.319  1.00  0.00    -0.341 N 
HETATM   24  C   UNL     1     -12.251   0.943 -33.977  1.00  0.00     0.032 A 
HETATM   25  H   UNL     1     -10.466   0.546 -31.715  1.00  0.00     0.167 HD
HETATM   26  C   UNL     1     -12.825   1.524 -35.113  1.00  0.00     0.002 A 
HETATM   27  C   UNL     1     -12.339   2.722 -35.643  1.00  0.00     0.002 A 
ENDBRANCH  17  18
ENDBRANCH   2  17
TORSDOF 5
ENDMDL
MODEL 5
REMARK VINA RESULT:      -8.0      2.895      9.447
REMARK  5 active torsions:
REMARK  status: ('A' for Active; 'I' for Inactive)
REMARK    1  A    between atoms: O_2  and  C_3 
REMARK    2  A    between atoms: C_7  and  C_8 
REMARK    3  A    between atoms: C_8  and  C_9 
REMARK       I    between atoms: C_9  and  N_10 
REMARK    4  A    between atoms: N_10  and  C_11 
REMARK    5  A    between atoms: C_11  and  C_12 
ROOT
HETATM    1  C   UNL     1      -5.171   2.470 -32.072  1.00  0.00     0.222 C 
HETATM    2  N   UNL     1      -4.518   1.552 -32.858  1.00  0.00    -0.354 N 
HETATM    3  O   UNL     1      -5.362   2.287 -30.871  1.00  0.00    -0.273 OA
HETATM    4  H   UNL     1      -4.187   1.818 -33.782  1.00  0.00     0.162 HD
ENDROOT
BRANCH   1   5
HETATM    5  C   UNL     1      -5.705   3.695 -32.793  1.00  0.00     0.144 C 
BRANCH   5   6
HETATM    6  C   UNL     1      -4.645   4.558 -33.394  1.00  0.00    -0.014 A 
HETATM    7  C   UNL     1      -3.482   5.108 -32.766  1.00  0.00     0.006 A 
HETATM    8  C   UNL     1      -2.817   5.827 -33.752  1.00  0.00     0.088 A 
HETATM    9  C   UNL     1      -2.914   5.069 -31.480  1.00  0.00     0.017 A 
HETATM   10  C   UNL     1      -1.614   6.508 -33.564  1.00  0.00     0.074 A 
HETATM   11  O   UNL     1      -3.507   5.770 -34.924  1.00  0.00    -0.321 OA
HETATM   12  C   UNL     1      -1.053   6.442 -32.285  1.00  0.00     0.070 A 
HETATM   13  C   UNL     1      -1.701   5.738 -31.262  1.00  0.00     0.038 A 
HETATM   14  C   UNL     1      -4.605   5.008 -34.701  1.00  0.00     0.151 A 
BRANCH  12  15
HETATM   15  O   UNL     1       0.127   7.029 -31.906  1.00  0.00    -0.356 OA
HETATM   16  C   UNL     1       0.476   6.932 -30.530  1.00  0.00     0.210 C 
ENDBRANCH  12  15
ENDBRANCH   5   6
ENDBRANCH   1   5
BRANCH   2  17
HETATM   17  C   UNL     1      -3.864   0.416 -32.258  1.00  0.00     0.201 C 
BRANCH  17  18
HETATM   18  C   UNL     1      -4.332  -0.822 -32.937  1.00  0.00     0.123 A 
HETATM   19  N   UNL     1      -3.669  -1.958 -33.068  1.00  0.00    -0.232 NA
HETATM   20  C   UNL     1      -4.523  -2.808 -33.728  1.00  0.00     0.085 A 
HETATM   21  C   UNL     1      -5.728  -2.177 -34.016  1.00  0.00     0.062 A 
HETATM   22  C   UNL     1      -4.340  -4.143 -34.115  1.00  0.00     0.034 A 
HETATM   23  N   UNL     1      -5.579  -0.913 -33.506  1.00  0.00    -0.341 N 
HETATM   24  C   UNL     1      -6.783  -2.804 -34.681  1.00  0.00     0.032 A 
HETATM   25  H   UNL     1      -6.272  -0.180 -33.535  1.00  0.00     0.167 HD
HETATM   26  C   UNL     1      -6.583  -4.136 -35.059  1.00  0.00     0.002 A 
HETATM   27  C   UNL     1      -5.384  -4.798 -34.782  1.00  0.00     0.002 A 
ENDBRANCH  17  18
ENDBRANCH   2  17
TORSDOF 5
ENDMDL
MODEL 6
REMARK VINA RESULT:      -8.0      1.627      2.438
REMARK  5 active torsions:
REMARK  status: ('A' for Active; 'I' for Inactive)
REMARK    1  A    between atoms: O_2  and  C_3 
REMARK    2  A    between atoms: C_7  and  C_8 
REMARK    3  A    between atoms: C_8  and  C_9 
REMARK       I    between atoms: C_9  and  N_10 
REMARK    4  A    between atoms: N_10  and  C_11 
REMARK    5  A    between atoms: C_11  and  C_12 
ROOT
HETATM    1  C   UNL     1      -4.935   3.366 -33.090  1.00  0.00     0.222 C 
HETATM    2  N   UNL     1      -3.625   3.238 -32.694  1.00  0.00    -0.354 N 
HETATM    3  O   UNL     1      -5.314   4.284 -33.815  1.00  0.00    -0.273 OA
HETATM    4  H   UNL     1      -3.301   2.367 -32.282  1.00  0.00     0.162 HD
ENDROOT
BRANCH   1   5
HETATM    5  C   UNL     1      -5.900   2.343 -32.519  1.00  0.00     0.144 C 
BRANCH   5   6
HETATM    6  C   UNL     1      -6.193   1.202 -33.436  1.00  0.00    -0.014 A 
HETATM    7  C   UNL     1      -5.547  -0.075 -33.504  1.00  0.00     0.006 A 
HETATM    8  C   UNL     1      -6.191  -0.777 -34.515  1.00  0.00     0.088 A 
HETATM    9  C   UNL     1      -4.499  -0.714 -32.818  1.00  0.00     0.017 A 
HETATM   10  C   UNL     1      -5.882  -2.084 -34.894  1.00  0.00     0.074 A 
HETATM   11  O   UNL     1      -7.163  -0.010 -35.078  1.00  0.00    -0.321 OA
HETATM   12  C   UNL     1      -4.853  -2.713 -34.188  1.00  0.00     0.070 A 
HETATM   13  C   UNL     1      -4.171  -2.031 -33.172  1.00  0.00     0.038 A 
HETATM   14  C   UNL     1      -7.157   1.179 -34.426  1.00  0.00     0.151 A 
BRANCH  12  15
HETATM   15  O   UNL     1      -4.413  -3.994 -34.401  1.00  0.00    -0.356 OA
HETATM   16  C   UNL     1      -3.507  -4.526 -33.441  1.00  0.00     0.210 C 
ENDBRANCH  12  15
ENDBRANCH   5   6
ENDBRANCH   1   5
BRANCH   2  17
HETATM   17  C   UNL     1      -2.607   4.077 -33.274  1.00  0.00     0.201 C 
BRANCH  17  18
HETATM   18  C   UNL     1      -2.071   4.980 -32.220  1.00  0.00     0.123 A 
HETATM   19  N   UNL     1      -2.761   5.631 -31.301  1.00  0.00    -0.232 NA
HETATM   20  C   UNL     1      -1.828   6.294 -30.541  1.00  0.00     0.085 A 
HETATM   21  C   UNL     1      -0.543   6.053 -31.011  1.00  0.00     0.062 A 
HETATM   22  C   UNL     1      -2.005   7.123 -29.424  1.00  0.00     0.034 A 
HETATM   23  N   UNL     1      -0.724   5.217 -32.082  1.00  0.00    -0.341 N 
HETATM   24  C   UNL     1       0.603   6.599 -30.427  1.00  0.00     0.032 A 
HETATM   25  H   UNL     1       0.007   4.835 -32.662  1.00  0.00     0.167 HD
HETATM   26  C   UNL     1       0.407   7.424 -29.314  1.00  0.00     0.002 A 
HETATM   27  C   UNL     1      -0.873   7.683 -28.817  1.00  0.00     0.002 A 
ENDBRANCH  17  18
ENDBRANCH   2  17
TORSDOF 5
ENDMDL
MODEL 7
REMARK VINA RESULT:      -7.9      4.953      8.642
REMARK  5 active torsions:
REMARK  status: ('A' for Active; 'I' for Inactive)
REMARK    1  A    between atoms: O_2  and  C_3 
REMARK    2  A    between atoms: C_7  and  C_8 
REMARK    3  A    between atoms: C_8  and  C_9 
REMARK       I    between atoms: C_9  and  N_10 
REMARK    4  A    between atoms: N_10  and  C_11 
REMARK    5  A    between atoms: C_11  and  C_12 
ROOT
HETATM    1  C   UNL     1      -5.261   1.967 -30.933  1.00  0.00     0.222 C 
HETATM    2  N   UNL     1      -5.110   0.666 -31.348  1.00  0.00    -0.354 N 
HETATM    3  O   UNL     1      -4.448   2.845 -31.220  1.00  0.00    -0.273 OA
HETATM    4  H   UNL     1      -5.891   0.018 -31.284  1.00  0.00     0.162 HD
ENDROOT
BRANCH   1   5
HETATM    5  C   UNL     1      -6.457   2.241 -30.039  1.00  0.00     0.144 C 
BRANCH   5   6
HETATM    6  C   UNL     1      -7.669   2.715 -30.770  1.00  0.00    -0.014 A 
HETATM    7  C   UNL     1      -8.577   1.956 -31.576  1.00  0.00     0.006 A 
HETATM    8  C   UNL     1      -9.536   2.855 -32.024  1.00  0.00     0.088 A 
HETATM    9  C   UNL     1      -8.698   0.610 -31.966  1.00  0.00     0.017 A 
HETATM   10  C   UNL     1     -10.626   2.518 -32.828  1.00  0.00     0.074 A 
HETATM   11  O   UNL     1      -9.261   4.106 -31.566  1.00  0.00    -0.321 OA
HETATM   12  C   UNL     1     -10.743   1.172 -33.189  1.00  0.00     0.070 A 
HETATM   13  C   UNL     1      -9.787   0.240 -32.768  1.00  0.00     0.038 A 
HETATM   14  C   UNL     1      -8.137   4.015 -30.815  1.00  0.00     0.151 A 
BRANCH  12  15
HETATM   15  O   UNL     1     -11.747   0.643 -33.958  1.00  0.00    -0.356 OA
HETATM   16  C   UNL     1     -12.518   1.561 -34.724  1.00  0.00     0.210 C 
ENDBRANCH  12  15
ENDBRANCH   5   6
ENDBRANCH   1   5
BRANCH   2  17
HETATM   17  C   UNL     1      -4.083   0.322 -32.299  1.00  0.00     0.201 C 
BRANCH  17  18
HETATM   18  C   UNL     1      -4.467  -0.940 -32.986  1.00  0.00     0.123 A 
HETATM   19  N   UNL     1      -3.742  -2.038 -33.102  1.00  0.00    -0.232 NA
HETATM   20  C   UNL     1      -4.534  -2.934 -33.778  1.00  0.00     0.085 A 
HETATM   21  C   UNL     1      -5.764  -2.369 -34.093  1.00  0.00     0.062 A 
HETATM   22  C   UNL     1      -4.270  -4.257 -34.159  1.00  0.00     0.034 A 
HETATM   23  N   UNL     1      -5.695  -1.099 -33.582  1.00  0.00    -0.341 N 
HETATM   24  C   UNL     1      -6.769  -3.053 -34.780  1.00  0.00     0.032 A 
HETATM   25  H   UNL     1      -6.426  -0.404 -33.628  1.00  0.00     0.167 HD
HETATM   26  C   UNL     1      -6.488  -4.372 -35.151  1.00  0.00     0.002 A 
HETATM   27  C   UNL     1      -5.262  -4.968 -34.847  1.00  0.00     0.002 A 
ENDBRANCH  17  18
ENDBRANCH   2  17
TORSDOF 5
ENDMDL
MODEL 8
REMARK VINA RESULT:      -7.9      2.558      9.337
REMARK  5 active torsions:
REMARK  status: ('A' for Active; 'I' for Inactive)
REMARK    1  A    between atoms: O_2  and  C_3 
REMARK    2  A    between atoms: C_7  and  C_8 
REMARK    3  A    between atoms: C_8  and  C_9 
REMARK       I    between atoms: C_9  and  N_10 
REMARK    4  A    between atoms: N_10  and  C_11 
REMARK    5  A    between atoms: C_11  and  C_12 
ROOT
HETATM    1  C   UNL     1      -4.583   3.465 -32.440  1.00  0.00     0.222 C 
HETATM    2  N   UNL     1      -3.558   2.556 -32.548  1.00  0.00    -0.354 N 
HETATM    3  O   UNL     1      -5.598   3.233 -31.786  1.00  0.00    -0.273 OA
HETATM    4  H   UNL     1      -2.653   2.850 -32.907  1.00  0.00     0.162 HD
ENDROOT
BRANCH   1   5
HETATM    5  C   UNL     1      -4.415   4.747 -33.235  1.00  0.00     0.144 C 
BRANCH   5   6
HETATM    6  C   UNL     1      -3.031   5.306 -33.205  1.00  0.00    -0.014 A 
HETATM    7  C   UNL     1      -2.313   5.847 -32.090  1.00  0.00     0.006 A 
HETATM    8  C   UNL     1      -1.069   6.222 -32.580  1.00  0.00     0.088 A 
HETATM    9  C   UNL     1      -2.574   6.050 -30.723  1.00  0.00     0.017 A 
HETATM   10  C   UNL     1      -0.047   6.779 -31.810  1.00  0.00     0.074 A 
HETATM   11  O   UNL     1      -0.991   5.969 -33.915  1.00  0.00    -0.321 OA
HETATM   12  C   UNL     1      -0.315   6.955 -30.450  1.00  0.00     0.070 A 
HETATM   13  C   UNL     1      -1.563   6.601 -29.922  1.00  0.00     0.038 A 
HETATM   14  C   UNL     1      -2.174   5.421 -34.284  1.00  0.00     0.151 A 
BRANCH  12  15
HETATM   15  O   UNL     1       0.561   7.470 -29.529  1.00  0.00    -0.356 OA
HETATM   16  C   UNL     1       0.617   6.818 -28.266  1.00  0.00     0.210 C 
ENDBRANCH  12  15
ENDBRANCH   5   6
ENDBRANCH   1   5
BRANCH   2  17
HETATM   17  C   UNL     1      -3.558   1.363 -31.739  1.00  0.00     0.201 C 
BRANCH  17  18
HETATM   18  C   UNL     1      -4.162   0.251 -32.521  1.00  0.00     0.123 A 
HETATM   19  N   UNL     1      -3.529  -0.760 -33.088  1.00  0.00    -0.232 NA
HETATM   20  C   UNL     1      -4.510  -1.538 -33.655  1.00  0.00     0.085 A 
HETATM   21  C   UNL     1      -5.767  -0.985 -33.439  1.00  0.00     0.062 A 
HETATM   22  C   UNL     1      -4.402  -2.738 -34.370  1.00  0.00     0.034 A 
HETATM   23  N   UNL     1      -5.518   0.154 -32.719  1.00  0.00    -0.341 N 
HETATM   24  C   UNL     1      -6.950  -1.565 -33.903  1.00  0.00     0.032 A 
HETATM   25  H   UNL     1      -6.213   0.804 -32.384  1.00  0.00     0.167 HD
HETATM   26  C   UNL     1      -6.823  -2.764 -34.614  1.00  0.00     0.002 A 
HETATM   27  C   UNL     1      -5.574  -3.344 -34.845  1.00  0.00     0.002 A 
ENDBRANCH  17  18
ENDBRANCH   2  17
TORSDOF 5
ENDMDL
MODEL 9
REMARK VINA RESULT:      -7.9      2.883      3.502
REMARK  5 active torsions:
REMARK  status: ('A' for Active; 'I' for Inactive)
REMARK    1  A    between atoms: O_2  and  C_3 
REMARK    2  A    between atoms: C_7  and  C_8 
REMARK    3  A    between atoms: C_8  and  C_9 
REMARK       I    between atoms: C_9  and  N_10 
REMARK    4  A    between atoms: N_10  and  C_11 
REMARK    5  A    between atoms: C_11  and  C_12 
ROOT
HETATM    1  C   UNL     1      -6.323   2.675 -30.167  1.00  0.00     0.222 C 
HETATM    2  N   UNL     1      -5.443   3.397 -29.398  1.00  0.00    -0.354 N 
HETATM    3  O   UNL     1      -7.260   3.204 -30.762  1.00  0.00    -0.273 OA
HETATM    4  H   UNL     1      -4.566   2.978 -29.099  1.00  0.00     0.162 HD
ENDROOT
BRANCH   1   5
HETATM    5  C   UNL     1      -6.108   1.172 -30.182  1.00  0.00     0.144 C 
BRANCH   5   6
HETATM    6  C   UNL     1      -6.746   0.476 -31.338  1.00  0.00    -0.014 A 
HETATM    7  C   UNL     1      -6.148  -0.428 -32.274  1.00  0.00     0.006 A 
HETATM    8  C   UNL     1      -7.162  -0.801 -33.148  1.00  0.00     0.088 A 
HETATM    9  C   UNL     1      -4.869  -0.977 -32.472  1.00  0.00     0.017 A 
HETATM   10  C   UNL     1      -7.008  -1.697 -34.207  1.00  0.00     0.074 A 
HETATM   11  O   UNL     1      -8.323  -0.171 -32.822  1.00  0.00    -0.321 OA
HETATM   12  C   UNL     1      -5.735  -2.249 -34.377  1.00  0.00     0.070 A 
HETATM   13  C   UNL     1      -4.685  -1.886 -33.524  1.00  0.00     0.038 A 
HETATM   14  C   UNL     1      -8.065   0.597 -31.735  1.00  0.00     0.151 A 
BRANCH  12  15
HETATM   15  O   UNL     1      -5.387  -3.155 -35.345  1.00  0.00    -0.356 OA
HETATM   16  C   UNL     1      -6.101  -4.385 -35.357  1.00  0.00     0.210 C 
ENDBRANCH  12  15
ENDBRANCH   5   6
ENDBRANCH   1   5
BRANCH   2  17
HETATM   17  C   UNL     1      -5.479   4.838 -29.413  1.00  0.00     0.201 C 
BRANCH  17  18
HETATM   18  C   UNL     1      -4.470   5.335 -30.387  1.00  0.00     0.123 A 
HETATM   19  N   UNL     1      -4.312   6.577 -30.808  1.00  0.00    -0.232 NA
HETATM   20  C   UNL     1      -3.237   6.542 -31.663  1.00  0.00     0.085 A 
HETATM   21  C   UNL     1      -2.734   5.251 -31.775  1.00  0.00     0.062 A 
HETATM   22  C   UNL     1      -2.627   7.580 -32.381  1.00  0.00     0.034 A 
HETATM   23  N   UNL     1      -3.539   4.501 -30.957  1.00  0.00    -0.341 N 
HETATM   24  C   UNL     1      -1.640   4.921 -32.578  1.00  0.00     0.032 A 
HETATM   25  H   UNL     1      -3.454   3.509 -30.795  1.00  0.00     0.167 HD
HETATM   26  C   UNL     1      -1.044   5.970 -33.287  1.00  0.00     0.002 A 
HETATM   27  C   UNL     1      -1.525   7.278 -33.192  1.00  0.00     0.002 A 
ENDBRANCH  17  18
ENDBRANCH   2  17
TORSDOF 5
ENDMDL
MODEL 10
REMARK VINA RESULT:      -7.8      2.539      3.314
REMARK  5 active torsions:
REMARK  status: ('A' for Active; 'I' for Inactive)
REMARK    1  A    between atoms: O_2  and  C_3 
REMARK    2  A    between atoms: C_7  and  C_8 
REMARK    3  A    between atoms: C_8  and  C_9 
REMARK       I    between atoms: C_9  and  N_10 
REMARK    4  A    between atoms: N_10  and  C_11 
REMARK    5  A    between atoms: C_11  and  C_12 
ROOT
HETATM    1  C   UNL     1      -7.042   3.188 -32.737  1.00  0.00     0.222 C 
HETATM    2  N   UNL     1      -6.491   3.912 -33.767  1.00  0.00    -0.354 N 
HETATM    3  O   UNL     1      -7.164   3.650 -31.604  1.00  0.00    -0.273 OA
HETATM    4  H   UNL     1      -6.599   3.593 -34.727  1.00  0.00     0.162 HD
ENDROOT
BRANCH   1   5
HETATM    5  C   UNL     1      -7.428   1.758 -33.068  1.00  0.00     0.144 C 
BRANCH   5   6
HETATM    6  C   UNL     1      -6.271   0.818 -33.150  1.00  0.00    -0.014 A 
HETATM    7  C   UNL     1      -6.245  -0.521 -33.659  1.00  0.00     0.006 A 
HETATM    8  C   UNL     1      -4.934  -0.959 -33.521  1.00  0.00     0.088 A 
HETATM    9  C   UNL     1      -7.181  -1.403 -34.229  1.00  0.00     0.017 A 
HETATM   10  C   UNL     1      -4.470  -2.213 -33.918  1.00  0.00     0.074 A 
HETATM   11  O   UNL     1      -4.171   0.009 -32.944  1.00  0.00    -0.321 OA
HETATM   12  C   UNL     1      -5.408  -3.070 -34.502  1.00  0.00     0.070 A 
HETATM   13  C   UNL     1      -6.742  -2.668 -34.645  1.00  0.00     0.038 A 
HETATM   14  C   UNL     1      -4.982   1.073 -32.722  1.00  0.00     0.151 A 
BRANCH  12  15
HETATM   15  O   UNL     1      -5.146  -4.332 -34.969  1.00  0.00    -0.356 OA
HETATM   16  C   UNL     1      -4.435  -5.202 -34.096  1.00  0.00     0.210 C 
ENDBRANCH  12  15
ENDBRANCH   5   6
ENDBRANCH   1   5
BRANCH   2  17
HETATM   17  C   UNL     1      -6.206   5.315 -33.598  1.00  0.00     0.201 C 
BRANCH  17  18
HETATM   18  C   UNL     1      -4.765   5.475 -33.266  1.00  0.00     0.123 A 
HETATM   19  N   UNL     1      -3.913   6.332 -33.802  1.00  0.00    -0.232 NA
HETATM   20  C   UNL     1      -2.723   6.127 -33.147  1.00  0.00     0.085 A 
HETATM   21  C   UNL     1      -2.846   5.119 -32.198  1.00  0.00     0.062 A 
HETATM   22  C   UNL     1      -1.489   6.772 -33.306  1.00  0.00     0.034 A 
HETATM   23  N   UNL     1      -4.153   4.717 -32.297  1.00  0.00    -0.341 N 
HETATM   24  C   UNL     1      -1.792   4.701 -31.382  1.00  0.00     0.032 A 
HETATM   25  H   UNL     1      -4.591   3.995 -31.745  1.00  0.00     0.167 HD
HETATM   26  C   UNL     1      -0.568   5.355 -31.555  1.00  0.00     0.002 A 
HETATM   27  C   UNL     1      -0.415   6.374 -32.498  1.00  0.00     0.002 A 
ENDBRANCH  17  18
ENDBRANCH   2  17
TORSDOF 5
ENDMDL
