MODEL 1
REMARK VINA RESULT:      -9.5      0.000      0.000
REMARK  6 active torsions:
REMARK  status: ('A' for Active; 'I' for Inactive)
REMARK    1  A    between atoms: C_4  and  C_5 
REMARK    2  A    between atoms: C_5  and  N_6 
REMARK    3  A    between atoms: C_14  and  C_15 
REMARK    4  A    between atoms: C_18  and  O_19 
REMARK    5  A    between atoms: O_19  and  C_20 
REMARK    6  A    between atoms: C_20  and  C_21 
ROOT
HETATM    1  N   UNL     1      -2.157   5.402 -31.421  1.00  0.00    -0.063 N 
HETATM    2  H   UNL     1      -1.847   4.745 -30.695  1.00  0.00     0.280 HD
HETATM    3  C   UNL     1      -3.583   5.769 -31.035  1.00  0.00     0.282 C 
HETATM    4  C   UNL     1      -4.444   4.553 -31.104  1.00  0.00     0.018 A 
HETATM    5  C   UNL     1      -4.127   3.400 -31.800  1.00  0.00    -0.023 A 
HETATM    6  C   UNL     1      -5.145   2.406 -31.638  1.00  0.00     0.073 A 
HETATM    7  C   UNL     1      -6.188   2.862 -30.867  1.00  0.00     0.088 A 
HETATM    8  N   UNL     1      -7.266   2.117 -30.562  1.00  0.00    -0.358 N 
HETATM    9  C   UNL     1      -7.503   0.861 -31.241  1.00  0.00     0.219 C 
HETATM   10  N   UNL     1      -6.296   0.329 -31.820  1.00  0.00    -0.332 N 
HETATM   11  C   UNL     1      -5.188   1.052 -32.153  1.00  0.00     0.256 C 
HETATM   12  O   UNL     1      -4.281   0.574 -32.825  1.00  0.00    -0.267 OA
HETATM   13  S   UNL     1      -5.956   4.461 -30.332  1.00  0.00    -0.074 SA
HETATM   14  C   UNL     1      -2.840   3.263 -32.559  1.00  0.00     0.068 C 
HETATM   15  C   UNL     1      -2.129   4.622 -32.730  1.00  0.00     0.240 C 
HETATM   16  H   UNL     1      -8.095   2.553 -30.167  1.00  0.00     0.162 HD
HETATM   17  H   UNL     1      -6.344  -0.592 -32.233  1.00  0.00     0.165 HD
ENDROOT
BRANCH   9  18
HETATM   18  C   UNL     1      -8.612   0.995 -32.265  1.00  0.00    -0.016 A 
HETATM   19  C   UNL     1      -9.708   0.115 -32.299  1.00  0.00     0.014 A 
HETATM   20  C   UNL     1     -10.737   0.274 -33.235  1.00  0.00     0.037 A 
HETATM   21  C   UNL     1     -10.688   1.319 -34.157  1.00  0.00     0.069 A 
HETATM   22  C   UNL     1      -9.592   2.182 -34.151  1.00  0.00     0.037 A 
HETATM   23  C   UNL     1      -8.564   2.026 -33.216  1.00  0.00     0.014 A 
BRANCH  21  24
HETATM   24  O   UNL     1     -11.628   1.600 -35.107  1.00  0.00    -0.347 OA
BRANCH  24  25
HETATM   25  C   UNL     1     -12.356   2.818 -34.962  1.00  0.00     0.214 C 
BRANCH  25  26
HETATM   26  C   UNL     1     -13.409   2.617 -33.900  1.00  0.00    -0.034 A 
HETATM   27  C   UNL     1     -14.344   1.578 -34.017  1.00  0.00     0.009 A 
HETATM   28  C   UNL     1     -15.324   1.395 -33.040  1.00  0.00     0.001 A 
HETATM   29  C   UNL     1     -15.381   2.250 -31.940  1.00  0.00     0.000 A 
HETATM   30  C   UNL     1     -14.464   3.291 -31.819  1.00  0.00     0.001 A 
HETATM   31  C   UNL     1     -13.483   3.476 -32.795  1.00  0.00     0.009 A 
ENDBRANCH  25  26
ENDBRANCH  24  25
ENDBRANCH  21  24
ENDBRANCH   9  18
BRANCH   1  32
HETATM   32  C   UNL     1      -1.191   6.555 -31.355  1.00  0.00     0.273 C 
BRANCH  32  33
HETATM   33  C   UNL     1      -0.456   6.722 -30.054  1.00  0.00    -0.033 A 
HETATM   34  C   UNL     1       0.155   5.618 -29.437  1.00  0.00     0.009 A 
HETATM   35  C   UNL     1       0.821   5.764 -28.220  1.00  0.00     0.001 A 
HETATM   36  C   UNL     1       0.889   7.013 -27.607  1.00  0.00     0.000 A 
HETATM   37  C   UNL     1       0.299   8.118 -28.214  1.00  0.00     0.001 A 
HETATM   38  C   UNL     1      -0.369   7.977 -29.432  1.00  0.00     0.009 A 
ENDBRANCH  32  33
ENDBRANCH   1  32
TORSDOF 6
ENDMDL
MODEL 2
REMARK VINA RESULT:      -9.4      4.697      7.428
REMARK  6 active torsions:
REMARK  status: ('A' for Active; 'I' for Inactive)
REMARK    1  A    between atoms: C_4  and  C_5 
REMARK    2  A    between atoms: C_5  and  N_6 
REMARK    3  A    between atoms: C_14  and  C_15 
REMARK    4  A    between atoms: C_18  and  O_19 
REMARK    5  A    between atoms: O_19  and  C_20 
REMARK    6  A    between atoms: C_20  and  C_21 
ROOT
HETATM    1  N   UNL     1      -0.425   9.616 -26.781  1.00  0.00    -0.063 N 
HETATM    2  H   UNL     1       0.376   9.901 -27.357  1.00  0.00     0.280 HD
HETATM    3  C   UNL     1      -0.370   8.095 -26.757  1.00  0.00     0.282 C 
HETATM    4  C   UNL     1      -0.576   7.570 -28.138  1.00  0.00     0.018 A 
HETATM    5  C   UNL     1      -1.142   8.285 -29.178  1.00  0.00    -0.023 A 
HETATM    6  C   UNL     1      -1.164   7.511 -30.383  1.00  0.00     0.073 A 
HETATM    7  C   UNL     1      -0.654   6.249 -30.189  1.00  0.00     0.088 A 
HETATM    8  N   UNL     1      -0.560   5.329 -31.167  1.00  0.00    -0.358 N 
HETATM    9  C   UNL     1      -1.225   5.539 -32.435  1.00  0.00     0.219 C 
HETATM   10  N   UNL     1      -1.509   6.933 -32.668  1.00  0.00    -0.332 N 
HETATM   11  C   UNL     1      -1.624   7.891 -31.704  1.00  0.00     0.256 C 
HETATM   12  O   UNL     1      -2.065   9.008 -31.951  1.00  0.00    -0.267 OA
HETATM   13  S   UNL     1      -0.145   5.987 -28.587  1.00  0.00    -0.074 SA
HETATM   14  C   UNL     1      -1.599   9.704 -29.005  1.00  0.00     0.068 C 
HETATM   15  C   UNL     1      -1.666  10.106 -27.517  1.00  0.00     0.240 C 
HETATM   16  H   UNL     1      -0.371   4.357 -30.939  1.00  0.00     0.162 HD
HETATM   17  H   UNL     1      -1.886   7.187 -33.569  1.00  0.00     0.165 HD
ENDROOT
BRANCH   9  18
HETATM   18  C   UNL     1      -2.469   4.680 -32.549  1.00  0.00    -0.016 A 
HETATM   19  C   UNL     1      -3.454   4.919 -33.522  1.00  0.00     0.014 A 
HETATM   20  C   UNL     1      -4.581   4.095 -33.629  1.00  0.00     0.037 A 
HETATM   21  C   UNL     1      -4.742   3.014 -32.763  1.00  0.00     0.069 A 
HETATM   22  C   UNL     1      -3.784   2.784 -31.776  1.00  0.00     0.037 A 
HETATM   23  C   UNL     1      -2.657   3.604 -31.668  1.00  0.00     0.014 A 
BRANCH  21  24
HETATM   24  O   UNL     1      -5.778   2.124 -32.769  1.00  0.00    -0.347 OA
BRANCH  24  25
HETATM   25  C   UNL     1      -5.607   0.922 -32.022  1.00  0.00     0.214 C 
BRANCH  25  26
HETATM   26  C   UNL     1      -5.655  -0.243 -32.980  1.00  0.00    -0.034 A 
HETATM   27  C   UNL     1      -4.555  -1.103 -33.105  1.00  0.00     0.009 A 
HETATM   28  C   UNL     1      -4.593  -2.177 -33.996  1.00  0.00     0.001 A 
HETATM   29  C   UNL     1      -5.728  -2.397 -34.775  1.00  0.00     0.000 A 
HETATM   30  C   UNL     1      -6.823  -1.542 -34.667  1.00  0.00     0.001 A 
HETATM   31  C   UNL     1      -6.787  -0.468 -33.776  1.00  0.00     0.009 A 
ENDBRANCH  25  26
ENDBRANCH  24  25
ENDBRANCH  21  24
ENDBRANCH   9  18
BRANCH   1  32
HETATM   32  C   UNL     1      -0.197  10.255 -25.436  1.00  0.00     0.273 C 
BRANCH  32  33
HETATM   33  C   UNL     1       1.037   9.813 -24.701  1.00  0.00    -0.033 A 
HETATM   34  C   UNL     1       2.173   9.388 -25.410  1.00  0.00     0.009 A 
HETATM   35  C   UNL     1       3.313   8.958 -24.732  1.00  0.00     0.001 A 
HETATM   36  C   UNL     1       3.336   8.954 -23.339  1.00  0.00     0.000 A 
HETATM   37  C   UNL     1       2.223   9.384 -22.623  1.00  0.00     0.001 A 
HETATM   38  C   UNL     1       1.078   9.814 -23.298  1.00  0.00     0.009 A 
ENDBRANCH  32  33
ENDBRANCH   1  32
TORSDOF 6
ENDMDL
MODEL 3
REMARK VINA RESULT:      -9.3      4.263     12.877
REMARK  6 active torsions:
REMARK  status: ('A' for Active; 'I' for Inactive)
REMARK    1  A    between atoms: C_4  and  C_5 
REMARK    2  A    between atoms: C_5  and  N_6 
REMARK    3  A    between atoms: C_14  and  C_15 
REMARK    4  A    between atoms: C_18  and  O_19 
REMARK    5  A    between atoms: O_19  and  C_20 
REMARK    6  A    between atoms: C_20  and  C_21 
ROOT
HETATM    1  N   UNL     1      -5.710   2.577 -31.609  1.00  0.00    -0.063 N 
HETATM    2  H   UNL     1      -5.677   3.008 -32.541  1.00  0.00     0.280 HD
HETATM    3  C   UNL     1      -5.987   3.729 -30.654  1.00  0.00     0.282 C 
HETATM    4  C   UNL     1      -4.846   4.688 -30.688  1.00  0.00     0.018 A 
HETATM    5  C   UNL     1      -3.579   4.390 -31.158  1.00  0.00    -0.023 A 
HETATM    6  C   UNL     1      -2.722   5.535 -31.087  1.00  0.00     0.073 A 
HETATM    7  C   UNL     1      -3.363   6.621 -30.540  1.00  0.00     0.088 A 
HETATM    8  N   UNL     1      -2.777   7.820 -30.370  1.00  0.00    -0.358 N 
HETATM    9  C   UNL     1      -1.346   7.964 -30.531  1.00  0.00     0.219 C 
HETATM   10  N   UNL     1      -0.786   6.902 -31.328  1.00  0.00    -0.332 N 
HETATM   11  C   UNL     1      -1.343   5.671 -31.515  1.00  0.00     0.256 C 
HETATM   12  O   UNL     1      -0.721   4.750 -32.034  1.00  0.00    -0.267 OA
HETATM   13  S   UNL     1      -4.977   6.285 -30.119  1.00  0.00    -0.074 SA
HETATM   14  C   UNL     1      -3.237   3.035 -31.705  1.00  0.00     0.068 C 
HETATM   15  C   UNL     1      -4.323   1.992 -31.370  1.00  0.00     0.240 C 
HETATM   16  H   UNL     1      -3.214   8.526 -29.783  1.00  0.00     0.162 HD
HETATM   17  H   UNL     1       0.191   6.969 -31.575  1.00  0.00     0.165 HD
ENDROOT
BRANCH   9  18
HETATM   18  C   UNL     1      -0.654   8.090 -29.188  1.00  0.00    -0.016 A 
HETATM   19  C   UNL     1      -1.175   8.882 -28.151  1.00  0.00     0.014 A 
HETATM   20  C   UNL     1      -0.535   8.960 -26.908  1.00  0.00     0.037 A 
HETATM   21  C   UNL     1       0.639   8.245 -26.679  1.00  0.00     0.069 A 
HETATM   22  C   UNL     1       1.180   7.477 -27.710  1.00  0.00     0.037 A 
HETATM   23  C   UNL     1       0.543   7.396 -28.952  1.00  0.00     0.014 A 
BRANCH  21  24
HETATM   24  O   UNL     1       1.352   8.216 -25.514  1.00  0.00    -0.347 OA
BRANCH  24  25
HETATM   25  C   UNL     1       1.837   9.461 -25.018  1.00  0.00     0.214 C 
BRANCH  25  26
HETATM   26  C   UNL     1       2.891   9.178 -23.976  1.00  0.00    -0.034 A 
HETATM   27  C   UNL     1       4.234   9.499 -24.221  1.00  0.00     0.009 A 
HETATM   28  C   UNL     1       5.213   9.230 -23.263  1.00  0.00     0.001 A 
HETATM   29  C   UNL     1       4.860   8.634 -22.053  1.00  0.00     0.000 A 
HETATM   30  C   UNL     1       3.530   8.302 -21.803  1.00  0.00     0.001 A 
HETATM   31  C   UNL     1       2.550   8.570 -22.760  1.00  0.00     0.009 A 
ENDBRANCH  25  26
ENDBRANCH  24  25
ENDBRANCH  21  24
ENDBRANCH   9  18
BRANCH   1  32
HETATM   32  C   UNL     1      -6.819   1.561 -31.677  1.00  0.00     0.273 C 
BRANCH  32  33
HETATM   33  C   UNL     1      -6.795   0.641 -32.866  1.00  0.00    -0.033 A 
HETATM   34  C   UNL     1      -7.144   1.120 -34.141  1.00  0.00     0.009 A 
HETATM   35  C   UNL     1      -7.143   0.266 -35.243  1.00  0.00     0.001 A 
HETATM   36  C   UNL     1      -6.788  -1.072 -35.089  1.00  0.00     0.000 A 
HETATM   37  C   UNL     1      -6.428  -1.557 -33.835  1.00  0.00     0.001 A 
HETATM   38  C   UNL     1      -6.428  -0.706 -32.728  1.00  0.00     0.009 A 
ENDBRANCH  32  33
ENDBRANCH   1  32
TORSDOF 6
ENDMDL
MODEL 4
REMARK VINA RESULT:      -9.2      4.654     11.622
REMARK  6 active torsions:
REMARK  status: ('A' for Active; 'I' for Inactive)
REMARK    1  A    between atoms: C_4  and  C_5 
REMARK    2  A    between atoms: C_5  and  N_6 
REMARK    3  A    between atoms: C_14  and  C_15 
REMARK    4  A    between atoms: C_18  and  O_19 
REMARK    5  A    between atoms: O_19  and  C_20 
REMARK    6  A    between atoms: C_20  and  C_21 
ROOT
HETATM    1  N   UNL     1      -5.469   1.348 -31.926  1.00  0.00    -0.063 N 
HETATM    2  H   UNL     1      -5.241   1.469 -32.920  1.00  0.00     0.280 HD
HETATM    3  C   UNL     1      -6.225   2.611 -31.540  1.00  0.00     0.282 C 
HETATM    4  C   UNL     1      -5.322   3.791 -31.674  1.00  0.00     0.018 A 
HETATM    5  C   UNL     1      -3.941   3.726 -31.717  1.00  0.00    -0.023 A 
HETATM    6  C   UNL     1      -3.370   5.028 -31.886  1.00  0.00     0.073 A 
HETATM    7  C   UNL     1      -4.334   6.008 -31.924  1.00  0.00     0.088 A 
HETATM    8  N   UNL     1      -4.056   7.316 -32.080  1.00  0.00    -0.358 N 
HETATM    9  C   UNL     1      -2.694   7.793 -31.969  1.00  0.00     0.219 C 
HETATM   10  N   UNL     1      -1.737   6.737 -32.184  1.00  0.00    -0.332 N 
HETATM   11  C   UNL     1      -1.977   5.403 -32.025  1.00  0.00     0.256 C 
HETATM   12  O   UNL     1      -1.070   4.578 -32.026  1.00  0.00    -0.267 OA
HETATM   13  S   UNL     1      -5.909   5.384 -31.768  1.00  0.00    -0.074 SA
HETATM   14  C   UNL     1      -3.208   2.418 -31.646  1.00  0.00     0.068 C 
HETATM   15  C   UNL     1      -4.133   1.268 -31.197  1.00  0.00     0.240 C 
HETATM   16  H   UNL     1      -4.771   8.016 -31.900  1.00  0.00     0.162 HD
HETATM   17  H   UNL     1      -0.761   6.993 -32.221  1.00  0.00     0.165 HD
ENDROOT
BRANCH   9  18
HETATM   18  C   UNL     1      -2.469   8.502 -30.649  1.00  0.00    -0.016 A 
HETATM   19  C   UNL     1      -2.302   7.800 -29.443  1.00  0.00     0.014 A 
HETATM   20  C   UNL     1      -2.065   8.475 -28.239  1.00  0.00     0.037 A 
HETATM   21  C   UNL     1      -1.990   9.867 -28.221  1.00  0.00     0.069 A 
HETATM   22  C   UNL     1      -2.182  10.575 -29.407  1.00  0.00     0.037 A 
HETATM   23  C   UNL     1      -2.417   9.904 -30.610  1.00  0.00     0.014 A 
BRANCH  21  24
HETATM   24  O   UNL     1      -1.747  10.647 -27.125  1.00  0.00    -0.347 OA
BRANCH  24  25
HETATM   25  C   UNL     1      -0.479  11.295 -27.057  1.00  0.00     0.214 C 
BRANCH  25  26
HETATM   26  C   UNL     1       0.477  10.390 -26.320  1.00  0.00    -0.034 A 
HETATM   27  C   UNL     1       1.243   9.447 -27.021  1.00  0.00     0.009 A 
HETATM   28  C   UNL     1       2.122   8.602 -26.341  1.00  0.00     0.001 A 
HETATM   29  C   UNL     1       2.241   8.689 -24.955  1.00  0.00     0.000 A 
HETATM   30  C   UNL     1       1.478   9.615 -24.247  1.00  0.00     0.001 A 
HETATM   31  C   UNL     1       0.598  10.460 -24.925  1.00  0.00     0.009 A 
ENDBRANCH  25  26
ENDBRANCH  24  25
ENDBRANCH  21  24
ENDBRANCH   9  18
BRANCH   1  32
HETATM   32  C   UNL     1      -6.300   0.095 -31.857  1.00  0.00     0.273 C 
BRANCH  32  33
HETATM   33  C   UNL     1      -6.023  -0.936 -32.915  1.00  0.00    -0.033 A 
HETATM   34  C   UNL     1      -7.057  -1.391 -33.752  1.00  0.00     0.009 A 
HETATM   35  C   UNL     1      -6.809  -2.362 -34.722  1.00  0.00     0.001 A 
HETATM   36  C   UNL     1      -5.527  -2.886 -34.873  1.00  0.00     0.000 A 
HETATM   37  C   UNL     1      -4.491  -2.435 -34.060  1.00  0.00     0.001 A 
HETATM   38  C   UNL     1      -4.734  -1.464 -33.087  1.00  0.00     0.009 A 
ENDBRANCH  32  33
ENDBRANCH   1  32
TORSDOF 6
ENDMDL
MODEL 5
REMARK VINA RESULT:      -9.1      1.362      2.082
REMARK  6 active torsions:
REMARK  status: ('A' for Active; 'I' for Inactive)
REMARK    1  A    between atoms: C_4  and  C_5 
REMARK    2  A    between atoms: C_5  and  N_6 
REMARK    3  A    between atoms: C_14  and  C_15 
REMARK    4  A    between atoms: C_18  and  O_19 
REMARK    5  A    between atoms: O_19  and  C_20 
REMARK    6  A    between atoms: C_20  and  C_21 
ROOT
HETATM    1  N   UNL     1      -2.960   7.269 -29.961  1.00  0.00    -0.063 N 
HETATM    2  H   UNL     1      -2.441   6.654 -29.323  1.00  0.00     0.280 HD
HETATM    3  C   UNL     1      -4.420   7.100 -29.568  1.00  0.00     0.282 C 
HETATM    4  C   UNL     1      -4.844   5.693 -29.823  1.00  0.00     0.018 A 
HETATM    5  C   UNL     1      -4.184   4.810 -30.659  1.00  0.00    -0.023 A 
HETATM    6  C   UNL     1      -4.823   3.528 -30.660  1.00  0.00     0.073 A 
HETATM    7  C   UNL     1      -5.942   3.514 -29.863  1.00  0.00     0.088 A 
HETATM    8  N   UNL     1      -6.716   2.427 -29.690  1.00  0.00    -0.358 N 
HETATM    9  C   UNL     1      -6.548   1.266 -30.538  1.00  0.00     0.219 C 
HETATM   10  N   UNL     1      -5.244   1.236 -31.152  1.00  0.00    -0.332 N 
HETATM   11  C   UNL     1      -4.436   2.316 -31.355  1.00  0.00     0.256 C 
HETATM   12  O   UNL     1      -3.435   2.253 -32.061  1.00  0.00    -0.267 OA
HETATM   13  S   UNL     1      -6.230   5.013 -29.111  1.00  0.00    -0.074 SA
HETATM   14  C   UNL     1      -2.936   5.201 -31.396  1.00  0.00     0.068 C 
HETATM   15  C   UNL     1      -2.706   6.726 -31.363  1.00  0.00     0.240 C 
HETATM   16  H   UNL     1      -7.634   2.514 -29.262  1.00  0.00     0.162 HD
HETATM   17  H   UNL     1      -4.999   0.415 -31.686  1.00  0.00     0.165 HD
ENDROOT
BRANCH   9  18
HETATM   18  C   UNL     1      -7.659   1.173 -31.564  1.00  0.00    -0.016 A 
HETATM   19  C   UNL     1      -7.656   0.204 -32.582  1.00  0.00     0.014 A 
HETATM   20  C   UNL     1      -8.709   0.117 -33.502  1.00  0.00     0.037 A 
HETATM   21  C   UNL     1      -9.785   0.999 -33.419  1.00  0.00     0.069 A 
HETATM   22  C   UNL     1      -9.785   1.982 -32.430  1.00  0.00     0.037 A 
HETATM   23  C   UNL     1      -8.737   2.071 -31.510  1.00  0.00     0.014 A 
BRANCH  21  24
HETATM   24  O   UNL     1     -10.881   1.012 -34.235  1.00  0.00    -0.347 OA
BRANCH  24  25
HETATM   25  C   UNL     1     -11.578   2.249 -34.368  1.00  0.00     0.214 C 
BRANCH  25  26
HETATM   26  C   UNL     1     -12.992   2.050 -33.882  1.00  0.00    -0.034 A 
HETATM   27  C   UNL     1     -13.483   2.801 -32.804  1.00  0.00     0.009 A 
HETATM   28  C   UNL     1     -14.789   2.614 -32.347  1.00  0.00     0.001 A 
HETATM   29  C   UNL     1     -15.614   1.671 -32.960  1.00  0.00     0.000 A 
HETATM   30  C   UNL     1     -15.133   0.912 -34.024  1.00  0.00     0.001 A 
HETATM   31  C   UNL     1     -13.828   1.098 -34.483  1.00  0.00     0.009 A 
ENDBRANCH  25  26
ENDBRANCH  24  25
ENDBRANCH  21  24
ENDBRANCH   9  18
BRANCH   1  32
HETATM   32  C   UNL     1      -2.418   8.652 -29.714  1.00  0.00     0.273 C 
BRANCH  32  33
HETATM   33  C   UNL     1      -1.157   8.726 -28.899  1.00  0.00    -0.033 A 
HETATM   34  C   UNL     1      -1.020   9.694 -27.889  1.00  0.00     0.009 A 
HETATM   35  C   UNL     1       0.156   9.780 -27.145  1.00  0.00     0.001 A 
HETATM   36  C   UNL     1       1.206   8.900 -27.393  1.00  0.00     0.000 A 
HETATM   37  C   UNL     1       1.079   7.928 -28.382  1.00  0.00     0.001 A 
HETATM   38  C   UNL     1      -0.096   7.838 -29.131  1.00  0.00     0.009 A 
ENDBRANCH  32  33
ENDBRANCH   1  32
TORSDOF 6
ENDMDL
MODEL 6
REMARK VINA RESULT:      -8.9      4.964     10.707
REMARK  6 active torsions:
REMARK  status: ('A' for Active; 'I' for Inactive)
REMARK    1  A    between atoms: C_4  and  C_5 
REMARK    2  A    between atoms: C_5  and  N_6 
REMARK    3  A    between atoms: C_14  and  C_15 
REMARK    4  A    between atoms: C_18  and  O_19 
REMARK    5  A    between atoms: O_19  and  C_20 
REMARK    6  A    between atoms: C_20  and  C_21 
ROOT
HETATM    1  N   UNL     1      -4.067  -0.805 -32.523  1.00  0.00    -0.063 N 
HETATM    2  H   UNL     1      -4.759  -0.560 -33.241  1.00  0.00     0.280 HD
HETATM    3  C   UNL     1      -4.765  -0.539 -31.197  1.00  0.00     0.282 C 
HETATM    4  C   UNL     1      -5.067   0.917 -31.079  1.00  0.00     0.018 A 
HETATM    5  C   UNL     1      -4.453   1.912 -31.819  1.00  0.00    -0.023 A 
HETATM    6  C   UNL     1      -4.990   3.200 -31.494  1.00  0.00     0.073 A 
HETATM    7  C   UNL     1      -5.947   3.121 -30.511  1.00  0.00     0.088 A 
HETATM    8  N   UNL     1      -6.608   4.191 -30.031  1.00  0.00    -0.358 N 
HETATM    9  C   UNL     1      -6.167   5.530 -30.359  1.00  0.00     0.219 C 
HETATM   10  N   UNL     1      -5.360   5.552 -31.553  1.00  0.00    -0.332 N 
HETATM   11  C   UNL     1      -4.667   4.493 -32.062  1.00  0.00     0.256 C 
HETATM   12  O   UNL     1      -3.842   4.631 -32.960  1.00  0.00    -0.267 OA
HETATM   13  S   UNL     1      -6.211   1.526 -29.980  1.00  0.00    -0.074 SA
HETATM   14  C   UNL     1      -3.406   1.601 -32.848  1.00  0.00     0.068 C 
HETATM   15  C   UNL     1      -2.897   0.150 -32.726  1.00  0.00     0.240 C 
HETATM   16  H   UNL     1      -7.151   4.117 -29.175  1.00  0.00     0.162 HD
HETATM   17  H   UNL     1      -5.085   6.454 -31.913  1.00  0.00     0.165 HD
ENDROOT
BRANCH   9  18
HETATM   18  C   UNL     1      -5.459   6.175 -29.184  1.00  0.00    -0.016 A 
HETATM   19  C   UNL     1      -5.557   5.661 -27.880  1.00  0.00     0.014 A 
HETATM   20  C   UNL     1      -4.869   6.256 -26.814  1.00  0.00     0.037 A 
HETATM   21  C   UNL     1      -4.070   7.376 -27.035  1.00  0.00     0.069 A 
HETATM   22  C   UNL     1      -3.987   7.911 -28.320  1.00  0.00     0.037 A 
HETATM   23  C   UNL     1      -4.671   7.319 -29.386  1.00  0.00     0.014 A 
BRANCH  21  24
HETATM   24  O   UNL     1      -3.335   8.040 -26.094  1.00  0.00    -0.347 OA
BRANCH  24  25
HETATM   25  C   UNL     1      -2.227   7.345 -25.525  1.00  0.00     0.214 C 
BRANCH  25  26
HETATM   26  C   UNL     1      -1.002   7.651 -26.350  1.00  0.00    -0.034 A 
HETATM   27  C   UNL     1      -0.274   6.614 -26.950  1.00  0.00     0.009 A 
HETATM   28  C   UNL     1       0.865   6.894 -27.708  1.00  0.00     0.001 A 
HETATM   29  C   UNL     1       1.289   8.212 -27.868  1.00  0.00     0.000 A 
HETATM   30  C   UNL     1       0.580   9.250 -27.268  1.00  0.00     0.001 A 
HETATM   31  C   UNL     1      -0.559   8.972 -26.511  1.00  0.00     0.009 A 
ENDBRANCH  25  26
ENDBRANCH  24  25
ENDBRANCH  21  24
ENDBRANCH   9  18
BRANCH   1  32
HETATM   32  C   UNL     1      -3.743  -2.257 -32.761  1.00  0.00     0.273 C 
BRANCH  32  33
HETATM   33  C   UNL     1      -4.693  -3.003 -33.656  1.00  0.00    -0.033 A 
HETATM   34  C   UNL     1      -5.855  -2.377 -34.138  1.00  0.00     0.009 A 
HETATM   35  C   UNL     1      -6.749  -3.072 -34.952  1.00  0.00     0.001 A 
HETATM   36  C   UNL     1      -6.493  -4.397 -35.298  1.00  0.00     0.000 A 
HETATM   37  C   UNL     1      -5.339  -5.025 -34.838  1.00  0.00     0.001 A 
HETATM   38  C   UNL     1      -4.441  -4.334 -34.022  1.00  0.00     0.009 A 
ENDBRANCH  32  33
ENDBRANCH   1  32
TORSDOF 6
ENDMDL
MODEL 7
REMARK VINA RESULT:      -8.8      5.820     10.148
REMARK  6 active torsions:
REMARK  status: ('A' for Active; 'I' for Inactive)
REMARK    1  A    between atoms: C_4  and  C_5 
REMARK    2  A    between atoms: C_5  and  N_6 
REMARK    3  A    between atoms: C_14  and  C_15 
REMARK    4  A    between atoms: C_18  and  O_19 
REMARK    5  A    between atoms: O_19  and  C_20 
REMARK    6  A    between atoms: C_20  and  C_21 
ROOT
HETATM    1  N   UNL     1     -12.960   7.446 -35.197  1.00  0.00    -0.063 N 
HETATM    2  H   UNL     1     -13.714   7.153 -34.565  1.00  0.00     0.280 HD
HETATM    3  C   UNL     1     -12.683   6.230 -36.069  1.00  0.00     0.282 C 
HETATM    4  C   UNL     1     -12.175   5.115 -35.218  1.00  0.00     0.018 A 
HETATM    5  C   UNL     1     -11.639   5.270 -33.952  1.00  0.00    -0.023 A 
HETATM    6  C   UNL     1     -11.277   4.004 -33.388  1.00  0.00     0.073 A 
HETATM    7  C   UNL     1     -11.521   2.968 -34.259  1.00  0.00     0.088 A 
HETATM    8  N   UNL     1     -11.273   1.678 -33.965  1.00  0.00    -0.358 N 
HETATM    9  C   UNL     1     -10.498   1.331 -32.793  1.00  0.00     0.219 C 
HETATM   10  N   UNL     1     -10.496   2.393 -31.818  1.00  0.00    -0.332 N 
HETATM   11  C   UNL     1     -10.731   3.711 -32.078  1.00  0.00     0.256 C 
HETATM   12  O   UNL     1     -10.514   4.584 -31.245  1.00  0.00    -0.267 OA
HETATM   13  S   UNL     1     -12.181   3.495 -35.735  1.00  0.00    -0.074 SA
HETATM   14  C   UNL     1     -11.532   6.616 -33.298  1.00  0.00     0.068 C 
HETATM   15  C   UNL     1     -11.765   7.762 -34.305  1.00  0.00     0.240 C 
HETATM   16  H   UNL     1     -11.275   0.976 -34.700  1.00  0.00     0.162 HD
HETATM   17  H   UNL     1     -10.060   2.206 -30.926  1.00  0.00     0.165 HD
ENDROOT
BRANCH   9  18
HETATM   18  C   UNL     1      -9.093   0.907 -33.172  1.00  0.00    -0.016 A 
HETATM   19  C   UNL     1      -8.089   0.707 -32.210  1.00  0.00     0.014 A 
HETATM   20  C   UNL     1      -6.805   0.286 -32.580  1.00  0.00     0.037 A 
HETATM   21  C   UNL     1      -6.504   0.057 -33.921  1.00  0.00     0.069 A 
HETATM   22  C   UNL     1      -7.485   0.279 -34.887  1.00  0.00     0.037 A 
HETATM   23  C   UNL     1      -8.767   0.699 -34.521  1.00  0.00     0.014 A 
BRANCH  21  24
HETATM   24  O   UNL     1      -5.304  -0.371 -34.416  1.00  0.00    -0.347 OA
BRANCH  24  25
HETATM   25  C   UNL     1      -4.486  -1.155 -33.550  1.00  0.00     0.214 C 
BRANCH  25  26
HETATM   26  C   UNL     1      -4.676  -2.609 -33.907  1.00  0.00    -0.034 A 
HETATM   27  C   UNL     1      -5.791  -3.016 -34.653  1.00  0.00     0.009 A 
HETATM   28  C   UNL     1      -5.973  -4.362 -34.978  1.00  0.00     0.001 A 
HETATM   29  C   UNL     1      -5.044  -5.313 -34.557  1.00  0.00     0.000 A 
HETATM   30  C   UNL     1      -3.938  -4.921 -33.807  1.00  0.00     0.001 A 
HETATM   31  C   UNL     1      -3.754  -3.576 -33.481  1.00  0.00     0.009 A 
ENDBRANCH  25  26
ENDBRANCH  24  25
ENDBRANCH  21  24
ENDBRANCH   9  18
BRANCH   1  32
HETATM   32  C   UNL     1     -13.509   8.626 -35.955  1.00  0.00     0.273 C 
BRANCH  32  33
HETATM   33  C   UNL     1     -12.822   8.951 -37.252  1.00  0.00    -0.033 A 
HETATM   34  C   UNL     1     -13.541   8.935 -38.459  1.00  0.00     0.009 A 
HETATM   35  C   UNL     1     -12.903   9.215 -39.668  1.00  0.00     0.001 A 
HETATM   36  C   UNL     1     -11.545   9.521 -39.685  1.00  0.00     0.000 A 
HETATM   37  C   UNL     1     -10.823   9.554 -38.495  1.00  0.00     0.001 A 
HETATM   38  C   UNL     1     -11.457   9.273 -37.283  1.00  0.00     0.009 A 
ENDBRANCH  32  33
ENDBRANCH   1  32
TORSDOF 6
ENDMDL
MODEL 8
REMARK VINA RESULT:      -8.7      4.688     10.147
REMARK  6 active torsions:
REMARK  status: ('A' for Active; 'I' for Inactive)
REMARK    1  A    between atoms: C_4  and  C_5 
REMARK    2  A    between atoms: C_5  and  N_6 
REMARK    3  A    between atoms: C_14  and  C_15 
REMARK    4  A    between atoms: C_18  and  O_19 
REMARK    5  A    between atoms: O_19  and  C_20 
REMARK    6  A    between atoms: C_20  and  C_21 
ROOT
HETATM    1  N   UNL     1      -5.469   1.579 -32.412  1.00  0.00    -0.063 N 
HETATM    2  H   UNL     1      -4.795   1.387 -33.163  1.00  0.00     0.280 HD
HETATM    3  C   UNL     1      -5.986   2.982 -32.696  1.00  0.00     0.282 C 
HETATM    4  C   UNL     1      -4.863   3.957 -32.580  1.00  0.00     0.018 A 
HETATM    5  C   UNL     1      -3.673   3.714 -31.917  1.00  0.00    -0.023 A 
HETATM    6  C   UNL     1      -2.790   4.837 -32.017  1.00  0.00     0.073 A 
HETATM    7  C   UNL     1      -3.362   5.877 -32.712  1.00  0.00     0.088 A 
HETATM    8  N   UNL     1      -2.735   7.044 -32.949  1.00  0.00    -0.358 N 
HETATM    9  C   UNL     1      -1.500   7.363 -32.266  1.00  0.00     0.219 C 
HETATM   10  N   UNL     1      -0.838   6.180 -31.775  1.00  0.00    -0.332 N 
HETATM   11  C   UNL     1      -1.440   4.985 -31.512  1.00  0.00     0.256 C 
HETATM   12  O   UNL     1      -0.861   4.088 -30.907  1.00  0.00    -0.267 OA
HETATM   13  S   UNL     1      -4.936   5.519 -33.248  1.00  0.00    -0.074 SA
HETATM   14  C   UNL     1      -3.394   2.400 -31.248  1.00  0.00     0.068 C 
HETATM   15  C   UNL     1      -4.670   1.544 -31.114  1.00  0.00     0.240 C 
HETATM   16  H   UNL     1      -3.259   7.848 -33.283  1.00  0.00     0.162 HD
HETATM   17  H   UNL     1       0.079   6.294 -31.368  1.00  0.00     0.165 HD
ENDROOT
BRANCH   9  18
HETATM   18  C   UNL     1      -1.729   8.381 -31.168  1.00  0.00    -0.016 A 
HETATM   19  C   UNL     1      -2.505   9.535 -31.370  1.00  0.00     0.014 A 
HETATM   20  C   UNL     1      -2.729  10.449 -30.332  1.00  0.00     0.037 A 
HETATM   21  C   UNL     1      -2.179  10.223 -29.071  1.00  0.00     0.069 A 
HETATM   22  C   UNL     1      -1.385   9.095 -28.867  1.00  0.00     0.037 A 
HETATM   23  C   UNL     1      -1.161   8.181 -29.900  1.00  0.00     0.014 A 
BRANCH  21  24
HETATM   24  O   UNL     1      -2.333  11.018 -27.971  1.00  0.00    -0.347 OA
BRANCH  24  25
HETATM   25  C   UNL     1      -3.636  11.089 -27.397  1.00  0.00     0.214 C 
BRANCH  25  26
HETATM   26  C   UNL     1      -4.103   9.683 -27.108  1.00  0.00    -0.034 A 
HETATM   27  C   UNL     1      -3.549   8.956 -26.045  1.00  0.00     0.009 A 
HETATM   28  C   UNL     1      -3.974   7.653 -25.780  1.00  0.00     0.001 A 
HETATM   29  C   UNL     1      -4.953   7.063 -26.579  1.00  0.00     0.000 A 
HETATM   30  C   UNL     1      -5.503   7.772 -27.644  1.00  0.00     0.001 A 
HETATM   31  C   UNL     1      -5.080   9.075 -27.910  1.00  0.00     0.009 A 
ENDBRANCH  25  26
ENDBRANCH  24  25
ENDBRANCH  21  24
ENDBRANCH   9  18
BRANCH   1  32
HETATM   32  C   UNL     1      -6.519   0.506 -32.533  1.00  0.00     0.273 C 
BRANCH  32  33
HETATM   33  C   UNL     1      -6.118  -0.721 -33.304  1.00  0.00    -0.033 A 
HETATM   34  C   UNL     1      -4.767  -1.097 -33.387  1.00  0.00     0.009 A 
HETATM   35  C   UNL     1      -4.388  -2.223 -34.118  1.00  0.00     0.001 A 
HETATM   36  C   UNL     1      -5.352  -2.989 -34.768  1.00  0.00     0.000 A 
HETATM   37  C   UNL     1      -6.695  -2.636 -34.683  1.00  0.00     0.001 A 
HETATM   38  C   UNL     1      -7.080  -1.509 -33.954  1.00  0.00     0.009 A 
ENDBRANCH  32  33
ENDBRANCH   1  32
TORSDOF 6
ENDMDL
MODEL 9
REMARK VINA RESULT:      -8.7      4.119     11.119
REMARK  6 active torsions:
REMARK  status: ('A' for Active; 'I' for Inactive)
REMARK    1  A    between atoms: C_4  and  C_5 
REMARK    2  A    between atoms: C_5  and  N_6 
REMARK    3  A    between atoms: C_14  and  C_15 
REMARK    4  A    between atoms: C_18  and  O_19 
REMARK    5  A    between atoms: O_19  and  C_20 
REMARK    6  A    between atoms: C_20  and  C_21 
ROOT
HETATM    1  N   UNL     1      -7.399  -0.280 -33.874  1.00  0.00    -0.063 N 
HETATM    2  H   UNL     1      -8.320   0.172 -33.829  1.00  0.00     0.280 HD
HETATM    3  C   UNL     1      -6.834  -0.162 -32.466  1.00  0.00     0.282 C 
HETATM    4  C   UNL     1      -6.634   1.277 -32.130  1.00  0.00     0.018 A 
HETATM    5  C   UNL     1      -6.558   2.300 -33.058  1.00  0.00    -0.023 A 
HETATM    6  C   UNL     1      -6.398   3.569 -32.412  1.00  0.00     0.073 A 
HETATM    7  C   UNL     1      -6.325   3.442 -31.046  1.00  0.00     0.088 A 
HETATM    8  N   UNL     1      -6.180   4.487 -30.210  1.00  0.00    -0.358 N 
HETATM    9  C   UNL     1      -5.843   5.796 -30.728  1.00  0.00     0.219 C 
HETATM   10  N   UNL     1      -6.179   5.923 -32.123  1.00  0.00    -0.332 N 
HETATM   11  C   UNL     1      -6.323   4.890 -33.003  1.00  0.00     0.256 C 
HETATM   12  O   UNL     1      -6.408   5.077 -34.212  1.00  0.00    -0.267 OA
HETATM   13  S   UNL     1      -6.452   1.825 -30.531  1.00  0.00    -0.074 SA
HETATM   14  C   UNL     1      -6.689   2.044 -34.531  1.00  0.00     0.068 C 
HETATM   15  C   UNL     1      -6.578   0.541 -34.862  1.00  0.00     0.240 C 
HETATM   16  H   UNL     1      -5.928   4.334 -29.237  1.00  0.00     0.162 HD
HETATM   17  H   UNL     1      -6.069   6.832 -32.548  1.00  0.00     0.165 HD
ENDROOT
BRANCH   9  18
HETATM   18  C   UNL     1      -4.390   6.132 -30.462  1.00  0.00    -0.016 A 
HETATM   19  C   UNL     1      -3.361   5.745 -31.338  1.00  0.00     0.014 A 
HETATM   20  C   UNL     1      -2.028   6.092 -31.088  1.00  0.00     0.037 A 
HETATM   21  C   UNL     1      -1.699   6.835 -29.955  1.00  0.00     0.069 A 
HETATM   22  C   UNL     1      -2.708   7.201 -29.064  1.00  0.00     0.037 A 
HETATM   23  C   UNL     1      -4.040   6.856 -29.312  1.00  0.00     0.014 A 
BRANCH  21  24
HETATM   24  O   UNL     1      -0.448   7.255 -29.602  1.00  0.00    -0.347 OA
BRANCH  24  25
HETATM   25  C   UNL     1       0.152   6.631 -28.469  1.00  0.00     0.214 C 
BRANCH  25  26
HETATM   26  C   UNL     1       0.652   7.713 -27.543  1.00  0.00    -0.034 A 
HETATM   27  C   UNL     1       0.157   9.021 -27.647  1.00  0.00     0.009 A 
HETATM   28  C   UNL     1       0.624  10.024 -26.797  1.00  0.00     0.001 A 
HETATM   29  C   UNL     1       1.593   9.732 -25.838  1.00  0.00     0.000 A 
HETATM   30  C   UNL     1       2.100   8.439 -25.732  1.00  0.00     0.001 A 
HETATM   31  C   UNL     1       1.634   7.433 -26.581  1.00  0.00     0.009 A 
ENDBRANCH  25  26
ENDBRANCH  24  25
ENDBRANCH  21  24
ENDBRANCH   9  18
BRANCH   1  32
HETATM   32  C   UNL     1      -7.670  -1.697 -34.306  1.00  0.00     0.273 C 
BRANCH  32  33
HETATM   33  C   UNL     1      -6.481  -2.617 -34.320  1.00  0.00    -0.033 A 
HETATM   34  C   UNL     1      -6.612  -3.939 -34.780  1.00  0.00     0.009 A 
HETATM   35  C   UNL     1      -5.517  -4.802 -34.775  1.00  0.00     0.001 A 
HETATM   36  C   UNL     1      -4.279  -4.357 -34.319  1.00  0.00     0.000 A 
HETATM   37  C   UNL     1      -4.132  -3.047 -33.873  1.00  0.00     0.001 A 
HETATM   38  C   UNL     1      -5.225  -2.179 -33.874  1.00  0.00     0.009 A 
ENDBRANCH  32  33
ENDBRANCH   1  32
TORSDOF 6
ENDMDL
MODEL 10
REMARK VINA RESULT:      -8.7      5.472      9.586
REMARK  6 active torsions:
REMARK  status: ('A' for Active; 'I' for Inactive)
REMARK    1  A    between atoms: C_4  and  C_5 
REMARK    2  A    between atoms: C_5  and  N_6 
REMARK    3  A    between atoms: C_14  and  C_15 
REMARK    4  A    between atoms: C_18  and  O_19 
REMARK    5  A    between atoms: O_19  and  C_20 
REMARK    6  A    between atoms: C_20  and  C_21 
ROOT
HETATM    1  N   UNL     1     -12.214   6.912 -33.851  1.00  0.00    -0.063 N 
HETATM    2  H   UNL     1     -12.949   6.554 -33.229  1.00  0.00     0.280 HD
HETATM    3  C   UNL     1     -11.850   5.737 -34.746  1.00  0.00     0.282 C 
HETATM    4  C   UNL     1     -11.270   4.641 -33.916  1.00  0.00     0.018 A 
HETATM    5  C   UNL     1     -10.752   4.806 -32.644  1.00  0.00    -0.023 A 
HETATM    6  C   UNL     1     -10.306   3.556 -32.104  1.00  0.00     0.073 A 
HETATM    7  C   UNL     1     -10.474   2.525 -32.998  1.00  0.00     0.088 A 
HETATM    8  N   UNL     1     -10.138   1.249 -32.730  1.00  0.00    -0.358 N 
HETATM    9  C   UNL     1      -9.347   0.932 -31.560  1.00  0.00     0.219 C 
HETATM   10  N   UNL     1      -9.423   1.970 -30.563  1.00  0.00    -0.332 N 
HETATM   11  C   UNL     1      -9.747   3.274 -30.797  1.00  0.00     0.256 C 
HETATM   12  O   UNL     1      -9.595   4.142 -29.944  1.00  0.00    -0.267 OA
HETATM   13  S   UNL     1     -11.162   3.037 -34.467  1.00  0.00    -0.074 SA
HETATM   14  C   UNL     1     -10.741   6.142 -31.961  1.00  0.00     0.068 C 
HETATM   15  C   UNL     1     -11.048   7.290 -32.945  1.00  0.00     0.240 C 
HETATM   16  H   UNL     1     -10.088   0.564 -33.479  1.00  0.00     0.162 HD
HETATM   17  H   UNL     1      -8.980   1.794 -29.673  1.00  0.00     0.165 HD
ENDROOT
BRANCH   9  18
HETATM   18  C   UNL     1      -7.914   0.614 -31.939  1.00  0.00    -0.016 A 
HETATM   19  C   UNL     1      -6.978   0.150 -30.999  1.00  0.00     0.014 A 
HETATM   20  C   UNL     1      -5.667  -0.166 -31.377  1.00  0.00     0.037 A 
HETATM   21  C   UNL     1      -5.269  -0.024 -32.706  1.00  0.00     0.069 A 
HETATM   22  C   UNL     1      -6.182   0.461 -33.642  1.00  0.00     0.037 A 
HETATM   23  C   UNL     1      -7.491   0.776 -33.268  1.00  0.00     0.014 A 
BRANCH  21  24
HETATM   24  O   UNL     1      -4.033  -0.313 -33.212  1.00  0.00    -0.347 OA
BRANCH  24  25
HETATM   25  C   UNL     1      -3.360  -1.449 -32.674  1.00  0.00     0.214 C 
BRANCH  25  26
HETATM   26  C   UNL     1      -3.926  -2.687 -33.324  1.00  0.00    -0.034 A 
HETATM   27  C   UNL     1      -3.465  -3.958 -32.951  1.00  0.00     0.009 A 
HETATM   28  C   UNL     1      -3.982  -5.105 -33.556  1.00  0.00     0.001 A 
HETATM   29  C   UNL     1      -4.961  -4.992 -34.543  1.00  0.00     0.000 A 
HETATM   30  C   UNL     1      -5.419  -3.734 -34.929  1.00  0.00     0.001 A 
HETATM   31  C   UNL     1      -4.904  -2.586 -34.324  1.00  0.00     0.009 A 
ENDBRANCH  25  26
ENDBRANCH  24  25
ENDBRANCH  21  24
ENDBRANCH   9  18
BRANCH   1  32
HETATM   32  C   UNL     1     -12.840   8.067 -34.586  1.00  0.00     0.273 C 
BRANCH  32  33
HETATM   33  C   UNL     1     -12.170   8.468 -35.871  1.00  0.00    -0.033 A 
HETATM   34  C   UNL     1     -12.857   8.361 -37.093  1.00  0.00     0.009 A 
HETATM   35  C   UNL     1     -12.233   8.712 -38.290  1.00  0.00     0.001 A 
HETATM   36  C   UNL     1     -10.920   9.178 -38.282  1.00  0.00     0.000 A 
HETATM   37  C   UNL     1     -10.233   9.300 -37.078  1.00  0.00     0.001 A 
HETATM   38  C   UNL     1     -10.853   8.950 -35.877  1.00  0.00     0.009 A 
ENDBRANCH  32  33
ENDBRANCH   1  32
TORSDOF 6
ENDMDL
