MODEL 1
REMARK VINA RESULT:      -8.5      0.000      0.000
REMARK  10 active torsions:
REMARK  status: ('A' for Active; 'I' for Inactive)
REMARK    1  A    between atoms: C_3  and  C_4 
REMARK    2  A    between atoms: C_4  and  C_5 
REMARK       I    between atoms: C_5  and  N_6 
REMARK    3  A    between atoms: N_6  and  C_7 
REMARK    4  A    between atoms: C_7  and  C_8 
REMARK    5  A    between atoms: C_8  and  O_9 
REMARK    6  A    between atoms: C_15  and  N_16 
REMARK    7  A    between atoms: N_16  and  C_17 
REMARK    8  A    between atoms: C_26  and  C_27 
REMARK    9  A    between atoms: C_27  and  O_28 
REMARK   10  A    between atoms: C_30  and  O_31 
ROOT
HETATM    1  C   UNL     1      -5.602   3.165 -29.642  1.00  0.00     0.016 C 
HETATM    2  C   UNL     1      -5.953   3.848 -31.005  1.00  0.00    -0.030 C 
HETATM    3  C   UNL     1      -5.219   3.083 -32.201  1.00  0.00     0.056 C 
HETATM    4  C   UNL     1      -5.995   1.844 -32.594  1.00  0.00     0.055 C 
HETATM    5  C   UNL     1      -7.246   1.527 -32.112  1.00  0.00     0.011 C 
HETATM    6  S   UNL     1      -7.779   0.051 -32.760  1.00  0.00    -0.060 SA
HETATM    7  C   UNL     1      -6.438   0.071 -33.850  1.00  0.00     0.150 C 
HETATM    8  N   UNL     1      -5.545   1.008 -33.602  1.00  0.00    -0.232 NA
HETATM    9  C   UNL     1      -8.060   2.352 -31.181  1.00  0.00     0.054 C 
HETATM   10  C   UNL     1      -7.534   3.814 -31.164  1.00  0.00     0.012 C 
HETATM   11  C   UNL     1      -8.140   4.773 -32.287  1.00  0.00     0.008 C 
HETATM   12  C   UNL     1      -9.545   5.214 -31.776  1.00  0.00     0.020 C 
HETATM   13  C   UNL     1      -7.281   6.066 -32.441  1.00  0.00     0.128 C 
HETATM   14  C   UNL     1      -6.487   6.387 -31.184  1.00  0.00     0.033 C 
HETATM   15  C   UNL     1      -5.433   5.317 -30.906  1.00  0.00     0.013 C 
ENDROOT
BRANCH   3  16
HETATM   16  C   UNL     1      -3.751   2.750 -31.863  1.00  0.00     0.114 C 
BRANCH  16  17
HETATM   17  C   UNL     1      -2.730   3.804 -32.242  1.00  0.00     0.218 C 
HETATM   18  N   UNL     1      -2.857   4.334 -33.498  1.00  0.00    -0.359 N 
HETATM   19  H   UNL     1      -3.750   4.232 -33.986  1.00  0.00     0.162 HD
HETATM   20  O   UNL     1      -1.791   4.078 -31.495  1.00  0.00    -0.274 OA
BRANCH  18  21
HETATM   21  C   UNL     1      -1.830   5.179 -34.075  1.00  0.00     0.148 C 
BRANCH  21  22
HETATM   22  C   UNL     1      -2.260   6.639 -34.270  1.00  0.00     0.186 C 
BRANCH  22  23
HETATM   23  O   UNL     1      -1.321   7.585 -33.748  1.00  0.00    -0.394 OA
HETATM   24  C   UNL     1      -1.558   7.913 -32.384  1.00  0.00     0.201 C 
ENDBRANCH  22  23
ENDBRANCH  21  22
ENDBRANCH  18  21
ENDBRANCH  16  17
ENDBRANCH   3  16
BRANCH  11  25
HETATM   25  C   UNL     1      -8.339   4.142 -33.692  1.00  0.00     0.176 C 
BRANCH  25  26
HETATM   26  O   UNL     1      -8.805   5.085 -34.652  1.00  0.00    -0.400 OA
HETATM   27  H   UNL     1      -8.193   5.843 -34.609  1.00  0.00     0.209 HD
ENDBRANCH  25  26
ENDBRANCH  11  25
BRANCH   7  28
HETATM   28  N   UNL     1      -6.399  -0.830 -34.867  1.00  0.00    -0.238 NA
HETATM   29  H   UNL     1      -5.983  -0.447 -35.711  1.00  0.00     0.136 HD
BRANCH  28  30
HETATM   30  C   UNL     1      -5.895  -2.149 -34.683  1.00  0.00     0.014 A 
HETATM   31  C   UNL     1      -4.612  -2.428 -34.195  1.00  0.00     0.024 A 
HETATM   32  C   UNL     1      -4.167  -3.747 -34.052  1.00  0.00     0.002 A 
HETATM   33  C   UNL     1      -5.013  -4.809 -34.355  1.00  0.00     0.000 A 
HETATM   34  C   UNL     1      -6.310  -4.553 -34.790  1.00  0.00     0.002 A 
HETATM   35  C   UNL     1      -6.750  -3.234 -34.939  1.00  0.00     0.024 A 
ENDBRANCH  28  30
ENDBRANCH   7  28
BRANCH  13  36
HETATM   36  O   UNL     1      -6.368   5.946 -33.532  1.00  0.00    -0.395 OA
HETATM   37  H   UNL     1      -6.868   6.069 -34.359  1.00  0.00     0.210 HD
ENDBRANCH  13  36
TORSDOF 10
ENDMDL
MODEL 2
REMARK VINA RESULT:      -8.4      1.354      1.838
REMARK  10 active torsions:
REMARK  status: ('A' for Active; 'I' for Inactive)
REMARK    1  A    between atoms: C_3  and  C_4 
REMARK    2  A    between atoms: C_4  and  C_5 
REMARK       I    between atoms: C_5  and  N_6 
REMARK    3  A    between atoms: N_6  and  C_7 
REMARK    4  A    between atoms: C_7  and  C_8 
REMARK    5  A    between atoms: C_8  and  O_9 
REMARK    6  A    between atoms: C_15  and  N_16 
REMARK    7  A    between atoms: N_16  and  C_17 
REMARK    8  A    between atoms: C_26  and  C_27 
REMARK    9  A    between atoms: C_27  and  O_28 
REMARK   10  A    between atoms: C_30  and  O_31 
ROOT
HETATM    1  C   UNL     1      -6.029   4.142 -29.972  1.00  0.00     0.016 C 
HETATM    2  C   UNL     1      -6.626   4.045 -31.414  1.00  0.00    -0.030 C 
HETATM    3  C   UNL     1      -5.523   3.476 -32.422  1.00  0.00     0.056 C 
HETATM    4  C   UNL     1      -5.445   1.967 -32.326  1.00  0.00     0.055 C 
HETATM    5  C   UNL     1      -6.327   1.189 -31.608  1.00  0.00     0.011 C 
HETATM    6  S   UNL     1      -5.902  -0.452 -31.717  1.00  0.00    -0.060 SA
HETATM    7  C   UNL     1      -4.744  -0.047 -32.935  1.00  0.00     0.150 C 
HETATM    8  N   UNL     1      -4.547   1.247 -33.096  1.00  0.00    -0.232 NA
HETATM    9  C   UNL     1      -7.515   1.677 -30.860  1.00  0.00     0.054 C 
HETATM   10  C   UNL     1      -7.903   3.102 -31.343  1.00  0.00     0.012 C 
HETATM   11  C   UNL     1      -8.878   3.154 -32.605  1.00  0.00     0.008 C 
HETATM   12  C   UNL     1     -10.314   2.888 -32.062  1.00  0.00     0.020 C 
HETATM   13  C   UNL     1      -8.887   4.577 -33.246  1.00  0.00     0.128 C 
HETATM   14  C   UNL     1      -8.483   5.660 -32.257  1.00  0.00     0.033 C 
HETATM   15  C   UNL     1      -7.027   5.498 -31.822  1.00  0.00     0.013 C 
ENDROOT
BRANCH   3  16
HETATM   16  C   UNL     1      -4.144   4.130 -32.201  1.00  0.00     0.114 C 
BRANCH  16  17
HETATM   17  C   UNL     1      -3.581   4.899 -33.380  1.00  0.00     0.218 C 
HETATM   18  N   UNL     1      -2.273   4.644 -33.691  1.00  0.00    -0.359 N 
HETATM   19  H   UNL     1      -1.843   3.785 -33.338  1.00  0.00     0.162 HD
HETATM   20  O   UNL     1      -4.242   5.770 -33.945  1.00  0.00    -0.274 OA
BRANCH  18  21
HETATM   21  C   UNL     1      -1.543   5.459 -34.641  1.00  0.00     0.148 C 
BRANCH  21  22
HETATM   22  C   UNL     1      -0.785   6.631 -34.005  1.00  0.00     0.186 C 
BRANCH  22  23
HETATM   23  O   UNL     1      -1.590   7.801 -33.824  1.00  0.00    -0.394 OA
HETATM   24  C   UNL     1      -1.872   8.078 -32.458  1.00  0.00     0.201 C 
ENDBRANCH  22  23
ENDBRANCH  21  22
ENDBRANCH  18  21
ENDBRANCH  16  17
ENDBRANCH   3  16
BRANCH  11  25
HETATM   25  C   UNL     1      -8.609   2.111 -33.723  1.00  0.00     0.176 C 
BRANCH  25  26
HETATM   26  O   UNL     1      -9.604   2.134 -34.741  1.00  0.00    -0.400 OA
HETATM   27  H   UNL     1      -9.970   3.037 -34.746  1.00  0.00     0.209 HD
ENDBRANCH  25  26
ENDBRANCH  11  25
BRANCH   7  28
HETATM   28  N   UNL     1      -4.148  -1.045 -33.639  1.00  0.00    -0.238 NA
HETATM   29  H   UNL     1      -3.272  -1.346 -33.222  1.00  0.00     0.136 HD
BRANCH  28  30
HETATM   30  C   UNL     1      -4.865  -2.204 -34.051  1.00  0.00     0.014 A 
HETATM   31  C   UNL     1      -6.163  -2.167 -34.575  1.00  0.00     0.024 A 
HETATM   32  C   UNL     1      -6.823  -3.344 -34.946  1.00  0.00     0.002 A 
HETATM   33  C   UNL     1      -6.180  -4.573 -34.838  1.00  0.00     0.000 A 
HETATM   34  C   UNL     1      -4.871  -4.625 -34.371  1.00  0.00     0.002 A 
HETATM   35  C   UNL     1      -4.215  -3.449 -33.993  1.00  0.00     0.024 A 
ENDBRANCH  28  30
ENDBRANCH   7  28
BRANCH  13  36
HETATM   36  O   UNL     1      -8.003   4.638 -34.367  1.00  0.00    -0.395 OA
HETATM   37  H   UNL     1      -7.093   4.526 -34.038  1.00  0.00     0.210 HD
ENDBRANCH  13  36
TORSDOF 10
ENDMDL
MODEL 3
REMARK VINA RESULT:      -8.1      3.266      7.640
REMARK  10 active torsions:
REMARK  status: ('A' for Active; 'I' for Inactive)
REMARK    1  A    between atoms: C_3  and  C_4 
REMARK    2  A    between atoms: C_4  and  C_5 
REMARK       I    between atoms: C_5  and  N_6 
REMARK    3  A    between atoms: N_6  and  C_7 
REMARK    4  A    between atoms: C_7  and  C_8 
REMARK    5  A    between atoms: C_8  and  O_9 
REMARK    6  A    between atoms: C_15  and  N_16 
REMARK    7  A    between atoms: N_16  and  C_17 
REMARK    8  A    between atoms: C_26  and  C_27 
REMARK    9  A    between atoms: C_27  and  O_28 
REMARK   10  A    between atoms: C_30  and  O_31 
ROOT
HETATM    1  C   UNL     1      -6.329   2.446 -34.077  1.00  0.00     0.016 C 
HETATM    2  C   UNL     1      -6.088   2.546 -32.535  1.00  0.00    -0.030 C 
HETATM    3  C   UNL     1      -4.554   2.239 -32.204  1.00  0.00     0.056 C 
HETATM    4  C   UNL     1      -3.704   3.470 -32.440  1.00  0.00     0.055 C 
HETATM    5  C   UNL     1      -4.211   4.720 -32.724  1.00  0.00     0.011 C 
HETATM    6  S   UNL     1      -2.952   5.837 -32.952  1.00  0.00    -0.060 SA
HETATM    7  C   UNL     1      -1.828   4.652 -32.385  1.00  0.00     0.150 C 
HETATM    8  N   UNL     1      -2.335   3.444 -32.235  1.00  0.00    -0.232 NA
HETATM    9  C   UNL     1      -5.650   5.085 -32.793  1.00  0.00     0.054 C 
HETATM   10  C   UNL     1      -6.510   4.007 -32.077  1.00  0.00     0.012 C 
HETATM   11  C   UNL     1      -6.700   4.217 -30.506  1.00  0.00     0.008 C 
HETATM   12  C   UNL     1      -7.812   5.296 -30.337  1.00  0.00     0.020 C 
HETATM   13  C   UNL     1      -7.220   2.912 -29.827  1.00  0.00     0.128 C 
HETATM   14  C   UNL     1      -7.952   2.004 -30.804  1.00  0.00     0.033 C 
HETATM   15  C   UNL     1      -7.005   1.467 -31.876  1.00  0.00     0.013 C 
ENDROOT
BRANCH   3  16
HETATM   16  C   UNL     1      -4.023   1.023 -32.989  1.00  0.00     0.114 C 
BRANCH  16  17
HETATM   17  C   UNL     1      -3.304  -0.030 -32.169  1.00  0.00     0.218 C 
HETATM   18  N   UNL     1      -3.429  -1.319 -32.612  1.00  0.00    -0.359 N 
HETATM   19  H   UNL     1      -3.725  -1.481 -33.577  1.00  0.00     0.162 HD
HETATM   20  O   UNL     1      -2.735   0.261 -31.118  1.00  0.00    -0.274 OA
BRANCH  18  21
HETATM   21  C   UNL     1      -2.988  -2.445 -31.812  1.00  0.00     0.148 C 
BRANCH  21  22
HETATM   22  C   UNL     1      -3.322  -3.812 -32.420  1.00  0.00     0.186 C 
BRANCH  22  23
HETATM   23  O   UNL     1      -3.771  -3.739 -33.777  1.00  0.00    -0.394 OA
HETATM   24  C   UNL     1      -4.506  -4.887 -34.185  1.00  0.00     0.201 C 
ENDBRANCH  22  23
ENDBRANCH  21  22
ENDBRANCH  18  21
ENDBRANCH  16  17
ENDBRANCH   3  16
BRANCH  11  25
HETATM   25  C   UNL     1      -5.453   4.716 -29.726  1.00  0.00     0.176 C 
BRANCH  25  26
HETATM   26  O   UNL     1      -5.643   4.678 -28.315  1.00  0.00    -0.400 OA
HETATM   27  H   UNL     1      -6.334   5.335 -28.114  1.00  0.00     0.209 HD
ENDBRANCH  25  26
ENDBRANCH  11  25
BRANCH   7  28
HETATM   28  N   UNL     1      -0.550   5.027 -32.119  1.00  0.00    -0.238 NA
HETATM   29  H   UNL     1      -0.125   5.535 -32.889  1.00  0.00     0.136 HD
BRANCH  28  30
HETATM   30  C   UNL     1      -0.198   5.684 -30.906  1.00  0.00     0.014 A 
HETATM   31  C   UNL     1      -0.445   7.040 -30.658  1.00  0.00     0.024 A 
HETATM   32  C   UNL     1      -0.058   7.633 -29.451  1.00  0.00     0.002 A 
HETATM   33  C   UNL     1       0.544   6.871 -28.456  1.00  0.00     0.000 A 
HETATM   34  C   UNL     1       0.749   5.510 -28.662  1.00  0.00     0.002 A 
HETATM   35  C   UNL     1       0.369   4.920 -29.871  1.00  0.00     0.024 A 
ENDBRANCH  28  30
ENDBRANCH   7  28
BRANCH  13  36
HETATM   36  O   UNL     1      -6.145   2.174 -29.245  1.00  0.00    -0.395 OA
HETATM   37  H   UNL     1      -6.425   1.881 -28.360  1.00  0.00     0.210 HD
ENDBRANCH  13  36
TORSDOF 10
ENDMDL
MODEL 4
REMARK VINA RESULT:      -7.8      1.828      2.531
REMARK  10 active torsions:
REMARK  status: ('A' for Active; 'I' for Inactive)
REMARK    1  A    between atoms: C_3  and  C_4 
REMARK    2  A    between atoms: C_4  and  C_5 
REMARK       I    between atoms: C_5  and  N_6 
REMARK    3  A    between atoms: N_6  and  C_7 
REMARK    4  A    between atoms: C_7  and  C_8 
REMARK    5  A    between atoms: C_8  and  O_9 
REMARK    6  A    between atoms: C_15  and  N_16 
REMARK    7  A    between atoms: N_16  and  C_17 
REMARK    8  A    between atoms: C_26  and  C_27 
REMARK    9  A    between atoms: C_27  and  O_28 
REMARK   10  A    between atoms: C_30  and  O_31 
ROOT
HETATM    1  C   UNL     1      -7.917   3.749 -29.551  1.00  0.00     0.016 C 
HETATM    2  C   UNL     1      -7.647   3.827 -31.090  1.00  0.00    -0.030 C 
HETATM    3  C   UNL     1      -6.093   3.584 -31.381  1.00  0.00     0.056 C 
HETATM    4  C   UNL     1      -5.778   2.103 -31.376  1.00  0.00     0.055 C 
HETATM    5  C   UNL     1      -6.729   1.108 -31.311  1.00  0.00     0.011 C 
HETATM    6  S   UNL     1      -5.992  -0.422 -31.300  1.00  0.00    -0.060 SA
HETATM    7  C   UNL     1      -4.478   0.329 -31.664  1.00  0.00     0.150 C 
HETATM    8  N   UNL     1      -4.489   1.645 -31.592  1.00  0.00    -0.232 NA
HETATM    9  C   UNL     1      -8.202   1.305 -31.289  1.00  0.00     0.054 C 
HETATM   10  C   UNL     1      -8.558   2.732 -31.793  1.00  0.00     0.012 C 
HETATM   11  C   UNL     1      -8.726   2.876 -33.373  1.00  0.00     0.008 C 
HETATM   12  C   UNL     1     -10.149   2.341 -33.715  1.00  0.00     0.020 C 
HETATM   13  C   UNL     1      -8.684   4.375 -33.805  1.00  0.00     0.128 C 
HETATM   14  C   UNL     1      -9.076   5.314 -32.674  1.00  0.00     0.033 C 
HETATM   15  C   UNL     1      -8.058   5.266 -31.536  1.00  0.00     0.013 C 
ENDROOT
BRANCH   3  16
HETATM   16  C   UNL     1      -5.191   4.360 -30.401  1.00  0.00     0.114 C 
BRANCH  16  17
HETATM   17  C   UNL     1      -4.062   5.153 -31.029  1.00  0.00     0.218 C 
HETATM   18  N   UNL     1      -2.896   4.468 -31.241  1.00  0.00    -0.359 N 
HETATM   19  H   UNL     1      -2.922   3.446 -31.251  1.00  0.00     0.162 HD
HETATM   20  O   UNL     1      -4.171   6.362 -31.233  1.00  0.00    -0.274 OA
BRANCH  18  21
HETATM   21  C   UNL     1      -1.673   5.146 -31.623  1.00  0.00     0.148 C 
BRANCH  21  22
HETATM   22  C   UNL     1      -1.376   5.098 -33.127  1.00  0.00     0.186 C 
BRANCH  22  23
HETATM   23  O   UNL     1      -2.121   6.056 -33.886  1.00  0.00    -0.394 OA
HETATM   24  C   UNL     1      -3.058   5.459 -34.774  1.00  0.00     0.201 C 
ENDBRANCH  22  23
ENDBRANCH  21  22
ENDBRANCH  18  21
ENDBRANCH  16  17
ENDBRANCH   3  16
BRANCH  11  25
HETATM   25  C   UNL     1      -7.715   2.084 -34.245  1.00  0.00     0.176 C 
BRANCH  25  26
HETATM   26  O   UNL     1      -8.336   1.037 -34.985  1.00  0.00    -0.400 OA
HETATM   27  H   UNL     1      -8.292   1.302 -35.922  1.00  0.00     0.209 HD
ENDBRANCH  25  26
ENDBRANCH  11  25
BRANCH   7  28
HETATM   28  N   UNL     1      -3.420  -0.450 -32.008  1.00  0.00    -0.238 NA
HETATM   29  H   UNL     1      -2.751  -0.555 -31.252  1.00  0.00     0.136 HD
BRANCH  28  30
HETATM   30  C   UNL     1      -3.593  -1.720 -32.628  1.00  0.00     0.014 A 
HETATM   31  C   UNL     1      -3.183  -2.928 -32.049  1.00  0.00     0.024 A 
HETATM   32  C   UNL     1      -3.364  -4.144 -32.716  1.00  0.00     0.002 A 
HETATM   33  C   UNL     1      -3.996  -4.177 -33.955  1.00  0.00     0.000 A 
HETATM   34  C   UNL     1      -4.459  -2.994 -34.522  1.00  0.00     0.002 A 
HETATM   35  C   UNL     1      -4.270  -1.778 -33.858  1.00  0.00     0.024 A 
ENDBRANCH  28  30
ENDBRANCH   7  28
BRANCH  13  36
HETATM   36  O   UNL     1      -7.381   4.740 -34.261  1.00  0.00    -0.395 OA
HETATM   37  H   UNL     1      -7.365   5.705 -34.387  1.00  0.00     0.210 HD
ENDBRANCH  13  36
TORSDOF 10
ENDMDL
MODEL 5
REMARK VINA RESULT:      -7.3      3.301      7.837
REMARK  10 active torsions:
REMARK  status: ('A' for Active; 'I' for Inactive)
REMARK    1  A    between atoms: C_3  and  C_4 
REMARK    2  A    between atoms: C_4  and  C_5 
REMARK       I    between atoms: C_5  and  N_6 
REMARK    3  A    between atoms: N_6  and  C_7 
REMARK    4  A    between atoms: C_7  and  C_8 
REMARK    5  A    between atoms: C_8  and  O_9 
REMARK    6  A    between atoms: C_15  and  N_16 
REMARK    7  A    between atoms: N_16  and  C_17 
REMARK    8  A    between atoms: C_26  and  C_27 
REMARK    9  A    between atoms: C_27  and  O_28 
REMARK   10  A    between atoms: C_30  and  O_31 
ROOT
HETATM    1  C   UNL     1      -9.660   2.914 -30.534  1.00  0.00     0.016 C 
HETATM    2  C   UNL     1      -8.889   2.405 -31.796  1.00  0.00    -0.030 C 
HETATM    3  C   UNL     1      -8.492   3.643 -32.726  1.00  0.00     0.056 C 
HETATM    4  C   UNL     1      -7.241   4.318 -32.204  1.00  0.00     0.055 C 
HETATM    5  C   UNL     1      -6.461   3.821 -31.183  1.00  0.00     0.011 C 
HETATM    6  S   UNL     1      -5.162   4.868 -30.861  1.00  0.00    -0.060 SA
HETATM    7  C   UNL     1      -5.564   5.767 -32.282  1.00  0.00     0.150 C 
HETATM    8  N   UNL     1      -6.710   5.429 -32.838  1.00  0.00    -0.232 NA
HETATM    9  C   UNL     1      -6.673   2.538 -30.464  1.00  0.00     0.054 C 
HETATM   10  C   UNL     1      -7.609   1.612 -31.289  1.00  0.00     0.012 C 
HETATM   11  C   UNL     1      -6.883   0.696 -32.375  1.00  0.00     0.008 C 
HETATM   12  C   UNL     1      -6.280  -0.513 -31.599  1.00  0.00     0.020 C 
HETATM   13  C   UNL     1      -7.910   0.119 -33.398  1.00  0.00     0.128 C 
HETATM   14  C   UNL     1      -9.320   0.057 -32.828  1.00  0.00     0.033 C 
HETATM   15  C   UNL     1      -9.870   1.456 -32.556  1.00  0.00     0.013 C 
ENDROOT
BRANCH   3  16
HETATM   16  C   UNL     1      -9.654   4.646 -32.884  1.00  0.00     0.114 C 
BRANCH  16  17
HETATM   17  C   UNL     1     -10.476   4.509 -34.151  1.00  0.00     0.218 C 
HETATM   18  N   UNL     1     -11.799   4.207 -33.974  1.00  0.00    -0.359 N 
HETATM   19  H   UNL     1     -12.222   4.373 -33.058  1.00  0.00     0.162 HD
HETATM   20  O   UNL     1      -9.948   4.567 -35.261  1.00  0.00    -0.274 OA
BRANCH  18  21
HETATM   21  C   UNL     1     -12.649   3.830 -35.086  1.00  0.00     0.148 C 
BRANCH  21  22
HETATM   22  C   UNL     1     -12.579   2.341 -35.448  1.00  0.00     0.186 C 
BRANCH  22  23
HETATM   23  O   UNL     1     -13.753   1.609 -35.083  1.00  0.00    -0.394 OA
HETATM   24  C   UNL     1     -13.671   1.031 -33.786  1.00  0.00     0.201 C 
ENDBRANCH  22  23
ENDBRANCH  21  22
ENDBRANCH  18  21
ENDBRANCH  16  17
ENDBRANCH   3  16
BRANCH  11  25
HETATM   25  C   UNL     1      -5.722   1.361 -33.165  1.00  0.00     0.176 C 
BRANCH  25  26
HETATM   26  O   UNL     1      -4.448   0.831 -32.811  1.00  0.00    -0.400 OA
HETATM   27  H   UNL     1      -4.472   0.684 -31.847  1.00  0.00     0.209 HD
ENDBRANCH  25  26
ENDBRANCH  11  25
BRANCH   7  28
HETATM   28  N   UNL     1      -4.698   6.712 -32.733  1.00  0.00    -0.238 NA
HETATM   29  H   UNL     1      -4.494   7.419 -32.034  1.00  0.00     0.136 HD
BRANCH  28  30
HETATM   30  C   UNL     1      -3.479   6.365 -33.382  1.00  0.00     0.014 A 
HETATM   31  C   UNL     1      -3.384   5.391 -34.384  1.00  0.00     0.024 A 
HETATM   32  C   UNL     1      -2.153   5.081 -34.973  1.00  0.00     0.002 A 
HETATM   33  C   UNL     1      -1.003   5.769 -34.597  1.00  0.00     0.000 A 
HETATM   34  C   UNL     1      -1.086   6.777 -33.641  1.00  0.00     0.002 A 
HETATM   35  C   UNL     1      -2.316   7.080 -33.049  1.00  0.00     0.024 A 
ENDBRANCH  28  30
ENDBRANCH   7  28
BRANCH  13  36
HETATM   36  O   UNL     1      -7.941   0.904 -34.591  1.00  0.00    -0.395 OA
HETATM   37  H   UNL     1      -8.042   1.838 -34.334  1.00  0.00     0.210 HD
ENDBRANCH  13  36
TORSDOF 10
ENDMDL
MODEL 6
REMARK VINA RESULT:      -7.2      2.082      3.281
REMARK  10 active torsions:
REMARK  status: ('A' for Active; 'I' for Inactive)
REMARK    1  A    between atoms: C_3  and  C_4 
REMARK    2  A    between atoms: C_4  and  C_5 
REMARK       I    between atoms: C_5  and  N_6 
REMARK    3  A    between atoms: N_6  and  C_7 
REMARK    4  A    between atoms: C_7  and  C_8 
REMARK    5  A    between atoms: C_8  and  O_9 
REMARK    6  A    between atoms: C_15  and  N_16 
REMARK    7  A    between atoms: N_16  and  C_17 
REMARK    8  A    between atoms: C_26  and  C_27 
REMARK    9  A    between atoms: C_27  and  O_28 
REMARK   10  A    between atoms: C_30  and  O_31 
ROOT
HETATM    1  C   UNL     1      -9.376   4.570 -30.860  1.00  0.00     0.016 C 
HETATM    2  C   UNL     1      -9.427   4.920 -32.383  1.00  0.00    -0.030 C 
HETATM    3  C   UNL     1      -8.181   4.257 -33.135  1.00  0.00     0.056 C 
HETATM    4  C   UNL     1      -8.459   2.799 -33.437  1.00  0.00     0.055 C 
HETATM    5  C   UNL     1      -9.681   2.188 -33.252  1.00  0.00     0.011 C 
HETATM    6  S   UNL     1      -9.596   0.545 -33.674  1.00  0.00    -0.060 SA
HETATM    7  C   UNL     1      -8.023   0.820 -34.338  1.00  0.00     0.150 C 
HETATM    8  N   UNL     1      -7.518   2.009 -34.073  1.00  0.00    -0.232 NA
HETATM    9  C   UNL     1     -10.928   2.848 -32.785  1.00  0.00     0.054 C 
HETATM   10  C   UNL     1     -10.812   4.389 -32.952  1.00  0.00     0.012 C 
HETATM   11  C   UNL     1     -11.241   4.956 -34.381  1.00  0.00     0.008 C 
HETATM   12  C   UNL     1     -12.797   5.017 -34.381  1.00  0.00     0.020 C 
HETATM   13  C   UNL     1     -10.724   6.414 -34.582  1.00  0.00     0.128 C 
HETATM   14  C   UNL     1     -10.482   7.129 -33.261  1.00  0.00     0.033 C 
HETATM   15  C   UNL     1      -9.344   6.477 -32.478  1.00  0.00     0.013 C 
ENDROOT
BRANCH   3  16
HETATM   16  C   UNL     1      -6.867   4.433 -32.348  1.00  0.00     0.114 C 
BRANCH  16  17
HETATM   17  C   UNL     1      -5.705   5.019 -33.124  1.00  0.00     0.218 C 
HETATM   18  N   UNL     1      -4.704   5.573 -32.373  1.00  0.00    -0.359 N 
HETATM   19  H   UNL     1      -4.634   5.320 -31.385  1.00  0.00     0.162 HD
HETATM   20  O   UNL     1      -5.725   5.075 -34.354  1.00  0.00    -0.274 OA
BRANCH  18  21
HETATM   21  C   UNL     1      -3.648   6.362 -32.977  1.00  0.00     0.148 C 
BRANCH  21  22
HETATM   22  C   UNL     1      -2.243   5.779 -32.780  1.00  0.00     0.186 C 
BRANCH  22  23
HETATM   23  O   UNL     1      -1.952   4.684 -33.655  1.00  0.00    -0.394 OA
HETATM   24  C   UNL     1      -1.512   5.100 -34.943  1.00  0.00     0.201 C 
ENDBRANCH  22  23
ENDBRANCH  21  22
ENDBRANCH  18  21
ENDBRANCH  16  17
ENDBRANCH   3  16
BRANCH  11  25
HETATM   25  C   UNL     1     -10.814   4.108 -35.610  1.00  0.00     0.176 C 
BRANCH  25  26
HETATM   26  O   UNL     1     -11.888   3.335 -36.138  1.00  0.00    -0.400 OA
HETATM   27  H   UNL     1     -11.791   2.441 -35.763  1.00  0.00     0.209 HD
ENDBRANCH  25  26
ENDBRANCH  11  25
BRANCH   7  28
HETATM   28  N   UNL     1      -7.438  -0.157 -35.079  1.00  0.00    -0.238 NA
HETATM   29  H   UNL     1      -7.190   0.158 -36.011  1.00  0.00     0.136 HD
BRANCH  28  30
HETATM   30  C   UNL     1      -6.364  -0.941 -34.572  1.00  0.00     0.014 A 
HETATM   31  C   UNL     1      -6.131  -2.272 -34.945  1.00  0.00     0.024 A 
HETATM   32  C   UNL     1      -5.066  -2.996 -34.398  1.00  0.00     0.002 A 
HETATM   33  C   UNL     1      -4.193  -2.391 -33.502  1.00  0.00     0.000 A 
HETATM   34  C   UNL     1      -4.375  -1.054 -33.160  1.00  0.00     0.002 A 
HETATM   35  C   UNL     1      -5.444  -0.333 -33.701  1.00  0.00     0.024 A 
ENDBRANCH  28  30
ENDBRANCH   7  28
BRANCH  13  36
HETATM   36  O   UNL     1      -9.507   6.427 -35.331  1.00  0.00    -0.395 OA
HETATM   37  H   UNL     1      -9.167   7.340 -35.335  1.00  0.00     0.210 HD
ENDBRANCH  13  36
TORSDOF 10
ENDMDL
MODEL 7
REMARK VINA RESULT:      -7.2     17.047     18.723
REMARK  10 active torsions:
REMARK  status: ('A' for Active; 'I' for Inactive)
REMARK    1  A    between atoms: C_3  and  C_4 
REMARK    2  A    between atoms: C_4  and  C_5 
REMARK       I    between atoms: C_5  and  N_6 
REMARK    3  A    between atoms: N_6  and  C_7 
REMARK    4  A    between atoms: C_7  and  C_8 
REMARK    5  A    between atoms: C_8  and  O_9 
REMARK    6  A    between atoms: C_15  and  N_16 
REMARK    7  A    between atoms: N_16  and  C_17 
REMARK    8  A    between atoms: C_26  and  C_27 
REMARK    9  A    between atoms: C_27  and  O_28 
REMARK   10  A    between atoms: C_30  and  O_31 
ROOT
HETATM    1  C   UNL     1      -8.202 -16.475 -37.986  1.00  0.00     0.016 C 
HETATM    2  C   UNL     1      -7.602 -15.035 -38.088  1.00  0.00    -0.030 C 
HETATM    3  C   UNL     1      -6.572 -14.789 -36.890  1.00  0.00     0.056 C 
HETATM    4  C   UNL     1      -5.225 -15.399 -37.215  1.00  0.00     0.055 C 
HETATM    5  C   UNL     1      -4.889 -15.927 -38.443  1.00  0.00     0.011 C 
HETATM    6  S   UNL     1      -3.306 -16.541 -38.415  1.00  0.00    -0.060 SA
HETATM    7  C   UNL     1      -3.075 -15.814 -36.863  1.00  0.00     0.150 C 
HETATM    8  N   UNL     1      -4.172 -15.327 -36.319  1.00  0.00    -0.232 NA
HETATM    9  C   UNL     1      -5.750 -15.944 -39.653  1.00  0.00     0.054 C 
HETATM   10  C   UNL     1      -6.899 -14.907 -39.507  1.00  0.00     0.012 C 
HETATM   11  C   UNL     1      -6.545 -13.424 -39.977  1.00  0.00     0.008 C 
HETATM   12  C   UNL     1      -6.662 -13.415 -41.531  1.00  0.00     0.020 C 
HETATM   13  C   UNL     1      -7.590 -12.401 -39.433  1.00  0.00     0.128 C 
HETATM   14  C   UNL     1      -8.929 -13.052 -39.122  1.00  0.00     0.033 C 
HETATM   15  C   UNL     1      -8.807 -14.048 -37.971  1.00  0.00     0.013 C 
ENDROOT
BRANCH   3  16
HETATM   16  C   UNL     1      -7.117 -15.303 -35.542  1.00  0.00     0.114 C 
BRANCH  16  17
HETATM   17  C   UNL     1      -6.791 -14.453 -34.330  1.00  0.00     0.218 C 
HETATM   18  N   UNL     1      -5.755 -14.894 -33.552  1.00  0.00    -0.359 N 
HETATM   19  H   UNL     1      -5.090 -15.560 -33.952  1.00  0.00     0.162 HD
HETATM   20  O   UNL     1      -7.491 -13.487 -34.023  1.00  0.00    -0.274 OA
BRANCH  18  21
HETATM   21  C   UNL     1      -5.477 -14.313 -32.253  1.00  0.00     0.148 C 
BRANCH  21  22
HETATM   22  C   UNL     1      -4.716 -15.245 -31.302  1.00  0.00     0.186 C 
BRANCH  22  23
HETATM   23  O   UNL     1      -5.362 -15.420 -30.037  1.00  0.00    -0.394 OA
HETATM   24  C   UNL     1      -5.603 -16.785 -29.717  1.00  0.00     0.201 C 
ENDBRANCH  22  23
ENDBRANCH  21  22
ENDBRANCH  18  21
ENDBRANCH  16  17
ENDBRANCH   3  16
BRANCH  11  25
HETATM   25  C   UNL     1      -5.123 -12.912 -39.620  1.00  0.00     0.176 C 
BRANCH  25  26
HETATM   26  O   UNL     1      -4.859 -11.619 -40.154  1.00  0.00    -0.400 OA
HETATM   27  H   UNL     1      -5.691 -11.316 -40.561  1.00  0.00     0.209 HD
ENDBRANCH  25  26
ENDBRANCH  11  25
BRANCH   7  28
HETATM   28  N   UNL     1      -1.825 -15.772 -36.332  1.00  0.00    -0.238 NA
HETATM   29  H   UNL     1      -1.604 -16.603 -35.791  1.00  0.00     0.136 HD
BRANCH  28  30
HETATM   30  C   UNL     1      -0.686 -15.437 -37.118  1.00  0.00     0.014 A 
HETATM   31  C   UNL     1       0.482 -16.210 -37.159  1.00  0.00     0.024 A 
HETATM   32  C   UNL     1       1.576 -15.819 -37.939  1.00  0.00     0.002 A 
HETATM   33  C   UNL     1       1.505 -14.671 -38.721  1.00  0.00     0.000 A 
HETATM   34  C   UNL     1       0.334 -13.919 -38.735  1.00  0.00     0.002 A 
HETATM   35  C   UNL     1      -0.756 -14.307 -37.950  1.00  0.00     0.024 A 
ENDBRANCH  28  30
ENDBRANCH   7  28
BRANCH  13  36
HETATM   36  O   UNL     1      -7.113 -11.764 -38.247  1.00  0.00    -0.395 OA
HETATM   37  H   UNL     1      -7.839 -11.229 -37.880  1.00  0.00     0.210 HD
ENDBRANCH  13  36
TORSDOF 10
ENDMDL
MODEL 8
REMARK VINA RESULT:      -6.9      3.305      7.399
REMARK  10 active torsions:
REMARK  status: ('A' for Active; 'I' for Inactive)
REMARK    1  A    between atoms: C_3  and  C_4 
REMARK    2  A    between atoms: C_4  and  C_5 
REMARK       I    between atoms: C_5  and  N_6 
REMARK    3  A    between atoms: N_6  and  C_7 
REMARK    4  A    between atoms: C_7  and  C_8 
REMARK    5  A    between atoms: C_8  and  O_9 
REMARK    6  A    between atoms: C_15  and  N_16 
REMARK    7  A    between atoms: N_16  and  C_17 
REMARK    8  A    between atoms: C_26  and  C_27 
REMARK    9  A    between atoms: C_27  and  O_28 
REMARK   10  A    between atoms: C_30  and  O_31 
ROOT
HETATM    1  C   UNL     1      -9.641   2.886 -30.532  1.00  0.00     0.016 C 
HETATM    2  C   UNL     1      -8.854   2.426 -31.803  1.00  0.00    -0.030 C 
HETATM    3  C   UNL     1      -8.441   3.700 -32.677  1.00  0.00     0.056 C 
HETATM    4  C   UNL     1      -7.195   4.350 -32.111  1.00  0.00     0.055 C 
HETATM    5  C   UNL     1      -6.430   3.809 -31.100  1.00  0.00     0.011 C 
HETATM    6  S   UNL     1      -5.133   4.838 -30.719  1.00  0.00    -0.060 SA
HETATM    7  C   UNL     1      -5.513   5.795 -32.109  1.00  0.00     0.150 C 
HETATM    8  N   UNL     1      -6.653   5.483 -32.693  1.00  0.00    -0.232 NA
HETATM    9  C   UNL     1      -6.655   2.499 -30.437  1.00  0.00     0.054 C 
HETATM   10  C   UNL     1      -7.583   1.610 -31.311  1.00  0.00     0.012 C 
HETATM   11  C   UNL     1      -6.843   0.736 -32.423  1.00  0.00     0.008 C 
HETATM   12  C   UNL     1      -6.254  -0.505 -31.688  1.00  0.00     0.020 C 
HETATM   13  C   UNL     1      -7.858   0.204 -33.482  1.00  0.00     0.128 C 
HETATM   14  C   UNL     1      -9.275   0.123 -32.935  1.00  0.00     0.033 C 
HETATM   15  C   UNL     1      -9.826   1.511 -32.614  1.00  0.00     0.013 C 
ENDROOT
BRANCH   3  16
HETATM   16  C   UNL     1      -9.597   4.711 -32.811  1.00  0.00     0.114 C 
BRANCH  16  17
HETATM   17  C   UNL     1      -9.988   5.084 -34.227  1.00  0.00     0.218 C 
HETATM   18  N   UNL     1      -9.807   6.396 -34.571  1.00  0.00    -0.359 N 
HETATM   19  H   UNL     1      -9.178   6.970 -34.005  1.00  0.00     0.162 HD
HETATM   20  O   UNL     1     -10.528   4.268 -34.974  1.00  0.00    -0.274 OA
BRANCH  18  21
HETATM   21  C   UNL     1     -10.339   6.940 -35.805  1.00  0.00     0.148 C 
BRANCH  21  22
HETATM   22  C   UNL     1     -11.721   7.589 -35.657  1.00  0.00     0.186 C 
BRANCH  22  23
HETATM   23  O   UNL     1     -12.798   6.733 -36.050  1.00  0.00    -0.394 OA
HETATM   24  C   UNL     1     -13.574   6.271 -34.950  1.00  0.00     0.201 C 
ENDBRANCH  22  23
ENDBRANCH  21  22
ENDBRANCH  18  21
ENDBRANCH  16  17
ENDBRANCH   3  16
BRANCH  11  25
HETATM   25  C   UNL     1      -5.670   1.428 -33.170  1.00  0.00     0.176 C 
BRANCH  25  26
HETATM   26  O   UNL     1      -4.396   0.999 -32.699  1.00  0.00    -0.400 OA
HETATM   27  H   UNL     1      -4.471   0.039 -32.546  1.00  0.00     0.209 HD
ENDBRANCH  25  26
ENDBRANCH  11  25
BRANCH   7  28
HETATM   28  N   UNL     1      -4.639   6.754 -32.509  1.00  0.00    -0.238 NA
HETATM   29  H   UNL     1      -4.418   7.414 -31.769  1.00  0.00     0.136 HD
BRANCH  28  30
HETATM   30  C   UNL     1      -3.432   6.432 -33.192  1.00  0.00     0.014 A 
HETATM   31  C   UNL     1      -2.201   7.045 -32.922  1.00  0.00     0.024 A 
HETATM   32  C   UNL     1      -1.052   6.697 -33.640  1.00  0.00     0.002 A 
HETATM   33  C   UNL     1      -1.105   5.703 -34.612  1.00  0.00     0.000 A 
HETATM   34  C   UNL     1      -2.307   5.045 -34.857  1.00  0.00     0.002 A 
HETATM   35  C   UNL     1      -3.456   5.399 -34.144  1.00  0.00     0.024 A 
ENDBRANCH  28  30
ENDBRANCH   7  28
BRANCH  13  36
HETATM   36  O   UNL     1      -7.870   1.036 -34.643  1.00  0.00    -0.395 OA
HETATM   37  H   UNL     1      -8.070   0.474 -35.413  1.00  0.00     0.210 HD
ENDBRANCH  13  36
TORSDOF 10
ENDMDL
MODEL 9
REMARK VINA RESULT:      -6.8      4.844      8.231
REMARK  10 active torsions:
REMARK  status: ('A' for Active; 'I' for Inactive)
REMARK    1  A    between atoms: C_3  and  C_4 
REMARK    2  A    between atoms: C_4  and  C_5 
REMARK       I    between atoms: C_5  and  N_6 
REMARK    3  A    between atoms: N_6  and  C_7 
REMARK    4  A    between atoms: C_7  and  C_8 
REMARK    5  A    between atoms: C_8  and  O_9 
REMARK    6  A    between atoms: C_15  and  N_16 
REMARK    7  A    between atoms: N_16  and  C_17 
REMARK    8  A    between atoms: C_26  and  C_27 
REMARK    9  A    between atoms: C_27  and  O_28 
REMARK   10  A    between atoms: C_30  and  O_31 
ROOT
HETATM    1  C   UNL     1      -6.451   8.578 -31.065  1.00  0.00     0.016 C 
HETATM    2  C   UNL     1      -5.886   7.120 -31.102  1.00  0.00    -0.030 C 
HETATM    3  C   UNL     1      -4.353   7.120 -30.647  1.00  0.00     0.056 C 
HETATM    4  C   UNL     1      -4.248   7.149 -29.137  1.00  0.00     0.055 C 
HETATM    5  C   UNL     1      -5.321   7.010 -28.282  1.00  0.00     0.011 C 
HETATM    6  S   UNL     1      -4.814   7.123 -26.665  1.00  0.00    -0.060 SA
HETATM    7  C   UNL     1      -3.170   7.069 -27.200  1.00  0.00     0.150 C 
HETATM    8  N   UNL     1      -3.016   7.169 -28.505  1.00  0.00    -0.232 NA
HETATM    9  C   UNL     1      -6.730   6.759 -28.680  1.00  0.00     0.054 C 
HETATM   10  C   UNL     1      -6.787   6.232 -30.141  1.00  0.00     0.012 C 
HETATM   11  C   UNL     1      -6.631   4.652 -30.304  1.00  0.00     0.008 C 
HETATM   12  C   UNL     1      -8.022   4.036 -29.969  1.00  0.00     0.020 C 
HETATM   13  C   UNL     1      -6.305   4.272 -31.782  1.00  0.00     0.128 C 
HETATM   14  C   UNL     1      -6.774   5.332 -32.768  1.00  0.00     0.033 C 
HETATM   15  C   UNL     1      -6.006   6.640 -32.583  1.00  0.00     0.013 C 
ENDROOT
BRANCH   3  16
HETATM   16  C   UNL     1      -3.556   8.271 -31.293  1.00  0.00     0.114 C 
BRANCH  16  17
HETATM   17  C   UNL     1      -2.448   7.858 -32.242  1.00  0.00     0.218 C 
HETATM   18  N   UNL     1      -2.232   6.511 -32.356  1.00  0.00    -0.359 N 
HETATM   19  H   UNL     1      -2.969   5.868 -32.057  1.00  0.00     0.162 HD
HETATM   20  O   UNL     1      -1.731   8.697 -32.787  1.00  0.00    -0.274 OA
BRANCH  18  21
HETATM   21  C   UNL     1      -1.072   5.982 -33.047  1.00  0.00     0.148 C 
BRANCH  21  22
HETATM   22  C   UNL     1      -1.355   5.528 -34.484  1.00  0.00     0.186 C 
BRANCH  22  23
HETATM   23  O   UNL     1      -2.474   4.642 -34.593  1.00  0.00    -0.394 OA
HETATM   24  C   UNL     1      -3.613   5.252 -35.188  1.00  0.00     0.201 C 
ENDBRANCH  22  23
ENDBRANCH  21  22
ENDBRANCH  18  21
ENDBRANCH  16  17
ENDBRANCH   3  16
BRANCH  11  25
HETATM   25  C   UNL     1      -5.590   3.967 -29.378  1.00  0.00     0.176 C 
BRANCH  25  26
HETATM   26  O   UNL     1      -5.610   2.548 -29.491  1.00  0.00    -0.400 OA
HETATM   27  H   UNL     1      -6.137   2.344 -30.285  1.00  0.00     0.209 HD
ENDBRANCH  25  26
ENDBRANCH  11  25
BRANCH   7  28
HETATM   28  N   UNL     1      -2.181   6.911 -26.282  1.00  0.00    -0.238 NA
HETATM   29  H   UNL     1      -2.055   5.941 -26.008  1.00  0.00     0.136 HD
BRANCH  28  30
HETATM   30  C   UNL     1      -0.894   7.494 -26.457  1.00  0.00     0.014 A 
HETATM   31  C   UNL     1       0.238   6.770 -26.854  1.00  0.00     0.024 A 
HETATM   32  C   UNL     1       1.481   7.397 -26.992  1.00  0.00     0.002 A 
HETATM   33  C   UNL     1       1.604   8.765 -26.776  1.00  0.00     0.000 A 
HETATM   34  C   UNL     1       0.481   9.512 -26.434  1.00  0.00     0.002 A 
HETATM   35  C   UNL     1      -0.760   8.882 -26.289  1.00  0.00     0.024 A 
ENDBRANCH  28  30
ENDBRANCH   7  28
BRANCH  13  36
HETATM   36  O   UNL     1      -4.902   4.078 -31.963  1.00  0.00    -0.395 OA
HETATM   37  H   UNL     1      -4.571   3.555 -31.210  1.00  0.00     0.210 HD
ENDBRANCH  13  36
TORSDOF 10
ENDMDL
MODEL 10
REMARK VINA RESULT:      -6.7      5.741      9.146
REMARK  10 active torsions:
REMARK  status: ('A' for Active; 'I' for Inactive)
REMARK    1  A    between atoms: C_3  and  C_4 
REMARK    2  A    between atoms: C_4  and  C_5 
REMARK       I    between atoms: C_5  and  N_6 
REMARK    3  A    between atoms: N_6  and  C_7 
REMARK    4  A    between atoms: C_7  and  C_8 
REMARK    5  A    between atoms: C_8  and  O_9 
REMARK    6  A    between atoms: C_15  and  N_16 
REMARK    7  A    between atoms: N_16  and  C_17 
REMARK    8  A    between atoms: C_26  and  C_27 
REMARK    9  A    between atoms: C_27  and  O_28 
REMARK   10  A    between atoms: C_30  and  O_31 
ROOT
HETATM    1  C   UNL     1      -6.200   9.043 -31.350  1.00  0.00     0.016 C 
HETATM    2  C   UNL     1      -5.589   7.803 -30.619  1.00  0.00    -0.030 C 
HETATM    3  C   UNL     1      -4.031   8.043 -30.353  1.00  0.00     0.056 C 
HETATM    4  C   UNL     1      -3.828   8.900 -29.121  1.00  0.00     0.055 C 
HETATM    5  C   UNL     1      -4.837   9.263 -28.255  1.00  0.00     0.011 C 
HETATM    6  S   UNL     1      -4.230  10.246 -27.010  1.00  0.00    -0.060 SA
HETATM    7  C   UNL     1      -2.624   9.894 -27.546  1.00  0.00     0.150 C 
HETATM    8  N   UNL     1      -2.559   9.256 -28.698  1.00  0.00    -0.232 NA
HETATM    9  C   UNL     1      -6.260   8.845 -28.345  1.00  0.00     0.054 C 
HETATM   10  C   UNL     1      -6.394   7.599 -29.265  1.00  0.00     0.012 C 
HETATM   11  C   UNL     1      -6.195   6.191 -28.541  1.00  0.00     0.008 C 
HETATM   12  C   UNL     1      -7.539   5.872 -27.821  1.00  0.00     0.020 C 
HETATM   13  C   UNL     1      -5.953   5.056 -29.585  1.00  0.00     0.128 C 
HETATM   14  C   UNL     1      -6.521   5.399 -30.954  1.00  0.00     0.033 C 
HETATM   15  C   UNL     1      -5.789   6.586 -31.577  1.00  0.00     0.013 C 
ENDROOT
BRANCH   3  16
HETATM   16  C   UNL     1      -3.318   8.641 -31.583  1.00  0.00     0.114 C 
BRANCH  16  17
HETATM   17  C   UNL     1      -2.318   7.735 -32.273  1.00  0.00     0.218 C 
HETATM   18  N   UNL     1      -2.116   6.514 -31.689  1.00  0.00    -0.359 N 
HETATM   19  H   UNL     1      -2.818   6.161 -31.033  1.00  0.00     0.162 HD
HETATM   20  O   UNL     1      -1.662   8.129 -33.237  1.00  0.00    -0.274 OA
BRANCH  18  21
HETATM   21  C   UNL     1      -1.037   5.640 -32.104  1.00  0.00     0.148 C 
BRANCH  21  22
HETATM   22  C   UNL     1       0.279   5.871 -31.352  1.00  0.00     0.186 C 
BRANCH  22  23
HETATM   23  O   UNL     1       0.749   4.714 -30.654  1.00  0.00    -0.394 OA
HETATM   24  C   UNL     1       0.836   4.907 -29.247  1.00  0.00     0.201 C 
ENDBRANCH  22  23
ENDBRANCH  21  22
ENDBRANCH  18  21
ENDBRANCH  16  17
ENDBRANCH   3  16
BRANCH  11  25
HETATM   25  C   UNL     1      -5.072   6.123 -27.471  1.00  0.00     0.176 C 
BRANCH  25  26
HETATM   26  O   UNL     1      -5.044   4.874 -26.788  1.00  0.00    -0.400 OA
HETATM   27  H   UNL     1      -4.515   5.014 -25.982  1.00  0.00     0.209 HD
ENDBRANCH  25  26
ENDBRANCH  11  25
BRANCH   7  28
HETATM   28  N   UNL     1      -1.572  10.262 -26.768  1.00  0.00    -0.238 NA
HETATM   29  H   UNL     1      -1.858  10.541 -25.835  1.00  0.00     0.136 HD
BRANCH  28  30
HETATM   30  C   UNL     1      -0.405   9.455 -26.654  1.00  0.00     0.014 A 
HETATM   31  C   UNL     1       0.889   9.920 -26.922  1.00  0.00     0.024 A 
HETATM   32  C   UNL     1       1.996   9.073 -26.808  1.00  0.00     0.002 A 
HETATM   33  C   UNL     1       1.832   7.758 -26.385  1.00  0.00     0.000 A 
HETATM   34  C   UNL     1       0.561   7.292 -26.062  1.00  0.00     0.002 A 
HETATM   35  C   UNL     1      -0.545   8.138 -26.184  1.00  0.00     0.024 A 
ENDBRANCH  28  30
ENDBRANCH   7  28
BRANCH  13  36
HETATM   36  O   UNL     1      -4.558   4.784 -29.731  1.00  0.00    -0.395 OA
HETATM   37  H   UNL     1      -4.372   3.930 -29.302  1.00  0.00     0.210 HD
ENDBRANCH  13  36
TORSDOF 10
ENDMDL
