MODEL 1
REMARK VINA RESULT:      -8.8      0.000      0.000
REMARK  3 active torsions:
REMARK  status: ('A' for Active; 'I' for Inactive)
REMARK    1  A    between atoms: C_6  and  O_7 
REMARK    2  A    between atoms: O_7  and  C_8 
REMARK       I    between atoms: N_10  and  C_11 
REMARK       I    between atoms: C_11  and  N_12 
REMARK    3  A    between atoms: N_12  and  C_13 
ROOT
HETATM    1  C   UNL     1      -5.618  -0.278 -32.881  1.00  0.00     0.148 C 
HETATM    2  C   UNL     1      -5.096   1.164 -32.926  1.00  0.00     0.160 C 
HETATM    3  N   UNL     1      -5.588   1.779 -31.701  1.00  0.00    -0.331 N 
HETATM    4  C   UNL     1      -5.065   2.870 -31.033  1.00  0.00     0.323 C 
HETATM    5  N   UNL     1      -4.154   3.588 -31.770  1.00  0.00    -0.309 N 
HETATM    6  O   UNL     1      -5.413   3.125 -29.884  1.00  0.00    -0.247 OA
HETATM    7  C   UNL     1      -6.562   0.921 -31.050  1.00  0.00     0.130 C 
HETATM    8  C   UNL     1      -6.925  -0.111 -32.102  1.00  0.00     0.054 C 
HETATM    9  H   UNL     1      -4.220   3.474 -32.769  1.00  0.00     0.170 HD
ENDROOT
BRANCH   5  10
HETATM   10  C   UNL     1      -3.294   4.609 -31.313  1.00  0.00     0.037 A 
HETATM   11  C   UNL     1      -1.898   4.528 -31.387  1.00  0.00     0.043 A 
HETATM   12  C   UNL     1      -1.108   5.611 -30.946  1.00  0.00    -0.006 A 
HETATM   13  C   UNL     1      -1.739   6.744 -30.440  1.00  0.00     0.042 A 
HETATM   14  C   UNL     1       0.293   5.852 -30.892  1.00  0.00     0.030 A 
HETATM   15  N   UNL     1      -0.752   7.636 -30.088  1.00  0.00    -0.365 N 
HETATM   16  C   UNL     1      -3.130   6.855 -30.354  1.00  0.00     0.033 A 
HETATM   17  H   UNL     1      -0.917   8.550 -29.689  1.00  0.00     0.165 HD
HETATM   18  C   UNL     1       0.483   7.107 -30.361  1.00  0.00     0.089 A 
HETATM   19  C   UNL     1      -3.892   5.769 -30.804  1.00  0.00     0.032 A 
ENDBRANCH   5  10
BRANCH   1  20
HETATM   20  O   UNL     1      -5.835  -0.757 -34.202  1.00  0.00    -0.344 OA
BRANCH  20  21
HETATM   21  C   UNL     1      -5.849  -2.108 -34.414  1.00  0.00     0.070 A 
HETATM   22  C   UNL     1      -4.656  -2.756 -34.081  1.00  0.00     0.060 A 
HETATM   23  C   UNL     1      -4.535  -4.135 -34.247  1.00  0.00     0.036 A 
HETATM   24  C   UNL     1      -5.600  -4.882 -34.743  1.00  0.00     0.024 A 
HETATM   25 CL   UNL     1      -3.060  -4.920 -33.837  1.00  0.00    -0.084 Cl
HETATM   26  C   UNL     1      -6.792  -4.242 -35.074  1.00  0.00     0.004 A 
HETATM   27  C   UNL     1      -6.917  -2.858 -34.911  1.00  0.00     0.037 A 
ENDBRANCH  20  21
ENDBRANCH   1  20
TORSDOF 3
ENDMDL
MODEL 2
REMARK VINA RESULT:      -8.8      4.979      7.986
REMARK  3 active torsions:
REMARK  status: ('A' for Active; 'I' for Inactive)
REMARK    1  A    between atoms: C_6  and  O_7 
REMARK    2  A    between atoms: O_7  and  C_8 
REMARK       I    between atoms: N_10  and  C_11 
REMARK       I    between atoms: C_11  and  N_12 
REMARK    3  A    between atoms: N_12  and  C_13 
ROOT
HETATM    1  C   UNL     1      -4.792  -0.129 -33.042  1.00  0.00     0.148 C 
HETATM    2  C   UNL     1      -6.254  -0.313 -33.470  1.00  0.00     0.160 C 
HETATM    3  N   UNL     1      -7.028  -0.101 -32.254  1.00  0.00    -0.331 N 
HETATM    4  C   UNL     1      -8.350   0.289 -32.151  1.00  0.00     0.323 C 
HETATM    5  N   UNL     1      -9.050   0.197 -33.330  1.00  0.00    -0.309 N 
HETATM    6  O   UNL     1      -8.804   0.682 -31.080  1.00  0.00    -0.247 OA
HETATM    7  C   UNL     1      -6.160  -0.057 -31.092  1.00  0.00     0.130 C 
HETATM    8  C   UNL     1      -4.832  -0.601 -31.587  1.00  0.00     0.054 C 
HETATM    9  H   UNL     1      -8.666  -0.436 -34.013  1.00  0.00     0.170 HD
ENDROOT
BRANCH   5  10
HETATM   10  C   UNL     1     -10.333   0.714 -33.609  1.00  0.00     0.037 A 
HETATM   11  C   UNL     1     -11.514  -0.016 -33.418  1.00  0.00     0.043 A 
HETATM   12  C   UNL     1     -12.761   0.587 -33.682  1.00  0.00    -0.006 A 
HETATM   13  C   UNL     1     -12.793   1.905 -34.131  1.00  0.00     0.042 A 
HETATM   14  C   UNL     1     -14.110   0.144 -33.587  1.00  0.00     0.030 A 
HETATM   15  N   UNL     1     -14.116   2.243 -34.306  1.00  0.00    -0.365 N 
HETATM   16  C   UNL     1     -11.633   2.659 -34.329  1.00  0.00     0.033 A 
HETATM   17  H   UNL     1     -14.441   3.143 -34.629  1.00  0.00     0.165 HD
HETATM   18  C   UNL     1     -14.922   1.185 -33.976  1.00  0.00     0.089 A 
HETATM   19  C   UNL     1     -10.406   2.039 -34.056  1.00  0.00     0.032 A 
ENDBRANCH   5  10
BRANCH   1  20
HETATM   20  O   UNL     1      -3.945  -0.939 -33.848  1.00  0.00    -0.344 OA
BRANCH  20  21
HETATM   21  C   UNL     1      -4.113  -2.295 -33.815  1.00  0.00     0.070 A 
HETATM   22  C   UNL     1      -5.127  -2.772 -34.651  1.00  0.00     0.060 A 
HETATM   23  C   UNL     1      -5.403  -4.137 -34.713  1.00  0.00     0.036 A 
HETATM   24  C   UNL     1      -4.672  -5.041 -33.948  1.00  0.00     0.024 A 
HETATM   25 CL   UNL     1      -6.657  -4.710 -35.744  1.00  0.00    -0.084 Cl
HETATM   26  C   UNL     1      -3.659  -4.572 -33.114  1.00  0.00     0.004 A 
HETATM   27  C   UNL     1      -3.380  -3.203 -33.046  1.00  0.00     0.037 A 
ENDBRANCH  20  21
ENDBRANCH   1  20
TORSDOF 3
ENDMDL
MODEL 3
REMARK VINA RESULT:      -8.5      3.456      8.687
REMARK  3 active torsions:
REMARK  status: ('A' for Active; 'I' for Inactive)
REMARK    1  A    between atoms: C_6  and  O_7 
REMARK    2  A    between atoms: O_7  and  C_8 
REMARK       I    between atoms: N_10  and  C_11 
REMARK       I    between atoms: C_11  and  N_12 
REMARK    3  A    between atoms: N_12  and  C_13 
ROOT
HETATM    1  C   UNL     1      -5.653   4.874 -32.029  1.00  0.00     0.148 C 
HETATM    2  C   UNL     1      -5.167   3.588 -32.710  1.00  0.00     0.160 C 
HETATM    3  N   UNL     1      -5.138   2.591 -31.649  1.00  0.00    -0.331 N 
HETATM    4  C   UNL     1      -5.216   1.217 -31.777  1.00  0.00     0.323 C 
HETATM    5  N   UNL     1      -5.028   0.767 -33.062  1.00  0.00    -0.309 N 
HETATM    6  O   UNL     1      -5.442   0.510 -30.799  1.00  0.00    -0.247 OA
HETATM    7  C   UNL     1      -5.317   3.215 -30.351  1.00  0.00     0.130 C 
HETATM    8  C   UNL     1      -5.111   4.697 -30.609  1.00  0.00     0.054 C 
HETATM    9  H   UNL     1      -4.533   1.397 -33.672  1.00  0.00     0.170 HD
ENDROOT
BRANCH   5  10
HETATM   10  C   UNL     1      -5.256  -0.534 -33.558  1.00  0.00     0.037 A 
HETATM   11  C   UNL     1      -4.332  -1.579 -33.431  1.00  0.00     0.043 A 
HETATM   12  C   UNL     1      -4.653  -2.863 -33.918  1.00  0.00    -0.006 A 
HETATM   13  C   UNL     1      -5.892  -3.066 -34.520  1.00  0.00     0.042 A 
HETATM   14  C   UNL     1      -3.966  -4.109 -33.940  1.00  0.00     0.030 A 
HETATM   15  N   UNL     1      -5.947  -4.388 -34.898  1.00  0.00    -0.365 N 
HETATM   16  C   UNL     1      -6.835  -2.044 -34.661  1.00  0.00     0.033 A 
HETATM   17  H   UNL     1      -6.734  -4.820 -35.364  1.00  0.00     0.165 HD
HETATM   18  C   UNL     1      -4.789  -5.030 -34.548  1.00  0.00     0.089 A 
HETATM   19  C   UNL     1      -6.494  -0.779 -34.165  1.00  0.00     0.032 A 
ENDBRANCH   5  10
BRANCH   1  20
HETATM   20  O   UNL     1      -5.095   6.008 -32.681  1.00  0.00    -0.344 OA
BRANCH  20  21
HETATM   21  C   UNL     1      -3.860   5.891 -33.255  1.00  0.00     0.070 A 
HETATM   22  C   UNL     1      -2.811   6.387 -32.475  1.00  0.00     0.060 A 
HETATM   23  C   UNL     1      -1.499   6.328 -32.942  1.00  0.00     0.036 A 
HETATM   24  C   UNL     1      -1.217   5.773 -34.188  1.00  0.00     0.024 A 
HETATM   25 CL   UNL     1      -0.218   6.945 -31.973  1.00  0.00    -0.084 Cl
HETATM   26  C   UNL     1      -2.258   5.275 -34.969  1.00  0.00     0.004 A 
HETATM   27  C   UNL     1      -3.577   5.334 -34.505  1.00  0.00     0.037 A 
ENDBRANCH  20  21
ENDBRANCH   1  20
TORSDOF 3
ENDMDL
MODEL 4
REMARK VINA RESULT:      -8.5      3.144      9.183
REMARK  3 active torsions:
REMARK  status: ('A' for Active; 'I' for Inactive)
REMARK    1  A    between atoms: C_6  and  O_7 
REMARK    2  A    between atoms: O_7  and  C_8 
REMARK       I    between atoms: N_10  and  C_11 
REMARK       I    between atoms: C_11  and  N_12 
REMARK    3  A    between atoms: N_12  and  C_13 
ROOT
HETATM    1  C   UNL     1      -4.113   4.649 -32.682  1.00  0.00     0.148 C 
HETATM    2  C   UNL     1      -4.506   3.185 -32.446  1.00  0.00     0.160 C 
HETATM    3  N   UNL     1      -5.613   2.942 -33.362  1.00  0.00    -0.331 N 
HETATM    4  C   UNL     1      -6.034   1.732 -33.879  1.00  0.00     0.323 C 
HETATM    5  N   UNL     1      -5.506   0.639 -33.233  1.00  0.00    -0.309 N 
HETATM    6  O   UNL     1      -6.804   1.693 -34.833  1.00  0.00    -0.247 OA
HETATM    7  C   UNL     1      -6.084   4.187 -33.941  1.00  0.00     0.130 C 
HETATM    8  C   UNL     1      -5.454   5.269 -33.083  1.00  0.00     0.054 C 
HETATM    9  H   UNL     1      -5.178   0.807 -32.296  1.00  0.00     0.170 HD
ENDROOT
BRANCH   5  10
HETATM   10  C   UNL     1      -5.562  -0.710 -33.644  1.00  0.00     0.037 A 
HETATM   11  C   UNL     1      -4.499  -1.608 -33.482  1.00  0.00     0.043 A 
HETATM   12  C   UNL     1      -4.649  -2.952 -33.882  1.00  0.00    -0.006 A 
HETATM   13  C   UNL     1      -5.860  -3.361 -34.434  1.00  0.00     0.042 A 
HETATM   14  C   UNL     1      -3.797  -4.091 -33.851  1.00  0.00     0.030 A 
HETATM   15  N   UNL     1      -5.740  -4.700 -34.731  1.00  0.00    -0.365 N 
HETATM   16  C   UNL     1      -6.940  -2.489 -34.607  1.00  0.00     0.033 A 
HETATM   17  H   UNL     1      -6.469  -5.264 -35.146  1.00  0.00     0.165 HD
HETATM   18  C   UNL     1      -4.497  -5.153 -34.378  1.00  0.00     0.089 A 
HETATM   19  C   UNL     1      -6.767  -1.160 -34.198  1.00  0.00     0.032 A 
ENDBRANCH   5  10
BRANCH   1  20
HETATM   20  O   UNL     1      -3.596   5.211 -31.483  1.00  0.00    -0.344 OA
BRANCH  20  21
HETATM   21  C   UNL     1      -2.338   5.746 -31.501  1.00  0.00     0.070 A 
HETATM   22  C   UNL     1      -1.408   5.060 -30.716  1.00  0.00     0.060 A 
HETATM   23  C   UNL     1      -0.086   5.500 -30.646  1.00  0.00     0.036 A 
HETATM   24  C   UNL     1       0.322   6.624 -31.358  1.00  0.00     0.024 A 
HETATM   25 CL   UNL     1       1.049   4.648 -29.672  1.00  0.00    -0.084 Cl
HETATM   26  C   UNL     1      -0.601   7.311 -32.144  1.00  0.00     0.004 A 
HETATM   27  C   UNL     1      -1.928   6.875 -32.216  1.00  0.00     0.037 A 
ENDBRANCH  20  21
ENDBRANCH   1  20
TORSDOF 3
ENDMDL
MODEL 5
REMARK VINA RESULT:      -8.3      1.648      2.007
REMARK  3 active torsions:
REMARK  status: ('A' for Active; 'I' for Inactive)
REMARK    1  A    between atoms: C_6  and  O_7 
REMARK    2  A    between atoms: O_7  and  C_8 
REMARK       I    between atoms: N_10  and  C_11 
REMARK       I    between atoms: C_11  and  N_12 
REMARK    3  A    between atoms: N_12  and  C_13 
ROOT
HETATM    1  C   UNL     1      -7.107   0.517 -32.572  1.00  0.00     0.148 C 
HETATM    2  C   UNL     1      -6.092   1.565 -33.046  1.00  0.00     0.160 C 
HETATM    3  N   UNL     1      -6.473   2.792 -32.359  1.00  0.00    -0.331 N 
HETATM    4  C   UNL     1      -5.674   3.882 -32.069  1.00  0.00     0.323 C 
HETATM    5  N   UNL     1      -4.479   3.891 -32.748  1.00  0.00    -0.309 N 
HETATM    6  O   UNL     1      -6.044   4.731 -31.264  1.00  0.00    -0.247 OA
HETATM    7  C   UNL     1      -7.766   2.642 -31.717  1.00  0.00     0.130 C 
HETATM    8  C   UNL     1      -8.348   1.377 -32.322  1.00  0.00     0.054 C 
HETATM    9  H   UNL     1      -4.457   3.342 -33.592  1.00  0.00     0.170 HD
ENDROOT
BRANCH   5  10
HETATM   10  C   UNL     1      -3.369   4.731 -32.520  1.00  0.00     0.037 A 
HETATM   11  C   UNL     1      -2.355   4.433 -31.601  1.00  0.00     0.043 A 
HETATM   12  C   UNL     1      -1.256   5.306 -31.461  1.00  0.00    -0.006 A 
HETATM   13  C   UNL     1      -1.203   6.456 -32.245  1.00  0.00     0.042 A 
HETATM   14  C   UNL     1      -0.085   5.296 -30.652  1.00  0.00     0.030 A 
HETATM   15  N   UNL     1      -0.043   7.119 -31.916  1.00  0.00    -0.365 N 
HETATM   16  C   UNL     1      -2.199   6.780 -33.171  1.00  0.00     0.033 A 
HETATM   17  H   UNL     1       0.257   7.992 -32.328  1.00  0.00     0.165 HD
HETATM   18  C   UNL     1       0.644   6.424 -30.955  1.00  0.00     0.089 A 
HETATM   19  C   UNL     1      -3.277   5.894 -33.295  1.00  0.00     0.032 A 
ENDBRANCH   5  10
BRANCH   1  20
HETATM   20  O   UNL     1      -7.319  -0.450 -33.594  1.00  0.00    -0.344 OA
BRANCH  20  21
HETATM   21  C   UNL     1      -6.368  -1.412 -33.790  1.00  0.00     0.070 A 
HETATM   22  C   UNL     1      -6.791  -2.488 -34.576  1.00  0.00     0.060 A 
HETATM   23  C   UNL     1      -5.919  -3.540 -34.855  1.00  0.00     0.036 A 
HETATM   24  C   UNL     1      -4.619  -3.529 -34.357  1.00  0.00     0.024 A 
HETATM   25 CL   UNL     1      -6.452  -4.860 -35.821  1.00  0.00    -0.084 Cl
HETATM   26  C   UNL     1      -4.192  -2.459 -33.575  1.00  0.00     0.004 A 
HETATM   27  C   UNL     1      -5.064  -1.402 -33.290  1.00  0.00     0.037 A 
ENDBRANCH  20  21
ENDBRANCH   1  20
TORSDOF 3
ENDMDL
MODEL 6
REMARK VINA RESULT:      -8.3      4.744      9.266
REMARK  3 active torsions:
REMARK  status: ('A' for Active; 'I' for Inactive)
REMARK    1  A    between atoms: C_6  and  O_7 
REMARK    2  A    between atoms: O_7  and  C_8 
REMARK       I    between atoms: N_10  and  C_11 
REMARK       I    between atoms: C_11  and  N_12 
REMARK    3  A    between atoms: N_12  and  C_13 
ROOT
HETATM    1  C   UNL     1      -4.141   3.214 -32.152  1.00  0.00     0.148 C 
HETATM    2  C   UNL     1      -5.334   2.770 -33.009  1.00  0.00     0.160 C 
HETATM    3  N   UNL     1      -6.186   2.014 -32.101  1.00  0.00    -0.331 N 
HETATM    4  C   UNL     1      -7.544   1.784 -32.211  1.00  0.00     0.323 C 
HETATM    5  N   UNL     1      -8.060   2.081 -33.450  1.00  0.00    -0.309 N 
HETATM    6  O   UNL     1      -8.186   1.360 -31.255  1.00  0.00    -0.247 OA
HETATM    7  C   UNL     1      -5.499   1.751 -30.850  1.00  0.00     0.130 C 
HETATM    8  C   UNL     1      -4.043   2.071 -31.140  1.00  0.00     0.054 C 
HETATM    9  H   UNL     1      -7.392   2.091 -34.205  1.00  0.00     0.170 HD
ENDROOT
BRANCH   5  10
HETATM   10  C   UNL     1      -9.420   2.162 -33.817  1.00  0.00     0.037 A 
HETATM   11  C   UNL     1     -10.340   1.130 -33.593  1.00  0.00     0.043 A 
HETATM   12  C   UNL     1     -11.692   1.305 -33.952  1.00  0.00    -0.006 A 
HETATM   13  C   UNL     1     -12.087   2.510 -34.528  1.00  0.00     0.042 A 
HETATM   14  C   UNL     1     -12.852   0.487 -33.856  1.00  0.00     0.030 A 
HETATM   15  N   UNL     1     -13.437   2.419 -34.777  1.00  0.00    -0.365 N 
HETATM   16  C   UNL     1     -11.193   3.559 -34.764  1.00  0.00     0.033 A 
HETATM   17  H   UNL     1     -13.996   3.150 -35.196  1.00  0.00     0.165 HD
HETATM   18  C   UNL     1     -13.912   1.200 -34.370  1.00  0.00     0.089 A 
HETATM   19  C   UNL     1      -9.856   3.362 -34.393  1.00  0.00     0.032 A 
ENDBRANCH   5  10
BRANCH   1  20
HETATM   20  O   UNL     1      -2.976   3.319 -32.960  1.00  0.00    -0.344 OA
BRANCH  20  21
HETATM   21  C   UNL     1      -2.415   4.552 -33.141  1.00  0.00     0.070 A 
HETATM   22  C   UNL     1      -1.430   4.882 -32.205  1.00  0.00     0.060 A 
HETATM   23  C   UNL     1      -0.776   6.111 -32.275  1.00  0.00     0.036 A 
HETATM   24  C   UNL     1      -1.093   7.022 -33.278  1.00  0.00     0.024 A 
HETATM   25 CL   UNL     1       0.431   6.505 -31.114  1.00  0.00    -0.084 Cl
HETATM   26  C   UNL     1      -2.072   6.700 -34.215  1.00  0.00     0.004 A 
HETATM   27  C   UNL     1      -2.733   5.468 -34.147  1.00  0.00     0.037 A 
ENDBRANCH  20  21
ENDBRANCH   1  20
TORSDOF 3
ENDMDL
MODEL 7
REMARK VINA RESULT:      -8.1      4.911      7.192
REMARK  3 active torsions:
REMARK  status: ('A' for Active; 'I' for Inactive)
REMARK    1  A    between atoms: C_6  and  O_7 
REMARK    2  A    between atoms: O_7  and  C_8 
REMARK       I    between atoms: N_10  and  C_11 
REMARK       I    between atoms: C_11  and  N_12 
REMARK    3  A    between atoms: N_12  and  C_13 
ROOT
HETATM    1  C   UNL     1      -5.638   0.421 -33.055  1.00  0.00     0.148 C 
HETATM    2  C   UNL     1      -6.931   0.754 -33.811  1.00  0.00     0.160 C 
HETATM    3  N   UNL     1      -7.943   0.901 -32.773  1.00  0.00    -0.331 N 
HETATM    4  C   UNL     1      -9.125   1.613 -32.838  1.00  0.00     0.323 C 
HETATM    5  N   UNL     1      -9.480   1.984 -34.114  1.00  0.00    -0.309 N 
HETATM    6  O   UNL     1      -9.757   1.871 -31.819  1.00  0.00    -0.247 OA
HETATM    7  C   UNL     1      -7.437   0.441 -31.492  1.00  0.00     0.130 C 
HETATM    8  C   UNL     1      -6.175  -0.330 -31.835  1.00  0.00     0.054 C 
HETATM    9  H   UNL     1      -9.070   1.436 -34.853  1.00  0.00     0.170 HD
ENDROOT
BRANCH   5  10
HETATM   10  C   UNL     1     -10.494   2.888 -34.494  1.00  0.00     0.037 A 
HETATM   11  C   UNL     1     -10.291   4.270 -34.604  1.00  0.00     0.043 A 
HETATM   12  C   UNL     1     -11.347   5.102 -35.030  1.00  0.00    -0.006 A 
HETATM   13  C   UNL     1     -12.579   4.528 -35.334  1.00  0.00     0.042 A 
HETATM   14  C   UNL     1     -11.472   6.502 -35.252  1.00  0.00     0.030 A 
HETATM   15  N   UNL     1     -13.419   5.548 -35.719  1.00  0.00    -0.365 N 
HETATM   16  C   UNL     1     -12.812   3.153 -35.235  1.00  0.00     0.033 A 
HETATM   17  H   UNL     1     -14.383   5.425 -35.996  1.00  0.00     0.165 HD
HETATM   18  C   UNL     1     -12.757   6.747 -35.677  1.00  0.00     0.089 A 
HETATM   19  C   UNL     1     -11.745   2.347 -34.814  1.00  0.00     0.032 A 
ENDBRANCH   5  10
BRANCH   1  20
HETATM   20  O   UNL     1      -4.800  -0.396 -33.865  1.00  0.00    -0.344 OA
BRANCH  20  21
HETATM   21  C   UNL     1      -5.201  -1.673 -34.140  1.00  0.00     0.070 A 
HETATM   22  C   UNL     1      -4.249  -2.653 -33.845  1.00  0.00     0.060 A 
HETATM   23  C   UNL     1      -4.530  -3.999 -34.077  1.00  0.00     0.036 A 
HETATM   24  C   UNL     1      -5.761  -4.382 -34.601  1.00  0.00     0.024 A 
HETATM   25 CL   UNL     1      -3.348  -5.195 -33.711  1.00  0.00    -0.084 Cl
HETATM   26  C   UNL     1      -6.715  -3.410 -34.896  1.00  0.00     0.004 A 
HETATM   27  C   UNL     1      -6.436  -2.058 -34.667  1.00  0.00     0.037 A 
ENDBRANCH  20  21
ENDBRANCH   1  20
TORSDOF 3
ENDMDL
MODEL 8
REMARK VINA RESULT:      -8.0      3.602      9.540
REMARK  3 active torsions:
REMARK  status: ('A' for Active; 'I' for Inactive)
REMARK    1  A    between atoms: C_6  and  O_7 
REMARK    2  A    between atoms: O_7  and  C_8 
REMARK       I    between atoms: N_10  and  C_11 
REMARK       I    between atoms: C_11  and  N_12 
REMARK    3  A    between atoms: N_12  and  C_13 
ROOT
HETATM    1  C   UNL     1      -3.059   4.718 -32.348  1.00  0.00     0.148 C 
HETATM    2  C   UNL     1      -3.079   3.205 -32.603  1.00  0.00     0.160 C 
HETATM    3  N   UNL     1      -4.220   2.713 -31.843  1.00  0.00    -0.331 N 
HETATM    4  C   UNL     1      -4.949   1.560 -32.062  1.00  0.00     0.323 C 
HETATM    5  N   UNL     1      -4.343   0.675 -32.923  1.00  0.00    -0.309 N 
HETATM    6  O   UNL     1      -6.036   1.394 -31.518  1.00  0.00    -0.247 OA
HETATM    7  C   UNL     1      -4.732   3.744 -30.958  1.00  0.00     0.130 C 
HETATM    8  C   UNL     1      -3.645   4.802 -30.937  1.00  0.00     0.054 C 
HETATM    9  H   UNL     1      -3.346   0.779 -33.019  1.00  0.00     0.170 HD
ENDROOT
BRANCH   5  10
HETATM   10  C   UNL     1      -4.912  -0.474 -33.513  1.00  0.00     0.037 A 
HETATM   11  C   UNL     1      -4.281  -1.724 -33.525  1.00  0.00     0.043 A 
HETATM   12  C   UNL     1      -4.934  -2.834 -34.100  1.00  0.00    -0.006 A 
HETATM   13  C   UNL     1      -6.202  -2.661 -34.649  1.00  0.00     0.042 A 
HETATM   14  C   UNL     1      -4.590  -4.205 -34.264  1.00  0.00     0.030 A 
HETATM   15  N   UNL     1      -6.605  -3.885 -35.133  1.00  0.00    -0.365 N 
HETATM   16  C   UNL     1      -6.858  -1.426 -34.652  1.00  0.00     0.033 A 
HETATM   17  H   UNL     1      -7.490  -4.059 -35.590  1.00  0.00     0.165 HD
HETATM   18  C   UNL     1      -5.639  -4.827 -34.902  1.00  0.00     0.089 A 
HETATM   19  C   UNL     1      -6.190  -0.340 -34.070  1.00  0.00     0.032 A 
ENDBRANCH   5  10
BRANCH   1  20
HETATM   20  O   UNL     1      -1.723   5.201 -32.407  1.00  0.00    -0.344 OA
BRANCH  20  21
HETATM   21  C   UNL     1      -1.181   5.764 -31.285  1.00  0.00     0.070 A 
HETATM   22  C   UNL     1      -1.648   7.051 -31.002  1.00  0.00     0.060 A 
HETATM   23  C   UNL     1      -1.178   7.740 -29.885  1.00  0.00     0.036 A 
HETATM   24  C   UNL     1      -0.242   7.154 -29.037  1.00  0.00     0.024 A 
HETATM   25 CL   UNL     1      -1.759   9.325 -29.550  1.00  0.00    -0.084 Cl
HETATM   26  C   UNL     1       0.226   5.871 -29.313  1.00  0.00     0.004 A 
HETATM   27  C   UNL     1      -0.242   5.177 -30.434  1.00  0.00     0.037 A 
ENDBRANCH  20  21
ENDBRANCH   1  20
TORSDOF 3
ENDMDL
MODEL 9
REMARK VINA RESULT:      -8.0      4.961      8.449
REMARK  3 active torsions:
REMARK  status: ('A' for Active; 'I' for Inactive)
REMARK    1  A    between atoms: C_6  and  O_7 
REMARK    2  A    between atoms: O_7  and  C_8 
REMARK       I    between atoms: N_10  and  C_11 
REMARK       I    between atoms: C_11  and  N_12 
REMARK    3  A    between atoms: N_12  and  C_13 
ROOT
HETATM    1  C   UNL     1      -5.455   2.434 -33.131  1.00  0.00     0.148 C 
HETATM    2  C   UNL     1      -6.894   2.407 -32.600  1.00  0.00     0.160 C 
HETATM    3  N   UNL     1      -7.540   3.561 -33.209  1.00  0.00    -0.331 N 
HETATM    4  C   UNL     1      -8.890   3.753 -33.437  1.00  0.00     0.323 C 
HETATM    5  N   UNL     1      -9.698   2.868 -32.764  1.00  0.00    -0.309 N 
HETATM    6  O   UNL     1      -9.277   4.644 -34.187  1.00  0.00    -0.247 OA
HETATM    7  C   UNL     1      -6.561   4.418 -33.853  1.00  0.00     0.130 C 
HETATM    8  C   UNL     1      -5.224   3.935 -33.323  1.00  0.00     0.054 C 
HETATM    9  H   UNL     1      -9.284   2.434 -31.955  1.00  0.00     0.170 HD
ENDROOT
BRANCH   5  10
HETATM   10  C   UNL     1     -11.082   2.659 -32.947  1.00  0.00     0.037 A 
HETATM   11  C   UNL     1     -11.608   1.575 -33.659  1.00  0.00     0.043 A 
HETATM   12  C   UNL     1     -13.006   1.415 -33.761  1.00  0.00    -0.006 A 
HETATM   13  C   UNL     1     -13.839   2.348 -33.148  1.00  0.00     0.042 A 
HETATM   14  C   UNL     1     -13.845   0.449 -34.384  1.00  0.00     0.030 A 
HETATM   15  N   UNL     1     -15.136   1.960 -33.397  1.00  0.00    -0.365 N 
HETATM   16  C   UNL     1     -13.343   3.440 -32.429  1.00  0.00     0.033 A 
HETATM   17  H   UNL     1     -15.956   2.455 -33.073  1.00  0.00     0.165 HD
HETATM   18  C   UNL     1     -15.151   0.810 -34.142  1.00  0.00     0.089 A 
HETATM   19  C   UNL     1     -11.951   3.573 -32.338  1.00  0.00     0.032 A 
ENDBRANCH   5  10
BRANCH   1  20
HETATM   20  O   UNL     1      -4.572   1.872 -32.168  1.00  0.00    -0.344 OA
BRANCH  20  21
HETATM   21  C   UNL     1      -4.231   0.553 -32.286  1.00  0.00     0.070 A 
HETATM   22  C   UNL     1      -4.949  -0.143 -33.263  1.00  0.00     0.060 A 
HETATM   23  C   UNL     1      -4.699  -1.496 -33.488  1.00  0.00     0.036 A 
HETATM   24  C   UNL     1      -3.732  -2.168 -32.745  1.00  0.00     0.024 A 
HETATM   25 CL   UNL     1      -5.592  -2.343 -34.691  1.00  0.00    -0.084 Cl
HETATM   26  C   UNL     1      -3.013  -1.479 -31.772  1.00  0.00     0.004 A 
HETATM   27  C   UNL     1      -3.261  -0.121 -31.541  1.00  0.00     0.037 A 
ENDBRANCH  20  21
ENDBRANCH   1  20
TORSDOF 3
ENDMDL
MODEL 10
REMARK VINA RESULT:      -7.9      6.769      9.625
REMARK  3 active torsions:
REMARK  status: ('A' for Active; 'I' for Inactive)
REMARK    1  A    between atoms: C_6  and  O_7 
REMARK    2  A    between atoms: O_7  and  C_8 
REMARK       I    between atoms: N_10  and  C_11 
REMARK       I    between atoms: C_11  and  N_12 
REMARK    3  A    between atoms: N_12  and  C_13 
ROOT
HETATM    1  C   UNL     1      -8.681   0.934 -33.410  1.00  0.00     0.148 C 
HETATM    2  C   UNL     1      -9.910   1.408 -32.624  1.00  0.00     0.160 C 
HETATM    3  N   UNL     1     -10.297   2.663 -33.254  1.00  0.00    -0.331 N 
HETATM    4  C   UNL     1     -11.542   3.262 -33.252  1.00  0.00     0.323 C 
HETATM    5  N   UNL     1     -12.412   2.733 -32.328  1.00  0.00    -0.309 N 
HETATM    6  O   UNL     1     -11.798   4.175 -34.031  1.00  0.00    -0.247 OA
HETATM    7  C   UNL     1      -9.271   3.112 -34.177  1.00  0.00     0.130 C 
HETATM    8  C   UNL     1      -8.058   2.264 -33.842  1.00  0.00     0.054 C 
HETATM    9  H   UNL     1     -11.981   2.247 -31.558  1.00  0.00     0.170 HD
ENDROOT
BRANCH   5  10
HETATM   10  C   UNL     1     -13.799   2.968 -32.222  1.00  0.00     0.037 A 
HETATM   11  C   UNL     1     -14.341   4.180 -31.776  1.00  0.00     0.043 A 
HETATM   12  C   UNL     1     -15.741   4.350 -31.737  1.00  0.00    -0.006 A 
HETATM   13  C   UNL     1     -16.560   3.301 -32.147  1.00  0.00     0.042 A 
HETATM   14  C   UNL     1     -16.594   5.424 -31.358  1.00  0.00     0.030 A 
HETATM   15  N   UNL     1     -17.862   3.726 -32.013  1.00  0.00    -0.365 N 
HETATM   16  C   UNL     1     -16.049   2.080 -32.598  1.00  0.00     0.033 A 
HETATM   17  H   UNL     1     -18.675   3.168 -32.235  1.00  0.00     0.165 HD
HETATM   18  C   UNL     1     -17.894   5.011 -31.540  1.00  0.00     0.089 A 
HETATM   19  C   UNL     1     -14.655   1.938 -32.631  1.00  0.00     0.032 A 
ENDBRANCH   5  10
BRANCH   1  20
HETATM   20  O   UNL     1      -7.820   0.186 -32.560  1.00  0.00    -0.344 OA
BRANCH  20  21
HETATM   21  C   UNL     1      -6.883  -0.628 -33.132  1.00  0.00     0.070 A 
HETATM   22  C   UNL     1      -5.655  -0.652 -32.465  1.00  0.00     0.060 A 
HETATM   23  C   UNL     1      -4.610  -1.442 -32.942  1.00  0.00     0.036 A 
HETATM   24  C   UNL     1      -4.779  -2.219 -34.086  1.00  0.00     0.024 A 
HETATM   25 CL   UNL     1      -3.102  -1.460 -32.113  1.00  0.00    -0.084 Cl
HETATM   26  C   UNL     1      -6.001  -2.200 -34.754  1.00  0.00     0.004 A 
HETATM   27  C   UNL     1      -7.051  -1.407 -34.280  1.00  0.00     0.037 A 
ENDBRANCH  20  21
ENDBRANCH   1  20
TORSDOF 3
ENDMDL
