MODEL 1
REMARK VINA RESULT:      -8.8      0.000      0.000
REMARK  3 active torsions:
REMARK  status: ('A' for Active; 'I' for Inactive)
REMARK    1  A    between atoms: N_1  and  C_5 
REMARK    2  A    between atoms: C_8  and  C_10 
REMARK       I    between atoms: C_10  and  N_12 
REMARK    3  A    between atoms: N_12  and  C_13 
ROOT
HETATM    1  C   UNL     1      -5.646  -0.493 -33.738  1.00  0.00     0.057 A 
HETATM    2  C   UNL     1      -4.635  -1.325 -33.242  1.00  0.00     0.043 A 
HETATM    3  C   UNL     1      -4.590  -2.681 -33.607  1.00  0.00    -0.017 A 
HETATM    4  C   UNL     1      -3.550  -3.571 -33.080  1.00  0.00     0.029 A 
HETATM    5  C   UNL     1      -3.542  -4.859 -33.443  1.00  0.00     0.092 A 
HETATM    6  N   UNL     1      -4.482  -5.365 -34.302  1.00  0.00    -0.333 N 
HETATM    7  C   UNL     1      -5.504  -4.630 -34.860  1.00  0.00     0.256 A 
HETATM    8  O   UNL     1      -6.323  -5.122 -35.626  1.00  0.00    -0.267 OA
HETATM    9  C   UNL     1      -5.560  -3.195 -34.481  1.00  0.00     0.044 A 
HETATM   10  C   UNL     1      -6.573  -2.380 -34.986  1.00  0.00     0.044 A 
HETATM   11  C   UNL     1      -6.614  -1.040 -34.608  1.00  0.00     0.061 A 
HETATM   12 CL   UNL     1      -7.883  -0.048 -35.246  1.00  0.00    -0.082 Cl
HETATM   13  H   UNL     1      -4.456  -6.345 -34.563  1.00  0.00     0.168 HD
ENDROOT
BRANCH   1  14
HETATM   14  N   UNL     1      -5.768   0.876 -33.392  1.00  0.00    -0.325 N 
HETATM   15  C   UNL     1      -6.686   1.471 -32.563  1.00  0.00     0.226 C 
HETATM   16  O   UNL     1      -7.528   0.908 -31.863  1.00  0.00    -0.273 OA
HETATM   17  H   UNL     1      -5.049   1.466 -33.808  1.00  0.00     0.169 HD
BRANCH  15  18
HETATM   18  C   UNL     1      -6.510   2.989 -32.471  1.00  0.00     0.080 C 
HETATM   19  C   UNL     1      -5.041   3.344 -32.256  1.00  0.00     0.016 C 
HETATM   20  C   UNL     1      -4.816   3.179 -30.749  1.00  0.00     0.033 C 
HETATM   21  C   UNL     1      -6.188   3.352 -30.091  1.00  0.00     0.184 C 
HETATM   22  C   UNL     1      -7.180   3.589 -31.231  1.00  0.00     0.046 C 
BRANCH  21  23
HETATM   23  N   UNL     1      -6.554   2.111 -29.363  1.00  0.00    -0.075 N 
HETATM   24  H   UNL     1      -6.456   1.264 -29.935  1.00  0.00     0.274 HD
HETATM   25  H   UNL     1      -5.996   1.984 -28.510  1.00  0.00     0.274 HD
HETATM   26  H   UNL     1      -7.547   2.151 -29.042  1.00  0.00     0.274 HD
ENDBRANCH  21  23
ENDBRANCH  15  18
ENDBRANCH   1  14
TORSDOF 3
ENDMDL
MODEL 2
REMARK VINA RESULT:      -8.2      1.635      2.224
REMARK  3 active torsions:
REMARK  status: ('A' for Active; 'I' for Inactive)
REMARK    1  A    between atoms: N_1  and  C_5 
REMARK    2  A    between atoms: C_8  and  C_10 
REMARK       I    between atoms: C_10  and  N_12 
REMARK    3  A    between atoms: N_12  and  C_13 
ROOT
HETATM    1  C   UNL     1      -5.407  -0.423 -33.387  1.00  0.00     0.057 A 
HETATM    2  C   UNL     1      -6.202  -1.313 -34.120  1.00  0.00     0.043 A 
HETATM    3  C   UNL     1      -5.780  -2.637 -34.326  1.00  0.00    -0.017 A 
HETATM    4  C   UNL     1      -6.590  -3.575 -35.108  1.00  0.00     0.029 A 
HETATM    5  C   UNL     1      -6.153  -4.827 -35.290  1.00  0.00     0.092 A 
HETATM    6  N   UNL     1      -4.965  -5.254 -34.757  1.00  0.00    -0.333 N 
HETATM    7  C   UNL     1      -4.120  -4.467 -34.006  1.00  0.00     0.256 A 
HETATM    8  O   UNL     1      -3.068  -4.889 -33.546  1.00  0.00    -0.267 OA
HETATM    9  C   UNL     1      -4.559  -3.066 -33.783  1.00  0.00     0.044 A 
HETATM   10  C   UNL     1      -3.756  -2.193 -33.049  1.00  0.00     0.044 A 
HETATM   11  C   UNL     1      -4.179  -0.880 -32.861  1.00  0.00     0.061 A 
HETATM   12 CL   UNL     1      -3.163   0.186 -31.948  1.00  0.00    -0.082 Cl
HETATM   13  H   UNL     1      -4.654  -6.207 -34.908  1.00  0.00     0.168 HD
ENDROOT
BRANCH   1  14
HETATM   14  N   UNL     1      -5.759   0.931 -33.163  1.00  0.00    -0.325 N 
HETATM   15  C   UNL     1      -6.842   1.433 -32.484  1.00  0.00     0.226 C 
HETATM   16  O   UNL     1      -7.673   0.795 -31.837  1.00  0.00    -0.273 OA
HETATM   17  H   UNL     1      -5.086   1.595 -33.542  1.00  0.00     0.169 HD
BRANCH  15  18
HETATM   18  C   UNL     1      -6.891   2.963 -32.490  1.00  0.00     0.080 C 
HETATM   19  C   UNL     1      -5.492   3.544 -32.308  1.00  0.00     0.016 C 
HETATM   20  C   UNL     1      -5.248   3.511 -30.796  1.00  0.00     0.033 C 
HETATM   21  C   UNL     1      -6.632   3.521 -30.140  1.00  0.00     0.184 C 
HETATM   22  C   UNL     1      -7.646   3.536 -31.286  1.00  0.00     0.046 C 
BRANCH  21  23
HETATM   23  N   UNL     1      -6.813   2.289 -29.332  1.00  0.00    -0.075 N 
HETATM   24  H   UNL     1      -7.173   1.497 -29.880  1.00  0.00     0.274 HD
HETATM   25  H   UNL     1      -5.940   1.990 -28.880  1.00  0.00     0.274 HD
HETATM   26  H   UNL     1      -7.488   2.454 -28.553  1.00  0.00     0.274 HD
ENDBRANCH  21  23
ENDBRANCH  15  18
ENDBRANCH   1  14
TORSDOF 3
ENDMDL
MODEL 3
REMARK VINA RESULT:      -7.8      3.455      4.338
REMARK  3 active torsions:
REMARK  status: ('A' for Active; 'I' for Inactive)
REMARK    1  A    between atoms: N_1  and  C_5 
REMARK    2  A    between atoms: C_8  and  C_10 
REMARK       I    between atoms: C_10  and  N_12 
REMARK    3  A    between atoms: N_12  and  C_13 
ROOT
HETATM    1  C   UNL     1      -7.882   0.613 -34.378  1.00  0.00     0.057 A 
HETATM    2  C   UNL     1      -7.691  -0.730 -34.727  1.00  0.00     0.043 A 
HETATM    3  C   UNL     1      -6.478  -1.374 -34.432  1.00  0.00    -0.017 A 
HETATM    4  C   UNL     1      -6.254  -2.773 -34.809  1.00  0.00     0.029 A 
HETATM    5  C   UNL     1      -5.083  -3.353 -34.519  1.00  0.00     0.092 A 
HETATM    6  N   UNL     1      -4.089  -2.669 -33.871  1.00  0.00    -0.333 N 
HETATM    7  C   UNL     1      -4.181  -1.355 -33.467  1.00  0.00     0.256 A 
HETATM    8  O   UNL     1      -3.268  -0.782 -32.888  1.00  0.00    -0.267 OA
HETATM    9  C   UNL     1      -5.460  -0.666 -33.775  1.00  0.00     0.044 A 
HETATM   10  C   UNL     1      -5.634   0.671 -33.418  1.00  0.00     0.044 A 
HETATM   11  C   UNL     1      -6.837   1.303 -33.725  1.00  0.00     0.061 A 
HETATM   12 CL   UNL     1      -7.028   2.964 -33.275  1.00  0.00    -0.082 Cl
HETATM   13  H   UNL     1      -3.209  -3.129 -33.662  1.00  0.00     0.168 HD
ENDROOT
BRANCH   1  14
HETATM   14  N   UNL     1      -9.068   1.332 -34.667  1.00  0.00    -0.325 N 
HETATM   15  C   UNL     1     -10.294   1.243 -34.054  1.00  0.00     0.226 C 
HETATM   16  O   UNL     1     -10.575   0.589 -33.049  1.00  0.00    -0.273 OA
HETATM   17  H   UNL     1      -8.958   2.015 -35.414  1.00  0.00     0.169 HD
BRANCH  15  18
HETATM   18  C   UNL     1     -11.341   2.166 -34.682  1.00  0.00     0.080 C 
HETATM   19  C   UNL     1     -10.723   3.518 -35.027  1.00  0.00     0.016 C 
HETATM   20  C   UNL     1     -10.747   4.306 -33.712  1.00  0.00     0.033 C 
HETATM   21  C   UNL     1     -11.869   3.694 -32.868  1.00  0.00     0.184 C 
HETATM   22  C   UNL     1     -12.453   2.551 -33.701  1.00  0.00     0.046 C 
BRANCH  21  23
HETATM   23  N   UNL     1     -11.307   3.152 -31.605  1.00  0.00    -0.075 N 
HETATM   24  H   UNL     1     -10.926   2.203 -31.709  1.00  0.00     0.274 HD
HETATM   25  H   UNL     1     -10.566   3.751 -31.223  1.00  0.00     0.274 HD
HETATM   26  H   UNL     1     -12.040   3.108 -30.864  1.00  0.00     0.274 HD
ENDBRANCH  21  23
ENDBRANCH  15  18
ENDBRANCH   1  14
TORSDOF 3
ENDMDL
MODEL 4
REMARK VINA RESULT:      -7.8      2.108      3.154
REMARK  3 active torsions:
REMARK  status: ('A' for Active; 'I' for Inactive)
REMARK    1  A    between atoms: N_1  and  C_5 
REMARK    2  A    between atoms: C_8  and  C_10 
REMARK       I    between atoms: C_10  and  N_12 
REMARK    3  A    between atoms: N_12  and  C_13 
ROOT
HETATM    1  C   UNL     1      -5.796  -0.436 -33.505  1.00  0.00     0.057 A 
HETATM    2  C   UNL     1      -6.529  -1.423 -34.175  1.00  0.00     0.043 A 
HETATM    3  C   UNL     1      -5.984  -2.702 -34.370  1.00  0.00    -0.017 A 
HETATM    4  C   UNL     1      -6.730  -3.740 -35.088  1.00  0.00     0.029 A 
HETATM    5  C   UNL     1      -6.176  -4.946 -35.262  1.00  0.00     0.092 A 
HETATM    6  N   UNL     1      -4.928  -5.235 -34.778  1.00  0.00    -0.333 N 
HETATM    7  C   UNL     1      -4.133  -4.346 -34.090  1.00  0.00     0.256 A 
HETATM    8  O   UNL     1      -3.022  -4.646 -33.672  1.00  0.00    -0.267 OA
HETATM    9  C   UNL     1      -4.702  -2.990 -33.879  1.00  0.00     0.044 A 
HETATM   10  C   UNL     1      -3.958  -2.020 -33.207  1.00  0.00     0.044 A 
HETATM   11  C   UNL     1      -4.505  -0.751 -33.029  1.00  0.00     0.061 A 
HETATM   12 CL   UNL     1      -3.561   0.437 -32.194  1.00  0.00    -0.082 Cl
HETATM   13  H   UNL     1      -4.528  -6.157 -34.922  1.00  0.00     0.168 HD
ENDROOT
BRANCH   1  14
HETATM   14  N   UNL     1      -6.273   0.882 -33.296  1.00  0.00    -0.325 N 
HETATM   15  C   UNL     1      -7.095   1.346 -32.298  1.00  0.00     0.226 C 
HETATM   16  O   UNL     1      -7.496   0.721 -31.316  1.00  0.00    -0.273 OA
HETATM   17  H   UNL     1      -5.921   1.555 -33.974  1.00  0.00     0.169 HD
BRANCH  15  18
HETATM   18  C   UNL     1      -7.415   2.836 -32.436  1.00  0.00     0.080 C 
HETATM   19  C   UNL     1      -8.686   3.185 -31.665  1.00  0.00     0.016 C 
HETATM   20  C   UNL     1      -9.832   2.803 -32.608  1.00  0.00     0.033 C 
HETATM   21  C   UNL     1      -9.253   2.849 -34.025  1.00  0.00     0.184 C 
HETATM   22  C   UNL     1      -7.780   3.233 -33.870  1.00  0.00     0.046 C 
BRANCH  21  23
HETATM   23  N   UNL     1      -9.354   1.507 -34.652  1.00  0.00    -0.075 N 
HETATM   24  H   UNL     1      -8.933   0.764 -34.082  1.00  0.00     0.274 HD
HETATM   25  H   UNL     1     -10.327   1.244 -34.847  1.00  0.00     0.274 HD
HETATM   26  H   UNL     1      -8.871   1.495 -35.577  1.00  0.00     0.274 HD
ENDBRANCH  21  23
ENDBRANCH  15  18
ENDBRANCH   1  14
TORSDOF 3
ENDMDL
MODEL 5
REMARK VINA RESULT:      -7.6      4.083      5.110
REMARK  3 active torsions:
REMARK  status: ('A' for Active; 'I' for Inactive)
REMARK    1  A    between atoms: N_1  and  C_5 
REMARK    2  A    between atoms: C_8  and  C_10 
REMARK       I    between atoms: C_10  and  N_12 
REMARK    3  A    between atoms: N_12  and  C_13 
ROOT
HETATM    1  C   UNL     1      -8.065   0.591 -34.433  1.00  0.00     0.057 A 
HETATM    2  C   UNL     1      -7.884  -0.749 -34.797  1.00  0.00     0.043 A 
HETATM    3  C   UNL     1      -6.671  -1.402 -34.524  1.00  0.00    -0.017 A 
HETATM    4  C   UNL     1      -6.458  -2.798 -34.917  1.00  0.00     0.029 A 
HETATM    5  C   UNL     1      -5.286  -3.385 -34.647  1.00  0.00     0.092 A 
HETATM    6  N   UNL     1      -4.281  -2.712 -34.004  1.00  0.00    -0.333 N 
HETATM    7  C   UNL     1      -4.362  -1.402 -33.587  1.00  0.00     0.256 A 
HETATM    8  O   UNL     1      -3.440  -0.838 -33.013  1.00  0.00    -0.267 OA
HETATM    9  C   UNL     1      -5.642  -0.704 -33.871  1.00  0.00     0.044 A 
HETATM   10  C   UNL     1      -5.806   0.630 -33.500  1.00  0.00     0.044 A 
HETATM   11  C   UNL     1      -7.010   1.270 -33.786  1.00  0.00     0.061 A 
HETATM   12 CL   UNL     1      -7.188   2.928 -33.317  1.00  0.00    -0.082 Cl
HETATM   13  H   UNL     1      -3.401  -3.178 -33.810  1.00  0.00     0.168 HD
ENDROOT
BRANCH   1  14
HETATM   14  N   UNL     1      -9.252   1.318 -34.701  1.00  0.00    -0.325 N 
HETATM   15  C   UNL     1     -10.457   1.261 -34.044  1.00  0.00     0.226 C 
HETATM   16  O   UNL     1     -10.711   0.637 -33.013  1.00  0.00    -0.273 OA
HETATM   17  H   UNL     1      -9.159   1.980 -35.468  1.00  0.00     0.169 HD
BRANCH  15  18
HETATM   18  C   UNL     1     -11.513   2.181 -34.660  1.00  0.00     0.080 C 
HETATM   19  C   UNL     1     -12.307   2.891 -33.566  1.00  0.00     0.016 C 
HETATM   20  C   UNL     1     -13.373   1.877 -33.135  1.00  0.00     0.033 C 
HETATM   21  C   UNL     1     -13.573   0.936 -34.326  1.00  0.00     0.184 C 
HETATM   22  C   UNL     1     -12.604   1.410 -35.411  1.00  0.00     0.046 C 
BRANCH  21  23
HETATM   23  N   UNL     1     -13.235  -0.454 -33.931  1.00  0.00    -0.075 N 
HETATM   24  H   UNL     1     -12.229  -0.657 -33.994  1.00  0.00     0.274 HD
HETATM   25  H   UNL     1     -13.541  -0.669 -32.974  1.00  0.00     0.274 HD
HETATM   26  H   UNL     1     -13.726  -1.142 -34.542  1.00  0.00     0.274 HD
ENDBRANCH  21  23
ENDBRANCH  15  18
ENDBRANCH   1  14
TORSDOF 3
ENDMDL
MODEL 6
REMARK VINA RESULT:      -7.6      4.103      5.335
REMARK  3 active torsions:
REMARK  status: ('A' for Active; 'I' for Inactive)
REMARK    1  A    between atoms: N_1  and  C_5 
REMARK    2  A    between atoms: C_8  and  C_10 
REMARK       I    between atoms: C_10  and  N_12 
REMARK    3  A    between atoms: N_12  and  C_13 
ROOT
HETATM    1  C   UNL     1      -8.685   0.422 -32.818  1.00  0.00     0.057 A 
HETATM    2  C   UNL     1      -8.313  -0.603 -33.697  1.00  0.00     0.043 A 
HETATM    3  C   UNL     1      -7.005  -1.114 -33.678  1.00  0.00    -0.017 A 
HETATM    4  C   UNL     1      -6.593  -2.172 -34.605  1.00  0.00     0.029 A 
HETATM    5  C   UNL     1      -5.336  -2.629 -34.564  1.00  0.00     0.092 A 
HETATM    6  N   UNL     1      -4.424  -2.134 -33.669  1.00  0.00    -0.333 N 
HETATM    7  C   UNL     1      -4.692  -1.143 -32.751  1.00  0.00     0.256 A 
HETATM    8  O   UNL     1      -3.848  -0.730 -31.967  1.00  0.00    -0.267 OA
HETATM    9  C   UNL     1      -6.073  -0.597 -32.763  1.00  0.00     0.044 A 
HETATM   10  C   UNL     1      -6.428   0.422 -31.880  1.00  0.00     0.044 A 
HETATM   11  C   UNL     1      -7.725   0.928 -31.915  1.00  0.00     0.061 A 
HETATM   12 CL   UNL     1      -8.140   2.196 -30.810  1.00  0.00    -0.082 Cl
HETATM   13  H   UNL     1      -3.476  -2.496 -33.656  1.00  0.00     0.168 HD
ENDROOT
BRANCH   1  14
HETATM   14  N   UNL     1      -9.978   1.001 -32.799  1.00  0.00    -0.325 N 
HETATM   15  C   UNL     1     -10.401   2.170 -33.383  1.00  0.00     0.226 C 
HETATM   16  O   UNL     1      -9.755   2.898 -34.138  1.00  0.00    -0.273 OA
HETATM   17  H   UNL     1     -10.668   0.440 -32.304  1.00  0.00     0.169 HD
BRANCH  15  18
HETATM   18  C   UNL     1     -11.874   2.475 -33.105  1.00  0.00     0.080 C 
HETATM   19  C   UNL     1     -12.748   1.281 -33.480  1.00  0.00     0.016 C 
HETATM   20  C   UNL     1     -12.958   1.410 -34.993  1.00  0.00     0.033 C 
HETATM   21  C   UNL     1     -12.768   2.893 -35.325  1.00  0.00     0.184 C 
HETATM   22  C   UNL     1     -12.429   3.585 -34.003  1.00  0.00     0.046 C 
BRANCH  21  23
HETATM   23  N   UNL     1     -11.638   3.053 -36.274  1.00  0.00    -0.075 N 
HETATM   24  H   UNL     1     -10.748   2.697 -35.905  1.00  0.00     0.274 HD
HETATM   25  H   UNL     1     -11.817   2.587 -37.172  1.00  0.00     0.274 HD
HETATM   26  H   UNL     1     -11.491   4.060 -36.507  1.00  0.00     0.274 HD
ENDBRANCH  21  23
ENDBRANCH  15  18
ENDBRANCH   1  14
TORSDOF 3
ENDMDL
MODEL 7
REMARK VINA RESULT:      -7.5      1.794      2.484
REMARK  3 active torsions:
REMARK  status: ('A' for Active; 'I' for Inactive)
REMARK    1  A    between atoms: N_1  and  C_5 
REMARK    2  A    between atoms: C_8  and  C_10 
REMARK       I    between atoms: C_10  and  N_12 
REMARK    3  A    between atoms: N_12  and  C_13 
ROOT
HETATM    1  C   UNL     1      -5.501   0.314 -33.066  1.00  0.00     0.057 A 
HETATM    2  C   UNL     1      -4.570  -0.571 -32.507  1.00  0.00     0.043 A 
HETATM    3  C   UNL     1      -4.432  -1.872 -33.018  1.00  0.00    -0.017 A 
HETATM    4  C   UNL     1      -3.478  -2.818 -32.432  1.00  0.00     0.029 A 
HETATM    5  C   UNL     1      -3.379  -4.052 -32.940  1.00  0.00     0.092 A 
HETATM    6  N   UNL     1      -4.147  -4.451 -34.002  1.00  0.00    -0.333 N 
HETATM    7  C   UNL     1      -5.075  -3.655 -34.636  1.00  0.00     0.256 A 
HETATM    8  O   UNL     1      -5.740  -4.051 -35.584  1.00  0.00    -0.267 OA
HETATM    9  C   UNL     1      -5.227  -2.277 -34.102  1.00  0.00     0.044 A 
HETATM   10  C   UNL     1      -6.158  -1.408 -34.672  1.00  0.00     0.044 A 
HETATM   11  C   UNL     1      -6.293  -0.124 -34.149  1.00  0.00     0.061 A 
HETATM   12 CL   UNL     1      -7.457   0.936 -34.872  1.00  0.00    -0.082 Cl
HETATM   13  H   UNL     1      -4.055  -5.392 -34.370  1.00  0.00     0.168 HD
ENDROOT
BRANCH   1  14
HETATM   14  N   UNL     1      -5.710   1.630 -32.585  1.00  0.00    -0.325 N 
HETATM   15  C   UNL     1      -4.792   2.639 -32.426  1.00  0.00     0.226 C 
HETATM   16  O   UNL     1      -3.613   2.632 -32.778  1.00  0.00    -0.273 OA
HETATM   17  H   UNL     1      -6.683   1.832 -32.362  1.00  0.00     0.169 HD
BRANCH  15  18
HETATM   18  C   UNL     1      -5.405   3.914 -31.841  1.00  0.00     0.080 C 
HETATM   19  C   UNL     1      -6.835   4.099 -32.343  1.00  0.00     0.016 C 
HETATM   20  C   UNL     1      -6.685   4.748 -33.723  1.00  0.00     0.033 C 
HETATM   21  C   UNL     1      -5.328   5.459 -33.715  1.00  0.00     0.184 C 
HETATM   22  C   UNL     1      -4.714   5.187 -32.340  1.00  0.00     0.046 C 
BRANCH  21  23
HETATM   23  N   UNL     1      -4.456   4.888 -34.772  1.00  0.00    -0.075 N 
HETATM   24  H   UNL     1      -4.636   5.286 -35.701  1.00  0.00     0.274 HD
HETATM   25  H   UNL     1      -3.459   5.015 -34.560  1.00  0.00     0.274 HD
HETATM   26  H   UNL     1      -4.595   3.857 -34.848  1.00  0.00     0.274 HD
ENDBRANCH  21  23
ENDBRANCH  15  18
ENDBRANCH   1  14
TORSDOF 3
ENDMDL
MODEL 8
REMARK VINA RESULT:      -7.2      4.083      7.688
REMARK  3 active torsions:
REMARK  status: ('A' for Active; 'I' for Inactive)
REMARK    1  A    between atoms: N_1  and  C_5 
REMARK    2  A    between atoms: C_8  and  C_10 
REMARK       I    between atoms: C_10  and  N_12 
REMARK    3  A    between atoms: N_12  and  C_13 
ROOT
HETATM    1  C   UNL     1      -3.691   3.532 -32.595  1.00  0.00     0.057 A 
HETATM    2  C   UNL     1      -2.587   3.736 -31.757  1.00  0.00     0.043 A 
HETATM    3  C   UNL     1      -1.839   4.921 -31.844  1.00  0.00    -0.017 A 
HETATM    4  C   UNL     1      -0.669   5.141 -30.989  1.00  0.00     0.029 A 
HETATM    5  C   UNL     1       0.024   6.280 -31.104  1.00  0.00     0.092 A 
HETATM    6  N   UNL     1      -0.338   7.250 -32.001  1.00  0.00    -0.333 N 
HETATM    7  C   UNL     1      -1.415   7.158 -32.856  1.00  0.00     0.256 A 
HETATM    8  O   UNL     1      -1.706   8.050 -33.641  1.00  0.00    -0.267 OA
HETATM    9  C   UNL     1      -2.212   5.908 -32.770  1.00  0.00     0.044 A 
HETATM   10  C   UNL     1      -3.309   5.723 -33.611  1.00  0.00     0.044 A 
HETATM   11  C   UNL     1      -4.036   4.538 -33.524  1.00  0.00     0.061 A 
HETATM   12 CL   UNL     1      -5.393   4.330 -34.580  1.00  0.00    -0.082 Cl
HETATM   13  H   UNL     1       0.203   8.105 -32.072  1.00  0.00     0.168 HD
ENDROOT
BRANCH   1  14
HETATM   14  N   UNL     1      -4.473   2.351 -32.579  1.00  0.00    -0.325 N 
HETATM   15  C   UNL     1      -5.681   2.133 -31.962  1.00  0.00     0.226 C 
HETATM   16  O   UNL     1      -6.380   2.965 -31.384  1.00  0.00    -0.273 OA
HETATM   17  H   UNL     1      -4.076   1.592 -33.129  1.00  0.00     0.169 HD
BRANCH  15  18
HETATM   18  C   UNL     1      -6.194   0.703 -32.149  1.00  0.00     0.080 C 
HETATM   19  C   UNL     1      -5.767   0.155 -33.509  1.00  0.00     0.016 C 
HETATM   20  C   UNL     1      -6.802   0.707 -34.496  1.00  0.00     0.033 C 
HETATM   21  C   UNL     1      -8.062   0.997 -33.675  1.00  0.00     0.184 C 
HETATM   22  C   UNL     1      -7.723   0.629 -32.229  1.00  0.00     0.046 C 
BRANCH  21  23
HETATM   23  N   UNL     1      -8.392   2.442 -33.756  1.00  0.00    -0.075 N 
HETATM   24  H   UNL     1      -7.580   3.051 -33.596  1.00  0.00     0.274 HD
HETATM   25  H   UNL     1      -8.802   2.695 -34.664  1.00  0.00     0.274 HD
HETATM   26  H   UNL     1      -9.112   2.697 -33.045  1.00  0.00     0.274 HD
ENDBRANCH  21  23
ENDBRANCH  15  18
ENDBRANCH   1  14
TORSDOF 3
ENDMDL
MODEL 9
REMARK VINA RESULT:      -7.0      5.260      7.967
REMARK  3 active torsions:
REMARK  status: ('A' for Active; 'I' for Inactive)
REMARK    1  A    between atoms: N_1  and  C_5 
REMARK    2  A    between atoms: C_8  and  C_10 
REMARK       I    between atoms: C_10  and  N_12 
REMARK    3  A    between atoms: N_12  and  C_13 
ROOT
HETATM    1  C   UNL     1     -10.500   2.120 -33.293  1.00  0.00     0.057 A 
HETATM    2  C   UNL     1     -11.417   1.251 -33.898  1.00  0.00     0.043 A 
HETATM    3  C   UNL     1     -12.797   1.438 -33.717  1.00  0.00    -0.017 A 
HETATM    4  C   UNL     1     -13.769   0.525 -34.326  1.00  0.00     0.029 A 
HETATM    5  C   UNL     1     -15.076   0.729 -34.125  1.00  0.00     0.092 A 
HETATM    6  N   UNL     1     -15.528   1.776 -33.367  1.00  0.00    -0.333 N 
HETATM    7  C   UNL     1     -14.715   2.697 -32.745  1.00  0.00     0.256 A 
HETATM    8  O   UNL     1     -15.160   3.620 -32.077  1.00  0.00    -0.267 OA
HETATM    9  C   UNL     1     -13.253   2.508 -32.932  1.00  0.00     0.044 A 
HETATM   10  C   UNL     1     -12.354   3.384 -32.323  1.00  0.00     0.044 A 
HETATM   11  C   UNL     1     -10.988   3.183 -32.501  1.00  0.00     0.061 A 
HETATM   12 CL   UNL     1      -9.891   4.281 -31.733  1.00  0.00    -0.082 Cl
HETATM   13  H   UNL     1     -16.525   1.910 -33.228  1.00  0.00     0.168 HD
ENDROOT
BRANCH   1  14
HETATM   14  N   UNL     1      -9.095   1.976 -33.412  1.00  0.00    -0.325 N 
HETATM   15  C   UNL     1      -8.247   1.201 -32.659  1.00  0.00     0.226 C 
HETATM   16  O   UNL     1      -8.561   0.385 -31.792  1.00  0.00    -0.273 OA
HETATM   17  H   UNL     1      -8.696   2.509 -34.182  1.00  0.00     0.169 HD
BRANCH  15  18
HETATM   18  C   UNL     1      -6.782   1.345 -33.077  1.00  0.00     0.080 C 
HETATM   19  C   UNL     1      -6.676   1.604 -34.578  1.00  0.00     0.016 C 
HETATM   20  C   UNL     1      -6.773   0.217 -35.222  1.00  0.00     0.033 C 
HETATM   21  C   UNL     1      -6.317  -0.782 -34.155  1.00  0.00     0.184 C 
HETATM   22  C   UNL     1      -5.988   0.045 -32.910  1.00  0.00     0.046 C 
BRANCH  21  23
HETATM   23  N   UNL     1      -7.420  -1.727 -33.847  1.00  0.00    -0.075 N 
HETATM   24  H   UNL     1      -7.758  -2.235 -34.674  1.00  0.00     0.274 HD
HETATM   25  H   UNL     1      -7.149  -2.420 -33.139  1.00  0.00     0.274 HD
HETATM   26  H   UNL     1      -8.238  -1.221 -33.444  1.00  0.00     0.274 HD
ENDBRANCH  21  23
ENDBRANCH  15  18
ENDBRANCH   1  14
TORSDOF 3
ENDMDL
MODEL 10
REMARK VINA RESULT:      -7.0      3.958      5.438
REMARK  3 active torsions:
REMARK  status: ('A' for Active; 'I' for Inactive)
REMARK    1  A    between atoms: N_1  and  C_5 
REMARK    2  A    between atoms: C_8  and  C_10 
REMARK       I    between atoms: C_10  and  N_12 
REMARK    3  A    between atoms: N_12  and  C_13 
ROOT
HETATM    1  C   UNL     1      -3.810   2.891 -31.780  1.00  0.00     0.057 A 
HETATM    2  C   UNL     1      -3.387   1.605 -32.138  1.00  0.00     0.043 A 
HETATM    3  C   UNL     1      -4.319   0.645 -32.566  1.00  0.00    -0.017 A 
HETATM    4  C   UNL     1      -3.895  -0.713 -32.923  1.00  0.00     0.029 A 
HETATM    5  C   UNL     1      -4.812  -1.604 -33.319  1.00  0.00     0.092 A 
HETATM    6  N   UNL     1      -6.139  -1.274 -33.404  1.00  0.00    -0.333 N 
HETATM    7  C   UNL     1      -6.656  -0.035 -33.096  1.00  0.00     0.256 A 
HETATM    8  O   UNL     1      -7.850   0.218 -33.188  1.00  0.00    -0.267 OA
HETATM    9  C   UNL     1      -5.678   0.986 -32.643  1.00  0.00     0.044 A 
HETATM   10  C   UNL     1      -6.116   2.263 -32.293  1.00  0.00     0.044 A 
HETATM   11  C   UNL     1      -5.184   3.204 -31.860  1.00  0.00     0.061 A 
HETATM   12 CL   UNL     1      -5.753   4.782 -31.428  1.00  0.00    -0.082 Cl
HETATM   13  H   UNL     1      -6.816  -1.967 -33.707  1.00  0.00     0.168 HD
ENDROOT
BRANCH   1  14
HETATM   14  N   UNL     1      -2.929   3.899 -31.317  1.00  0.00    -0.325 N 
HETATM   15  C   UNL     1      -1.968   4.586 -32.018  1.00  0.00     0.226 C 
HETATM   16  O   UNL     1      -1.755   4.534 -33.230  1.00  0.00    -0.273 OA
HETATM   17  H   UNL     1      -3.070   4.145 -30.339  1.00  0.00     0.169 HD
BRANCH  15  18
HETATM   18  C   UNL     1      -1.193   5.579 -31.149  1.00  0.00     0.080 C 
HETATM   19  C   UNL     1      -2.155   6.474 -30.372  1.00  0.00     0.016 C 
HETATM   20  C   UNL     1      -2.551   7.576 -31.362  1.00  0.00     0.033 C 
HETATM   21  C   UNL     1      -1.413   7.661 -32.383  1.00  0.00     0.184 C 
HETATM   22  C   UNL     1      -0.396   6.592 -31.977  1.00  0.00     0.046 C 
BRANCH  21  23
HETATM   23  N   UNL     1      -1.933   7.361 -33.741  1.00  0.00    -0.075 N 
HETATM   24  H   UNL     1      -1.790   8.130 -34.406  1.00  0.00     0.274 HD
HETATM   25  H   UNL     1      -1.509   6.515 -34.139  1.00  0.00     0.274 HD
HETATM   26  H   UNL     1      -2.959   7.170 -33.709  1.00  0.00     0.274 HD
ENDBRANCH  21  23
ENDBRANCH  15  18
ENDBRANCH   1  14
TORSDOF 3
ENDMDL
