MODEL 1
REMARK VINA RESULT:     -10.8      0.000      0.000
REMARK  7 active torsions:
REMARK  status: ('A' for Active; 'I' for Inactive)
REMARK    1  A    between atoms: C_1  and  C_2 
REMARK    2  A    between atoms: C_1  and  O_9 
REMARK    3  A    between atoms: C_2  and  N_3 
REMARK    4  A    between atoms: O_9  and  C_10 
REMARK    5  A    between atoms: C_15  and  C_31 
REMARK    6  A    between atoms: C_17  and  N_18 
REMARK    7  A    between atoms: N_18  and  C_19 
ROOT
HETATM    1  C   UNL     1      -5.722   3.224 -31.128  1.00  0.00     0.069 A 
HETATM    2  C   UNL     1      -6.815   3.740 -30.443  1.00  0.00     0.039 A 
HETATM    3  C   UNL     1      -8.113   3.410 -30.851  1.00  0.00     0.035 A 
HETATM    4  C   UNL     1      -8.357   2.576 -31.933  1.00  0.00     0.073 A 
HETATM    5  N   UNL     1      -9.625   2.307 -32.253  1.00  0.00    -0.228 NA
HETATM    6  C   UNL     1      -9.842   1.506 -33.307  1.00  0.00     0.162 A 
HETATM    7  N   UNL     1      -8.870   0.967 -34.056  1.00  0.00    -0.210 NA
HETATM    8  C   UNL     1      -7.595   1.234 -33.726  1.00  0.00     0.143 A 
HETATM    9  C   UNL     1      -7.266   2.056 -32.636  1.00  0.00     0.041 A 
HETATM   10  C   UNL     1      -5.950   2.393 -32.226  1.00  0.00     0.054 A 
ENDROOT
BRANCH   8  11
HETATM   11  N   UNL     1      -6.554   0.647 -34.497  1.00  0.00    -0.340 N 
HETATM   12  H   UNL     1      -5.824   1.335 -34.644  1.00  0.00     0.167 HD
BRANCH  11  13
HETATM   13  C   UNL     1      -6.036  -0.663 -34.362  1.00  0.00     0.034 A 
HETATM   14  C   UNL     1      -4.785  -0.851 -33.752  1.00  0.00     0.032 A 
HETATM   15  C   UNL     1      -4.195  -2.117 -33.632  1.00  0.00     0.034 A 
HETATM   16  C   UNL     1      -4.895  -3.196 -34.175  1.00  0.00     0.062 A 
HETATM   17  N   UNL     1      -4.612  -4.536 -34.235  1.00  0.00    -0.278 N 
HETATM   18  C   UNL     1      -6.118  -3.053 -34.815  1.00  0.00     0.013 A 
HETATM   19  H   UNL     1      -3.797  -5.013 -33.868  1.00  0.00     0.189 HD
HETATM   20  N   UNL     1      -5.545  -5.268 -34.869  1.00  0.00    -0.186 NA
HETATM   21  C   UNL     1      -6.461  -4.361 -35.223  1.00  0.00     0.152 A 
HETATM   22  C   UNL     1      -6.692  -1.774 -34.922  1.00  0.00     0.044 A 
ENDBRANCH  11  13
ENDBRANCH   8  11
BRANCH   6  23
HETATM   23  C   UNL     1     -11.239   1.174 -33.653  1.00  0.00     0.012 A 
HETATM   24  C   UNL     1     -11.819  -0.055 -33.282  1.00  0.00     0.015 A 
HETATM   25  C   UNL     1     -13.140  -0.372 -33.618  1.00  0.00     0.001 A 
HETATM   26  C   UNL     1     -13.913   0.534 -34.336  1.00  0.00     0.000 A 
HETATM   27  C   UNL     1     -13.369   1.756 -34.717  1.00  0.00     0.001 A 
HETATM   28  C   UNL     1     -12.050   2.071 -34.379  1.00  0.00     0.015 A 
ENDBRANCH   6  23
BRANCH   1  29
HETATM   29  O   UNL     1      -4.407   3.446 -30.833  1.00  0.00    -0.349 OA
BRANCH  29  30
HETATM   30  C   UNL     1      -3.532   3.703 -31.938  1.00  0.00     0.206 C 
BRANCH  30  31
HETATM   31  C   UNL     1      -2.599   4.866 -31.558  1.00  0.00     0.299 C 
BRANCH  31  32
HETATM   32  N   UNL     1      -1.438   5.022 -32.453  1.00  0.00     0.094 N 
HETATM   33  C   UNL     1      -1.797   5.102 -33.886  1.00  0.00     0.298 C 
HETATM   34  C   UNL     1      -2.457   6.430 -34.296  1.00  0.00     0.198 C 
HETATM   35  O   UNL     1      -1.629   7.548 -33.955  1.00  0.00    -0.388 OA
HETATM   36  C   UNL     1      -1.334   7.554 -32.552  1.00  0.00     0.198 C 
HETATM   37  C   UNL     1      -0.663   6.239 -32.112  1.00  0.00     0.298 C 
ENDBRANCH  31  32
ENDBRANCH  30  31
ENDBRANCH  29  30
ENDBRANCH   1  29
TORSDOF 7
ENDMDL
MODEL 2
REMARK VINA RESULT:     -10.1      1.752      5.719
REMARK  7 active torsions:
REMARK  status: ('A' for Active; 'I' for Inactive)
REMARK    1  A    between atoms: C_1  and  C_2 
REMARK    2  A    between atoms: C_1  and  O_9 
REMARK    3  A    between atoms: C_2  and  N_3 
REMARK    4  A    between atoms: O_9  and  C_10 
REMARK    5  A    between atoms: C_15  and  C_31 
REMARK    6  A    between atoms: C_17  and  N_18 
REMARK    7  A    between atoms: N_18  and  C_19 
ROOT
HETATM    1  C   UNL     1      -5.316   3.624 -31.405  1.00  0.00     0.069 A 
HETATM    2  C   UNL     1      -4.386   2.747 -30.861  1.00  0.00     0.039 A 
HETATM    3  C   UNL     1      -4.331   1.422 -31.310  1.00  0.00     0.035 A 
HETATM    4  C   UNL     1      -5.185   0.939 -32.292  1.00  0.00     0.073 A 
HETATM    5  N   UNL     1      -5.063  -0.336 -32.667  1.00  0.00    -0.228 NA
HETATM    6  C   UNL     1      -5.903  -0.788 -33.611  1.00  0.00     0.162 A 
HETATM    7  N   UNL     1      -6.854  -0.044 -34.192  1.00  0.00    -0.210 NA
HETATM    8  C   UNL     1      -6.969   1.242 -33.817  1.00  0.00     0.143 A 
HETATM    9  C   UNL     1      -6.131   1.809 -32.842  1.00  0.00     0.041 A 
HETATM   10  C   UNL     1      -6.191   3.151 -32.384  1.00  0.00     0.054 A 
ENDROOT
BRANCH   8  11
HETATM   11  N   UNL     1      -7.955   2.050 -34.444  1.00  0.00    -0.340 N 
HETATM   12  H   UNL     1      -7.847   1.981 -35.450  1.00  0.00     0.167 HD
BRANCH  11  13
HETATM   13  C   UNL     1      -9.311   2.186 -34.059  1.00  0.00     0.034 A 
HETATM   14  C   UNL     1      -9.724   3.351 -33.392  1.00  0.00     0.032 A 
HETATM   15  C   UNL     1     -11.040   3.527 -32.941  1.00  0.00     0.034 A 
HETATM   16  C   UNL     1     -11.929   2.472 -33.157  1.00  0.00     0.062 A 
HETATM   17  N   UNL     1     -13.255   2.312 -32.848  1.00  0.00    -0.278 N 
HETATM   18  C   UNL     1     -11.556   1.290 -33.781  1.00  0.00     0.013 A 
HETATM   19  H   UNL     1     -13.865   2.975 -32.385  1.00  0.00     0.189 HD
HETATM   20  N   UNL     1     -13.766   1.123 -33.211  1.00  0.00    -0.186 NA
HETATM   21  C   UNL     1     -12.728   0.502 -33.778  1.00  0.00     0.152 A 
HETATM   22  C   UNL     1     -10.232   1.137 -34.228  1.00  0.00     0.044 A 
ENDBRANCH  11  13
ENDBRANCH   8  11
BRANCH   6  23
HETATM   23  C   UNL     1      -5.758  -2.188 -34.058  1.00  0.00     0.012 A 
HETATM   24  C   UNL     1      -6.837  -2.896 -34.625  1.00  0.00     0.015 A 
HETATM   25  C   UNL     1      -6.702  -4.225 -35.041  1.00  0.00     0.001 A 
HETATM   26  C   UNL     1      -5.484  -4.880 -34.898  1.00  0.00     0.000 A 
HETATM   27  C   UNL     1      -4.400  -4.208 -34.342  1.00  0.00     0.001 A 
HETATM   28  C   UNL     1      -4.537  -2.879 -33.929  1.00  0.00     0.015 A 
ENDBRANCH   6  23
BRANCH   1  29
HETATM   29  O   UNL     1      -5.472   4.940 -31.076  1.00  0.00    -0.349 OA
BRANCH  29  30
HETATM   30  C   UNL     1      -4.294   5.646 -30.665  1.00  0.00     0.206 C 
BRANCH  30  31
HETATM   31  C   UNL     1      -3.535   6.095 -31.926  1.00  0.00     0.299 C 
BRANCH  31  32
HETATM   32  N   UNL     1      -2.254   5.396 -32.136  1.00  0.00     0.094 N 
HETATM   33  C   UNL     1      -2.231   4.544 -33.345  1.00  0.00     0.298 C 
HETATM   34  C   UNL     1      -2.169   5.329 -34.667  1.00  0.00     0.198 C 
HETATM   35  O   UNL     1      -1.043   6.213 -34.693  1.00  0.00    -0.388 OA
HETATM   36  C   UNL     1      -1.078   7.117 -33.581  1.00  0.00     0.198 C 
HETATM   37  C   UNL     1      -1.132   6.360 -32.241  1.00  0.00     0.298 C 
ENDBRANCH  31  32
ENDBRANCH  30  31
ENDBRANCH  29  30
ENDBRANCH   1  29
TORSDOF 7
ENDMDL
MODEL 3
REMARK VINA RESULT:      -9.8      2.041      5.902
REMARK  7 active torsions:
REMARK  status: ('A' for Active; 'I' for Inactive)
REMARK    1  A    between atoms: C_1  and  C_2 
REMARK    2  A    between atoms: C_1  and  O_9 
REMARK    3  A    between atoms: C_2  and  N_3 
REMARK    4  A    between atoms: O_9  and  C_10 
REMARK    5  A    between atoms: C_15  and  C_31 
REMARK    6  A    between atoms: C_17  and  N_18 
REMARK    7  A    between atoms: N_18  and  C_19 
ROOT
HETATM    1  C   UNL     1      -4.590   3.806 -31.313  1.00  0.00     0.069 A 
HETATM    2  C   UNL     1      -3.406   3.157 -31.640  1.00  0.00     0.039 A 
HETATM    3  C   UNL     1      -3.446   1.873 -32.196  1.00  0.00     0.035 A 
HETATM    4  C   UNL     1      -4.641   1.209 -32.437  1.00  0.00     0.073 A 
HETATM    5  N   UNL     1      -4.590  -0.011 -32.976  1.00  0.00    -0.228 NA
HETATM    6  C   UNL     1      -5.755  -0.641 -33.194  1.00  0.00     0.162 A 
HETATM    7  N   UNL     1      -6.957  -0.126 -32.900  1.00  0.00    -0.210 NA
HETATM    8  C   UNL     1      -7.003   1.106 -32.364  1.00  0.00     0.143 A 
HETATM    9  C   UNL     1      -5.839   1.849 -32.106  1.00  0.00     0.041 A 
HETATM   10  C   UNL     1      -5.800   3.148 -31.537  1.00  0.00     0.054 A 
ENDROOT
BRANCH   8  11
HETATM   11  N   UNL     1      -8.273   1.676 -32.073  1.00  0.00    -0.340 N 
HETATM   12  H   UNL     1      -8.154   2.413 -31.387  1.00  0.00     0.167 HD
BRANCH  11  13
HETATM   13  C   UNL     1      -9.304   1.966 -32.998  1.00  0.00     0.034 A 
HETATM   14  C   UNL     1      -9.250   3.157 -33.740  1.00  0.00     0.032 A 
HETATM   15  C   UNL     1     -10.263   3.526 -34.637  1.00  0.00     0.034 A 
HETATM   16  C   UNL     1     -11.358   2.665 -34.743  1.00  0.00     0.062 A 
HETATM   17  N   UNL     1     -12.498   2.722 -35.502  1.00  0.00    -0.278 N 
HETATM   18  C   UNL     1     -11.469   1.495 -34.006  1.00  0.00     0.013 A 
HETATM   19  H   UNL     1     -12.763   3.439 -36.166  1.00  0.00     0.189 HD
HETATM   20  N   UNL     1     -13.340   1.691 -35.309  1.00  0.00    -0.186 NA
HETATM   21  C   UNL     1     -12.710   0.946 -34.395  1.00  0.00     0.152 A 
HETATM   22  C   UNL     1     -10.439   1.144 -33.115  1.00  0.00     0.044 A 
ENDBRANCH  11  13
ENDBRANCH   8  11
BRANCH   6  23
HETATM   23  C   UNL     1      -5.716  -1.979 -33.818  1.00  0.00     0.012 A 
HETATM   24  C   UNL     1      -6.871  -2.570 -34.368  1.00  0.00     0.015 A 
HETATM   25  C   UNL     1      -6.836  -3.840 -34.952  1.00  0.00     0.001 A 
HETATM   26  C   UNL     1      -5.643  -4.554 -34.997  1.00  0.00     0.000 A 
HETATM   27  C   UNL     1      -4.485  -3.998 -34.462  1.00  0.00     0.001 A 
HETATM   28  C   UNL     1      -4.523  -2.727 -33.882  1.00  0.00     0.015 A 
ENDBRANCH   6  23
BRANCH   1  29
HETATM   29  O   UNL     1      -4.702   5.060 -30.782  1.00  0.00    -0.349 OA
BRANCH  29  30
HETATM   30  C   UNL     1      -3.863   6.076 -31.344  1.00  0.00     0.206 C 
BRANCH  30  31
HETATM   31  C   UNL     1      -2.897   6.565 -30.251  1.00  0.00     0.299 C 
BRANCH  31  32
HETATM   32  N   UNL     1      -1.712   7.274 -30.770  1.00  0.00     0.094 N 
HETATM   33  C   UNL     1      -0.642   7.462 -29.765  1.00  0.00     0.298 C 
HETATM   34  C   UNL     1       0.122   6.173 -29.412  1.00  0.00     0.198 C 
HETATM   35  O   UNL     1       0.677   5.562 -30.582  1.00  0.00    -0.388 OA
HETATM   36  C   UNL     1      -0.348   5.283 -31.546  1.00  0.00     0.198 C 
HETATM   37  C   UNL     1      -1.126   6.555 -31.927  1.00  0.00     0.298 C 
ENDBRANCH  31  32
ENDBRANCH  30  31
ENDBRANCH  29  30
ENDBRANCH   1  29
TORSDOF 7
ENDMDL
MODEL 4
REMARK VINA RESULT:      -9.8      2.096      5.839
REMARK  7 active torsions:
REMARK  status: ('A' for Active; 'I' for Inactive)
REMARK    1  A    between atoms: C_1  and  C_2 
REMARK    2  A    between atoms: C_1  and  O_9 
REMARK    3  A    between atoms: C_2  and  N_3 
REMARK    4  A    between atoms: O_9  and  C_10 
REMARK    5  A    between atoms: C_15  and  C_31 
REMARK    6  A    between atoms: C_17  and  N_18 
REMARK    7  A    between atoms: N_18  and  C_19 
ROOT
HETATM    1  C   UNL     1      -4.373   3.827 -31.875  1.00  0.00     0.069 A 
HETATM    2  C   UNL     1      -3.331   2.955 -31.589  1.00  0.00     0.039 A 
HETATM    3  C   UNL     1      -3.415   1.614 -31.984  1.00  0.00     0.035 A 
HETATM    4  C   UNL     1      -4.518   1.111 -32.659  1.00  0.00     0.073 A 
HETATM    5  N   UNL     1      -4.516  -0.178 -33.005  1.00  0.00    -0.228 NA
HETATM    6  C   UNL     1      -5.595  -0.649 -33.649  1.00  0.00     0.162 A 
HETATM    7  N   UNL     1      -6.669   0.090 -33.959  1.00  0.00    -0.210 NA
HETATM    8  C   UNL     1      -6.664   1.390 -33.616  1.00  0.00     0.143 A 
HETATM    9  C   UNL     1      -5.578   1.977 -32.946  1.00  0.00     0.041 A 
HETATM   10  C   UNL     1      -5.495   3.335 -32.542  1.00  0.00     0.054 A 
ENDROOT
BRANCH   8  11
HETATM   11  N   UNL     1      -7.786   2.192 -33.963  1.00  0.00    -0.340 N 
HETATM   12  H   UNL     1      -7.569   2.715 -34.803  1.00  0.00     0.167 HD
BRANCH  11  13
HETATM   13  C   UNL     1      -9.149   1.814 -33.902  1.00  0.00     0.034 A 
HETATM   14  C   UNL     1      -9.518   0.685 -33.153  1.00  0.00     0.032 A 
HETATM   15  C   UNL     1     -10.843   0.230 -33.091  1.00  0.00     0.034 A 
HETATM   16  C   UNL     1     -11.790   0.937 -33.836  1.00  0.00     0.062 A 
HETATM   17  N   UNL     1     -13.140   0.766 -34.001  1.00  0.00    -0.278 N 
HETATM   18  C   UNL     1     -11.464   2.038 -34.615  1.00  0.00     0.013 A 
HETATM   19  H   UNL     1     -13.729   0.057 -33.581  1.00  0.00     0.189 HD
HETATM   20  N   UNL     1     -13.711   1.658 -34.829  1.00  0.00    -0.186 NA
HETATM   21  C   UNL     1     -12.687   2.431 -35.203  1.00  0.00     0.152 A 
HETATM   22  C   UNL     1     -10.129   2.477 -34.660  1.00  0.00     0.044 A 
ENDBRANCH  11  13
ENDBRANCH   8  11
BRANCH   6  23
HETATM   23  C   UNL     1      -5.594  -2.066 -34.066  1.00  0.00     0.012 A 
HETATM   24  C   UNL     1      -6.755  -2.689 -34.565  1.00  0.00     0.015 A 
HETATM   25  C   UNL     1      -6.755  -4.033 -34.951  1.00  0.00     0.001 A 
HETATM   26  C   UNL     1      -5.593  -4.790 -34.845  1.00  0.00     0.000 A 
HETATM   27  C   UNL     1      -4.430  -4.203 -34.356  1.00  0.00     0.001 A 
HETATM   28  C   UNL     1      -4.432  -2.859 -33.973  1.00  0.00     0.015 A 
ENDBRANCH   6  23
BRANCH   1  29
HETATM   29  O   UNL     1      -4.420   5.157 -31.566  1.00  0.00    -0.349 OA
BRANCH  29  30
HETATM   30  C   UNL     1      -3.807   6.057 -32.496  1.00  0.00     0.206 C 
BRANCH  30  31
HETATM   31  C   UNL     1      -2.692   6.825 -31.765  1.00  0.00     0.299 C 
BRANCH  31  32
HETATM   32  N   UNL     1      -2.168   6.132 -30.573  1.00  0.00     0.094 N 
HETATM   33  C   UNL     1      -0.804   5.587 -30.751  1.00  0.00     0.298 C 
HETATM   34  C   UNL     1       0.302   6.657 -30.776  1.00  0.00     0.198 C 
HETATM   35  O   UNL     1       0.268   7.465 -29.595  1.00  0.00    -0.388 OA
HETATM   36  C   UNL     1      -1.015   8.083 -29.436  1.00  0.00     0.198 C 
HETATM   37  C   UNL     1      -2.144   7.037 -29.399  1.00  0.00     0.298 C 
ENDBRANCH  31  32
ENDBRANCH  30  31
ENDBRANCH  29  30
ENDBRANCH   1  29
TORSDOF 7
ENDMDL
MODEL 5
REMARK VINA RESULT:      -9.6      2.638      6.981
REMARK  7 active torsions:
REMARK  status: ('A' for Active; 'I' for Inactive)
REMARK    1  A    between atoms: C_1  and  C_2 
REMARK    2  A    between atoms: C_1  and  O_9 
REMARK    3  A    between atoms: C_2  and  N_3 
REMARK    4  A    between atoms: O_9  and  C_10 
REMARK    5  A    between atoms: C_15  and  C_31 
REMARK    6  A    between atoms: C_17  and  N_18 
REMARK    7  A    between atoms: N_18  and  C_19 
ROOT
HETATM    1  C   UNL     1      -4.969   3.713 -32.405  1.00  0.00     0.069 A 
HETATM    2  C   UNL     1      -3.928   2.964 -31.872  1.00  0.00     0.039 A 
HETATM    3  C   UNL     1      -3.848   1.592 -32.137  1.00  0.00     0.035 A 
HETATM    4  C   UNL     1      -4.787   0.936 -32.923  1.00  0.00     0.073 A 
HETATM    5  N   UNL     1      -4.634  -0.373 -33.131  1.00  0.00    -0.228 NA
HETATM    6  C   UNL     1      -5.556  -0.993 -33.885  1.00  0.00     0.162 A 
HETATM    7  N   UNL     1      -6.615  -0.381 -34.433  1.00  0.00    -0.210 NA
HETATM    8  C   UNL     1      -6.760   0.939 -34.227  1.00  0.00     0.143 A 
HETATM    9  C   UNL     1      -5.844   1.677 -33.458  1.00  0.00     0.041 A 
HETATM   10  C   UNL     1      -5.928   3.067 -33.186  1.00  0.00     0.054 A 
ENDROOT
BRANCH   8  11
HETATM   11  N   UNL     1      -7.865   1.606 -34.825  1.00  0.00    -0.340 N 
HETATM   12  H   UNL     1      -7.874   1.403 -35.818  1.00  0.00     0.167 HD
BRANCH  11  13
HETATM   13  C   UNL     1      -9.170   1.730 -34.291  1.00  0.00     0.034 A 
HETATM   14  C   UNL     1      -9.793   0.606 -33.725  1.00  0.00     0.032 A 
HETATM   15  C   UNL     1     -11.102   0.651 -33.223  1.00  0.00     0.034 A 
HETATM   16  C   UNL     1     -11.781   1.865 -33.335  1.00  0.00     0.062 A 
HETATM   17  N   UNL     1     -13.043   2.248 -32.961  1.00  0.00    -0.278 N 
HETATM   18  C   UNL     1     -11.216   2.992 -33.916  1.00  0.00     0.013 A 
HETATM   19  H   UNL     1     -13.749   1.684 -32.502  1.00  0.00     0.189 HD
HETATM   20  N   UNL     1     -13.344   3.524 -33.261  1.00  0.00    -0.186 NA
HETATM   21  C   UNL     1     -12.229   3.974 -33.844  1.00  0.00     0.152 A 
HETATM   22  C   UNL     1      -9.902   2.925 -34.410  1.00  0.00     0.044 A 
ENDBRANCH  11  13
ENDBRANCH   8  11
BRANCH   6  23
HETATM   23  C   UNL     1      -5.383  -2.435 -34.151  1.00  0.00     0.012 A 
HETATM   24  C   UNL     1      -6.407  -3.204 -34.740  1.00  0.00     0.015 A 
HETATM   25  C   UNL     1      -6.246  -4.572 -34.983  1.00  0.00     0.001 A 
HETATM   26  C   UNL     1      -5.057  -5.207 -34.640  1.00  0.00     0.000 A 
HETATM   27  C   UNL     1      -4.027  -4.475 -34.057  1.00  0.00     0.001 A 
HETATM   28  C   UNL     1      -4.190  -3.107 -33.817  1.00  0.00     0.015 A 
ENDBRANCH   6  23
BRANCH   1  29
HETATM   29  O   UNL     1      -5.162   5.055 -32.243  1.00  0.00    -0.349 OA
BRANCH  29  30
HETATM   30  C   UNL     1      -5.593   5.494 -30.949  1.00  0.00     0.206 C 
BRANCH  30  31
HETATM   31  C   UNL     1      -7.119   5.691 -30.988  1.00  0.00     0.299 C 
BRANCH  31  32
HETATM   32  N   UNL     1      -7.824   5.153 -29.810  1.00  0.00     0.094 N 
HETATM   33  C   UNL     1      -9.272   5.456 -29.792  1.00  0.00     0.298 C 
HETATM   34  C   UNL     1     -10.095   4.654 -30.815  1.00  0.00     0.198 C 
HETATM   35  O   UNL     1      -9.908   3.245 -30.641  1.00  0.00    -0.388 OA
HETATM   36  C   UNL     1      -8.520   2.900 -30.742  1.00  0.00     0.198 C 
HETATM   37  C   UNL     1      -7.669   3.681 -29.724  1.00  0.00     0.298 C 
ENDBRANCH  31  32
ENDBRANCH  30  31
ENDBRANCH  29  30
ENDBRANCH   1  29
TORSDOF 7
ENDMDL
MODEL 6
REMARK VINA RESULT:      -9.4      2.779      6.482
REMARK  7 active torsions:
REMARK  status: ('A' for Active; 'I' for Inactive)
REMARK    1  A    between atoms: C_1  and  C_2 
REMARK    2  A    between atoms: C_1  and  O_9 
REMARK    3  A    between atoms: C_2  and  N_3 
REMARK    4  A    between atoms: O_9  and  C_10 
REMARK    5  A    between atoms: C_15  and  C_31 
REMARK    6  A    between atoms: C_17  and  N_18 
REMARK    7  A    between atoms: N_18  and  C_19 
ROOT
HETATM    1  C   UNL     1      -4.482   4.032 -31.363  1.00  0.00     0.069 A 
HETATM    2  C   UNL     1      -3.313   3.345 -31.663  1.00  0.00     0.039 A 
HETATM    3  C   UNL     1      -3.381   2.052 -32.196  1.00  0.00     0.035 A 
HETATM    4  C   UNL     1      -4.591   1.416 -32.438  1.00  0.00     0.073 A 
HETATM    5  N   UNL     1      -4.567   0.185 -32.953  1.00  0.00    -0.228 NA
HETATM    6  C   UNL     1      -5.746  -0.418 -33.172  1.00  0.00     0.162 A 
HETATM    7  N   UNL     1      -6.936   0.135 -32.902  1.00  0.00    -0.210 NA
HETATM    8  C   UNL     1      -6.955   1.377 -32.391  1.00  0.00     0.143 A 
HETATM    9  C   UNL     1      -5.774   2.094 -32.133  1.00  0.00     0.041 A 
HETATM   10  C   UNL     1      -5.706   3.402 -31.588  1.00  0.00     0.054 A 
ENDROOT
BRANCH   8  11
HETATM   11  N   UNL     1      -8.212   1.986 -32.125  1.00  0.00    -0.340 N 
HETATM   12  H   UNL     1      -8.068   2.793 -31.528  1.00  0.00     0.167 HD
BRANCH  11  13
HETATM   13  C   UNL     1      -9.271   2.181 -33.044  1.00  0.00     0.034 A 
HETATM   14  C   UNL     1      -9.274   3.324 -33.860  1.00  0.00     0.032 A 
HETATM   15  C   UNL     1     -10.317   3.600 -34.756  1.00  0.00     0.034 A 
HETATM   16  C   UNL     1     -11.382   2.697 -34.784  1.00  0.00     0.062 A 
HETATM   17  N   UNL     1     -12.538   2.666 -35.520  1.00  0.00    -0.278 N 
HETATM   18  C   UNL     1     -11.437   1.573 -33.973  1.00  0.00     0.013 A 
HETATM   19  H   UNL     1     -12.841   3.330 -36.223  1.00  0.00     0.189 HD
HETATM   20  N   UNL     1     -13.339   1.621 -35.245  1.00  0.00    -0.186 NA
HETATM   21  C   UNL     1     -12.665   0.958 -34.300  1.00  0.00     0.152 A 
HETATM   22  C   UNL     1     -10.378   1.315 -33.084  1.00  0.00     0.044 A 
ENDBRANCH  11  13
ENDBRANCH   8  11
BRANCH   6  23
HETATM   23  C   UNL     1      -5.736  -1.768 -33.771  1.00  0.00     0.012 A 
HETATM   24  C   UNL     1      -4.546  -2.514 -33.890  1.00  0.00     0.015 A 
HETATM   25  C   UNL     1      -4.537  -3.789 -34.465  1.00  0.00     0.001 A 
HETATM   26  C   UNL     1      -5.718  -4.350 -34.938  1.00  0.00     0.000 A 
HETATM   27  C   UNL     1      -6.909  -3.638 -34.836  1.00  0.00     0.001 A 
HETATM   28  C   UNL     1      -6.917  -2.365 -34.258  1.00  0.00     0.015 A 
ENDBRANCH   6  23
BRANCH   1  29
HETATM   29  O   UNL     1      -4.566   5.298 -30.856  1.00  0.00    -0.349 OA
BRANCH  29  30
HETATM   30  C   UNL     1      -5.824   5.968 -31.002  1.00  0.00     0.206 C 
BRANCH  30  31
HETATM   31  C   UNL     1      -5.875   7.127 -29.990  1.00  0.00     0.299 C 
BRANCH  31  32
HETATM   32  N   UNL     1      -6.734   6.865 -28.821  1.00  0.00     0.094 N 
HETATM   33  C   UNL     1      -6.221   5.801 -27.930  1.00  0.00     0.298 C 
HETATM   34  C   UNL     1      -4.993   6.214 -27.100  1.00  0.00     0.198 C 
HETATM   35  O   UNL     1      -5.261   7.388 -26.324  1.00  0.00    -0.388 OA
HETATM   36  C   UNL     1      -5.677   8.471 -27.167  1.00  0.00     0.198 C 
HETATM   37  C   UNL     1      -6.911   8.091 -28.006  1.00  0.00     0.298 C 
ENDBRANCH  31  32
ENDBRANCH  30  31
ENDBRANCH  29  30
ENDBRANCH   1  29
TORSDOF 7
ENDMDL
MODEL 7
REMARK VINA RESULT:      -9.2      1.692      2.251
REMARK  7 active torsions:
REMARK  status: ('A' for Active; 'I' for Inactive)
REMARK    1  A    between atoms: C_1  and  C_2 
REMARK    2  A    between atoms: C_1  and  O_9 
REMARK    3  A    between atoms: C_2  and  N_3 
REMARK    4  A    between atoms: O_9  and  C_10 
REMARK    5  A    between atoms: C_15  and  C_31 
REMARK    6  A    between atoms: C_17  and  N_18 
REMARK    7  A    between atoms: N_18  and  C_19 
ROOT
HETATM    1  C   UNL     1      -6.707   4.844 -32.981  1.00  0.00     0.069 A 
HETATM    2  C   UNL     1      -7.671   5.699 -33.499  1.00  0.00     0.039 A 
HETATM    3  C   UNL     1      -8.986   5.249 -33.664  1.00  0.00     0.035 A 
HETATM    4  C   UNL     1      -9.373   3.958 -33.328  1.00  0.00     0.073 A 
HETATM    5  N   UNL     1     -10.648   3.611 -33.512  1.00  0.00    -0.228 NA
HETATM    6  C   UNL     1     -11.002   2.357 -33.190  1.00  0.00     0.162 A 
HETATM    7  N   UNL     1     -10.156   1.437 -32.704  1.00  0.00    -0.210 NA
HETATM    8  C   UNL     1      -8.875   1.794 -32.513  1.00  0.00     0.143 A 
HETATM    9  C   UNL     1      -8.409   3.085 -32.813  1.00  0.00     0.041 A 
HETATM   10  C   UNL     1      -7.075   3.540 -32.650  1.00  0.00     0.054 A 
ENDROOT
BRANCH   8  11
HETATM   11  N   UNL     1      -7.973   0.836 -31.973  1.00  0.00    -0.340 N 
HETATM   12  H   UNL     1      -8.391   0.418 -31.149  1.00  0.00     0.167 HD
BRANCH  11  13
HETATM   13  C   UNL     1      -7.180  -0.084 -32.698  1.00  0.00     0.034 A 
HETATM   14  C   UNL     1      -7.695  -0.666 -33.868  1.00  0.00     0.032 A 
HETATM   15  C   UNL     1      -6.979  -1.621 -34.606  1.00  0.00     0.034 A 
HETATM   16  C   UNL     1      -5.729  -1.997 -34.109  1.00  0.00     0.062 A 
HETATM   17  N   UNL     1      -4.791  -2.885 -34.566  1.00  0.00    -0.278 N 
HETATM   18  C   UNL     1      -5.196  -1.473 -32.940  1.00  0.00     0.013 A 
HETATM   19  H   UNL     1      -4.836  -3.457 -35.401  1.00  0.00     0.189 HD
HETATM   20  N   UNL     1      -3.700  -2.985 -33.785  1.00  0.00    -0.186 NA
HETATM   21  C   UNL     1      -3.951  -2.124 -32.795  1.00  0.00     0.152 A 
HETATM   22  C   UNL     1      -5.930  -0.515 -32.219  1.00  0.00     0.044 A 
ENDBRANCH  11  13
ENDBRANCH   8  11
BRANCH   6  23
HETATM   23  C   UNL     1     -12.416   1.968 -33.358  1.00  0.00     0.012 A 
HETATM   24  C   UNL     1     -13.447   2.604 -32.638  1.00  0.00     0.015 A 
HETATM   25  C   UNL     1     -14.786   2.229 -32.792  1.00  0.00     0.001 A 
HETATM   26  C   UNL     1     -15.127   1.205 -33.669  1.00  0.00     0.000 A 
HETATM   27  C   UNL     1     -14.132   0.557 -34.394  1.00  0.00     0.001 A 
HETATM   28  C   UNL     1     -12.795   0.936 -34.241  1.00  0.00     0.015 A 
ENDBRANCH   6  23
BRANCH   1  29
HETATM   29  O   UNL     1      -5.396   5.151 -32.751  1.00  0.00    -0.349 OA
BRANCH  29  30
HETATM   30  C   UNL     1      -4.489   4.050 -32.615  1.00  0.00     0.206 C 
BRANCH  30  31
HETATM   31  C   UNL     1      -3.185   4.571 -31.987  1.00  0.00     0.299 C 
BRANCH  31  32
HETATM   32  N   UNL     1      -2.007   4.457 -32.867  1.00  0.00     0.094 N 
HETATM   33  C   UNL     1      -2.234   4.967 -34.237  1.00  0.00     0.298 C 
HETATM   34  C   UNL     1      -2.319   6.501 -34.331  1.00  0.00     0.198 C 
HETATM   35  O   UNL     1      -1.147   7.119 -33.787  1.00  0.00    -0.388 OA
HETATM   36  C   UNL     1      -0.944   6.717 -32.426  1.00  0.00     0.198 C 
HETATM   37  C   UNL     1      -0.847   5.186 -32.300  1.00  0.00     0.298 C 
ENDBRANCH  31  32
ENDBRANCH  30  31
ENDBRANCH  29  30
ENDBRANCH   1  29
TORSDOF 7
ENDMDL
MODEL 8
REMARK VINA RESULT:      -9.1      2.952      6.450
REMARK  7 active torsions:
REMARK  status: ('A' for Active; 'I' for Inactive)
REMARK    1  A    between atoms: C_1  and  C_2 
REMARK    2  A    between atoms: C_1  and  O_9 
REMARK    3  A    between atoms: C_2  and  N_3 
REMARK    4  A    between atoms: O_9  and  C_10 
REMARK    5  A    between atoms: C_15  and  C_31 
REMARK    6  A    between atoms: C_17  and  N_18 
REMARK    7  A    between atoms: N_18  and  C_19 
ROOT
HETATM    1  C   UNL     1      -9.170   4.228 -31.261  1.00  0.00     0.069 A 
HETATM    2  C   UNL     1      -9.698   3.044 -30.762  1.00  0.00     0.039 A 
HETATM    3  C   UNL     1      -9.208   1.814 -31.219  1.00  0.00     0.035 A 
HETATM    4  C   UNL     1      -8.199   1.728 -32.168  1.00  0.00     0.073 A 
HETATM    5  N   UNL     1      -7.786   0.517 -32.545  1.00  0.00    -0.228 NA
HETATM    6  C   UNL     1      -6.816   0.453 -33.471  1.00  0.00     0.162 A 
HETATM    7  N   UNL     1      -6.246   1.524 -34.040  1.00  0.00    -0.210 NA
HETATM    8  C   UNL     1      -6.661   2.742 -33.652  1.00  0.00     0.143 A 
HETATM    9  C   UNL     1      -7.665   2.913 -32.684  1.00  0.00     0.041 A 
HETATM   10  C   UNL     1      -8.164   4.159 -32.225  1.00  0.00     0.054 A 
ENDROOT
BRANCH   8  11
HETATM   11  N   UNL     1      -6.046   3.888 -34.227  1.00  0.00    -0.340 N 
HETATM   12  H   UNL     1      -6.729   4.635 -34.286  1.00  0.00     0.167 HD
BRANCH  11  13
HETATM   13  C   UNL     1      -4.742   4.373 -33.963  1.00  0.00     0.034 A 
HETATM   14  C   UNL     1      -4.056   5.084 -34.961  1.00  0.00     0.032 A 
HETATM   15  C   UNL     1      -2.746   5.550 -34.780  1.00  0.00     0.034 A 
HETATM   16  C   UNL     1      -2.129   5.248 -33.564  1.00  0.00     0.062 A 
HETATM   17  N   UNL     1      -0.884   5.538 -33.070  1.00  0.00    -0.278 N 
HETATM   18  C   UNL     1      -2.757   4.519 -32.563  1.00  0.00     0.013 A 
HETATM   19  H   UNL     1      -0.145   6.060 -33.526  1.00  0.00     0.189 HD
HETATM   20  N   UNL     1      -0.651   5.049 -31.839  1.00  0.00    -0.186 NA
HETATM   21  C   UNL     1      -1.795   4.428 -31.534  1.00  0.00     0.152 A 
HETATM   22  C   UNL     1      -4.073   4.066 -32.766  1.00  0.00     0.044 A 
ENDBRANCH  11  13
ENDBRANCH   8  11
BRANCH   6  23
HETATM   23  C   UNL     1      -6.326  -0.881 -33.874  1.00  0.00     0.012 A 
HETATM   24  C   UNL     1      -7.190  -1.847 -34.427  1.00  0.00     0.015 A 
HETATM   25  C   UNL     1      -6.726  -3.113 -34.800  1.00  0.00     0.001 A 
HETATM   26  C   UNL     1      -5.387  -3.445 -34.629  1.00  0.00     0.000 A 
HETATM   27  C   UNL     1      -4.509  -2.512 -34.087  1.00  0.00     0.001 A 
HETATM   28  C   UNL     1      -4.974  -1.246 -33.716  1.00  0.00     0.015 A 
ENDBRANCH   6  23
BRANCH   1  29
HETATM   29  O   UNL     1      -9.539   5.492 -30.897  1.00  0.00    -0.349 OA
BRANCH  29  30
HETATM   30  C   UNL     1      -9.151   5.925 -29.587  1.00  0.00     0.206 C 
BRANCH  30  31
HETATM   31  C   UNL     1      -8.104   7.042 -29.736  1.00  0.00     0.299 C 
BRANCH  31  32
HETATM   32  N   UNL     1      -7.078   7.048 -28.677  1.00  0.00     0.094 N 
HETATM   33  C   UNL     1      -6.519   5.711 -28.379  1.00  0.00     0.298 C 
HETATM   34  C   UNL     1      -5.579   5.166 -29.468  1.00  0.00     0.198 C 
HETATM   35  O   UNL     1      -4.505   6.076 -29.730  1.00  0.00    -0.388 OA
HETATM   36  C   UNL     1      -5.010   7.363 -30.110  1.00  0.00     0.198 C 
HETATM   37  C   UNL     1      -5.949   7.940 -29.035  1.00  0.00     0.298 C 
ENDBRANCH  31  32
ENDBRANCH  30  31
ENDBRANCH  29  30
ENDBRANCH   1  29
TORSDOF 7
ENDMDL
MODEL 9
REMARK VINA RESULT:      -9.1      2.602      6.680
REMARK  7 active torsions:
REMARK  status: ('A' for Active; 'I' for Inactive)
REMARK    1  A    between atoms: C_1  and  C_2 
REMARK    2  A    between atoms: C_1  and  O_9 
REMARK    3  A    between atoms: C_2  and  N_3 
REMARK    4  A    between atoms: O_9  and  C_10 
REMARK    5  A    between atoms: C_15  and  C_31 
REMARK    6  A    between atoms: C_17  and  N_18 
REMARK    7  A    between atoms: N_18  and  C_19 
ROOT
HETATM    1  C   UNL     1      -4.812   3.798 -31.384  1.00  0.00     0.069 A 
HETATM    2  C   UNL     1      -3.602   3.211 -31.729  1.00  0.00     0.039 A 
HETATM    3  C   UNL     1      -3.582   1.920 -32.271  1.00  0.00     0.035 A 
HETATM    4  C   UNL     1      -4.744   1.188 -32.478  1.00  0.00     0.073 A 
HETATM    5  N   UNL     1      -4.637  -0.033 -33.004  1.00  0.00    -0.228 NA
HETATM    6  C   UNL     1      -5.770  -0.730 -33.189  1.00  0.00     0.162 A 
HETATM    7  N   UNL     1      -6.992  -0.277 -32.874  1.00  0.00    -0.210 NA
HETATM    8  C   UNL     1      -7.094   0.956 -32.352  1.00  0.00     0.143 A 
HETATM    9  C   UNL     1      -5.968   1.765 -32.127  1.00  0.00     0.041 A 
HETATM   10  C   UNL     1      -5.988   3.072 -31.574  1.00  0.00     0.054 A 
ENDROOT
BRANCH   8  11
HETATM   11  N   UNL     1      -8.387   1.459 -32.038  1.00  0.00    -0.340 N 
HETATM   12  H   UNL     1      -8.308   2.119 -31.273  1.00  0.00     0.167 HD
BRANCH  11  13
HETATM   13  C   UNL     1      -9.401   1.822 -32.957  1.00  0.00     0.034 A 
HETATM   14  C   UNL     1      -9.324   3.061 -33.614  1.00  0.00     0.032 A 
HETATM   15  C   UNL     1     -10.319   3.501 -34.499  1.00  0.00     0.034 A 
HETATM   16  C   UNL     1     -11.420   2.661 -34.681  1.00  0.00     0.062 A 
HETATM   17  N   UNL     1     -12.547   2.781 -35.452  1.00  0.00    -0.278 N 
HETATM   18  C   UNL     1     -11.553   1.444 -34.028  1.00  0.00     0.013 A 
HETATM   19  H   UNL     1     -12.794   3.545 -36.069  1.00  0.00     0.189 HD
HETATM   20  N   UNL     1     -13.401   1.749 -35.343  1.00  0.00    -0.186 NA
HETATM   21  C   UNL     1     -12.793   0.936 -34.473  1.00  0.00     0.152 A 
HETATM   22  C   UNL     1     -10.541   1.022 -33.148  1.00  0.00     0.044 A 
ENDBRANCH  11  13
ENDBRANCH   8  11
BRANCH   6  23
HETATM   23  C   UNL     1      -5.671  -2.071 -33.800  1.00  0.00     0.012 A 
HETATM   24  C   UNL     1      -4.461  -2.794 -33.798  1.00  0.00     0.015 A 
HETATM   25  C   UNL     1      -4.366  -4.061 -34.384  1.00  0.00     0.001 A 
HETATM   26  C   UNL     1      -5.479  -4.635 -34.989  1.00  0.00     0.000 A 
HETATM   27  C   UNL     1      -6.687  -3.945 -35.008  1.00  0.00     0.001 A 
HETATM   28  C   UNL     1      -6.780  -2.680 -34.419  1.00  0.00     0.015 A 
ENDBRANCH   6  23
BRANCH   1  29
HETATM   29  O   UNL     1      -4.982   5.050 -30.864  1.00  0.00    -0.349 OA
BRANCH  29  30
HETATM   30  C   UNL     1      -5.685   5.997 -31.677  1.00  0.00     0.206 C 
BRANCH  30  31
HETATM   31  C   UNL     1      -6.904   6.503 -30.887  1.00  0.00     0.299 C 
BRANCH  31  32
HETATM   32  N   UNL     1      -8.187   5.920 -31.320  1.00  0.00     0.094 N 
HETATM   33  C   UNL     1      -9.237   5.947 -30.279  1.00  0.00     0.298 C 
HETATM   34  C   UNL     1      -9.816   7.346 -30.007  1.00  0.00     0.198 C 
HETATM   35  O   UNL     1     -10.328   7.938 -31.206  1.00  0.00    -0.388 OA
HETATM   36  C   UNL     1      -9.309   8.011 -32.213  1.00  0.00     0.198 C 
HETATM   37  C   UNL     1      -8.715   6.623 -32.514  1.00  0.00     0.298 C 
ENDBRANCH  31  32
ENDBRANCH  30  31
ENDBRANCH  29  30
ENDBRANCH   1  29
TORSDOF 7
ENDMDL
MODEL 10
REMARK VINA RESULT:      -9.1      3.473      6.828
REMARK  7 active torsions:
REMARK  status: ('A' for Active; 'I' for Inactive)
REMARK    1  A    between atoms: C_1  and  C_2 
REMARK    2  A    between atoms: C_1  and  O_9 
REMARK    3  A    between atoms: C_2  and  N_3 
REMARK    4  A    between atoms: O_9  and  C_10 
REMARK    5  A    between atoms: C_15  and  C_31 
REMARK    6  A    between atoms: C_17  and  N_18 
REMARK    7  A    between atoms: N_18  and  C_19 
ROOT
HETATM    1  C   UNL     1      -6.816   4.411 -29.613  1.00  0.00     0.069 A 
HETATM    2  C   UNL     1      -7.989   3.796 -30.029  1.00  0.00     0.039 A 
HETATM    3  C   UNL     1      -7.930   2.664 -30.851  1.00  0.00     0.035 A 
HETATM    4  C   UNL     1      -6.724   2.123 -31.276  1.00  0.00     0.073 A 
HETATM    5  N   UNL     1      -6.755   1.039 -32.054  1.00  0.00    -0.228 NA
HETATM    6  C   UNL     1      -5.580   0.535 -32.463  1.00  0.00     0.162 A 
HETATM    7  N   UNL     1      -4.387   1.055 -32.145  1.00  0.00    -0.210 NA
HETATM    8  C   UNL     1      -4.360   2.142 -31.355  1.00  0.00     0.143 A 
HETATM    9  C   UNL     1      -5.536   2.738 -30.870  1.00  0.00     0.041 A 
HETATM   10  C   UNL     1      -5.596   3.888 -30.041  1.00  0.00     0.054 A 
ENDROOT
BRANCH   8  11
HETATM   11  N   UNL     1      -3.099   2.687 -30.988  1.00  0.00    -0.340 N 
HETATM   12  H   UNL     1      -2.441   1.929 -30.842  1.00  0.00     0.167 HD
BRANCH  11  13
HETATM   13  C   UNL     1      -2.480   3.836 -31.536  1.00  0.00     0.034 A 
HETATM   14  C   UNL     1      -1.399   4.425 -30.860  1.00  0.00     0.032 A 
HETATM   15  C   UNL     1      -0.774   5.592 -31.325  1.00  0.00     0.034 A 
HETATM   16  C   UNL     1      -1.294   6.169 -32.485  1.00  0.00     0.062 A 
HETATM   17  N   UNL     1      -0.935   7.287 -33.193  1.00  0.00    -0.278 N 
HETATM   18  C   UNL     1      -2.381   5.640 -33.167  1.00  0.00     0.013 A 
HETATM   19  H   UNL     1      -0.177   7.929 -32.992  1.00  0.00     0.189 HD
HETATM   20  N   UNL     1      -1.705   7.528 -34.269  1.00  0.00    -0.186 NA
HETATM   21  C   UNL     1      -2.586   6.524 -34.249  1.00  0.00     0.152 A 
HETATM   22  C   UNL     1      -2.990   4.468 -32.684  1.00  0.00     0.044 A 
ENDBRANCH  11  13
ENDBRANCH   8  11
BRANCH   6  23
HETATM   23  C   UNL     1      -5.598  -0.683 -33.298  1.00  0.00     0.012 A 
HETATM   24  C   UNL     1      -6.781  -1.137 -33.915  1.00  0.00     0.015 A 
HETATM   25  C   UNL     1      -6.799  -2.295 -34.699  1.00  0.00     0.001 A 
HETATM   26  C   UNL     1      -5.633  -3.031 -34.883  1.00  0.00     0.000 A 
HETATM   27  C   UNL     1      -4.449  -2.609 -34.287  1.00  0.00     0.001 A 
HETATM   28  C   UNL     1      -4.434  -1.449 -33.506  1.00  0.00     0.015 A 
ENDBRANCH   6  23
BRANCH   1  29
HETATM   29  O   UNL     1      -6.724   5.506 -28.801  1.00  0.00    -0.349 OA
BRANCH  29  30
HETATM   30  C   UNL     1      -5.560   5.597 -27.969  1.00  0.00     0.206 C 
BRANCH  30  31
HETATM   31  C   UNL     1      -4.993   7.022 -28.084  1.00  0.00     0.299 C 
BRANCH  31  32
HETATM   32  N   UNL     1      -3.521   7.080 -28.147  1.00  0.00     0.094 N 
HETATM   33  C   UNL     1      -3.003   7.803 -29.329  1.00  0.00     0.298 C 
HETATM   34  C   UNL     1      -3.189   9.329 -29.263  1.00  0.00     0.198 C 
HETATM   35  O   UNL     1      -2.596   9.875 -28.080  1.00  0.00    -0.388 OA
HETATM   36  C   UNL     1      -3.141   9.258 -26.906  1.00  0.00     0.198 C 
HETATM   37  C   UNL     1      -2.961   7.729 -26.937  1.00  0.00     0.298 C 
ENDBRANCH  31  32
ENDBRANCH  30  31
ENDBRANCH  29  30
ENDBRANCH   1  29
TORSDOF 7
ENDMDL
