MODEL 1
REMARK VINA RESULT:      -9.4      0.000      0.000
REMARK  5 active torsions:
REMARK  status: ('A' for Active; 'I' for Inactive)
REMARK    1  A    between atoms: C_14  and  C_15 
REMARK       I    between atoms: C_15  and  N_16 
REMARK    2  A    between atoms: N_16  and  C_17 
REMARK    3  A    between atoms: C_18  and  C_19 
REMARK    4  A    between atoms: C_19  and  O_20 
REMARK    5  A    between atoms: O_20  and  C_21 
ROOT
HETATM    1  C   UNL     1      -6.297   1.131 -33.369  1.00  0.00     0.273 C 
HETATM    2  N   UNL     1      -6.280   1.268 -31.986  1.00  0.00    -0.321 N 
HETATM    3  O   UNL     1      -6.333   2.081 -34.142  1.00  0.00    -0.266 OA
HETATM    4  H   UNL     1      -5.768   0.533 -31.514  1.00  0.00     0.169 HD
ENDROOT
BRANCH   1   5
HETATM    5  C   UNL     1      -6.169  -0.252 -33.821  1.00  0.00     0.104 C 
HETATM    6  N   UNL     1      -5.032  -1.050 -33.656  1.00  0.00    -0.345 N 
HETATM    7  C   UNL     1      -3.745  -0.551 -33.219  1.00  0.00     0.156 C 
HETATM    8  C   UNL     1      -5.341  -2.311 -34.035  1.00  0.00     0.060 A 
HETATM    9  C   UNL     1      -6.579  -2.343 -34.646  1.00  0.00     0.012 A 
HETATM   10  C   UNL     1      -4.624  -3.467 -33.911  1.00  0.00     0.039 A 
HETATM   11  C   UNL     1      -7.027  -3.564 -35.191  1.00  0.00     0.132 A 
HETATM   12  C   UNL     1      -7.097  -1.032 -34.514  1.00  0.00     0.050 C 
HETATM   13  N   UNL     1      -6.305  -4.721 -35.115  1.00  0.00    -0.241 NA
HETATM   14  C   UNL     1      -5.137  -4.619 -34.458  1.00  0.00     0.139 A 
HETATM   15  N   UNL     1      -4.241  -5.616 -34.193  1.00  0.00    -0.350 N 
HETATM   16  H   UNL     1      -4.363  -6.574 -34.484  1.00  0.00     0.166 HD
HETATM   17  C   UNL     1      -3.194  -5.109 -33.449  1.00  0.00     0.091 A 
HETATM   18  C   UNL     1      -3.410  -3.755 -33.245  1.00  0.00     0.034 A 
ENDBRANCH   1   5
BRANCH   2  19
HETATM   19  C   UNL     1      -6.312   2.524 -31.337  1.00  0.00     0.043 A 
HETATM   20  C   UNL     1      -5.169   3.213 -30.891  1.00  0.00    -0.007 A 
HETATM   21  C   UNL     1      -5.344   4.407 -30.163  1.00  0.00     0.011 A 
HETATM   22  C   UNL     1      -6.615   4.935 -29.936  1.00  0.00     0.001 A 
HETATM   23  C   UNL     1      -7.733   4.290 -30.453  1.00  0.00     0.002 A 
HETATM   24  C   UNL     1      -7.581   3.096 -31.158  1.00  0.00     0.030 A 
BRANCH  20  25
HETATM   25  C   UNL     1      -3.753   2.831 -31.273  1.00  0.00     0.216 C 
BRANCH  25  26
HETATM   26  O   UNL     1      -3.516   3.103 -32.657  1.00  0.00    -0.347 OA
BRANCH  26  27
HETATM   27  C   UNL     1      -2.688   4.177 -32.852  1.00  0.00     0.069 A 
HETATM   28  C   UNL     1      -1.786   4.638 -31.892  1.00  0.00     0.037 A 
HETATM   29  C   UNL     1      -0.960   5.728 -32.178  1.00  0.00     0.003 A 
HETATM   30  C   UNL     1      -1.027   6.347 -33.426  1.00  0.00     0.000 A 
HETATM   31  C   UNL     1      -1.914   5.873 -34.392  1.00  0.00     0.003 A 
HETATM   32  C   UNL     1      -2.738   4.783 -34.107  1.00  0.00     0.037 A 
ENDBRANCH  26  27
ENDBRANCH  25  26
ENDBRANCH  20  25
ENDBRANCH   2  19
TORSDOF 5
ENDMDL
MODEL 2
REMARK VINA RESULT:      -9.4      3.952      7.614
REMARK  5 active torsions:
REMARK  status: ('A' for Active; 'I' for Inactive)
REMARK    1  A    between atoms: C_14  and  C_15 
REMARK       I    between atoms: C_15  and  N_16 
REMARK    2  A    between atoms: N_16  and  C_17 
REMARK    3  A    between atoms: C_18  and  C_19 
REMARK    4  A    between atoms: C_19  and  O_20 
REMARK    5  A    between atoms: O_20  and  C_21 
ROOT
HETATM    1  C   UNL     1      -7.929   2.111 -32.079  1.00  0.00     0.273 C 
HETATM    2  N   UNL     1      -6.808   1.987 -32.890  1.00  0.00    -0.321 N 
HETATM    3  O   UNL     1      -7.876   2.153 -30.855  1.00  0.00    -0.266 OA
HETATM    4  H   UNL     1      -6.904   2.449 -33.785  1.00  0.00     0.169 HD
ENDROOT
BRANCH   1   5
HETATM    5  C   UNL     1      -9.173   2.288 -32.823  1.00  0.00     0.104 C 
HETATM    6  N   UNL     1     -10.130   1.290 -33.036  1.00  0.00    -0.345 N 
HETATM    7  C   UNL     1      -9.921  -0.113 -32.748  1.00  0.00     0.156 C 
HETATM    8  C   UNL     1     -11.217   1.861 -33.604  1.00  0.00     0.060 A 
HETATM    9  C   UNL     1     -10.943   3.164 -33.972  1.00  0.00     0.012 A 
HETATM   10  C   UNL     1     -12.454   1.340 -33.855  1.00  0.00     0.039 A 
HETATM   11  C   UNL     1     -11.934   3.887 -34.667  1.00  0.00     0.132 A 
HETATM   12  C   UNL     1      -9.642   3.427 -33.480  1.00  0.00     0.050 C 
HETATM   13  N   UNL     1     -13.163   3.368 -34.964  1.00  0.00    -0.241 NA
HETATM   14  C   UNL     1     -13.370   2.116 -34.524  1.00  0.00     0.139 A 
HETATM   15  N   UNL     1     -14.511   1.372 -34.639  1.00  0.00    -0.350 N 
HETATM   16  H   UNL     1     -15.351   1.696 -35.094  1.00  0.00     0.166 HD
HETATM   17  C   UNL     1     -14.333   0.156 -34.010  1.00  0.00     0.091 A 
HETATM   18  C   UNL     1     -13.047   0.106 -33.495  1.00  0.00     0.034 A 
ENDBRANCH   1   5
BRANCH   2  19
HETATM   19  C   UNL     1      -5.494   1.886 -32.377  1.00  0.00     0.043 A 
HETATM   20  C   UNL     1      -4.894   0.678 -31.976  1.00  0.00    -0.007 A 
HETATM   21  C   UNL     1      -3.616   0.727 -31.381  1.00  0.00     0.011 A 
HETATM   22  C   UNL     1      -2.928   1.932 -31.244  1.00  0.00     0.001 A 
HETATM   23  C   UNL     1      -3.496   3.108 -31.720  1.00  0.00     0.002 A 
HETATM   24  C   UNL     1      -4.767   3.083 -32.293  1.00  0.00     0.030 A 
BRANCH  20  25
HETATM   25  C   UNL     1      -5.470  -0.691 -32.277  1.00  0.00     0.216 C 
BRANCH  25  26
HETATM   26  O   UNL     1      -5.634  -0.867 -33.687  1.00  0.00    -0.347 OA
BRANCH  26  27
HETATM   27  C   UNL     1      -5.546  -2.179 -34.071  1.00  0.00     0.069 A 
HETATM   28  C   UNL     1      -4.395  -2.952 -33.913  1.00  0.00     0.037 A 
HETATM   29  C   UNL     1      -4.395  -4.291 -34.311  1.00  0.00     0.003 A 
HETATM   30  C   UNL     1      -5.547  -4.859 -34.855  1.00  0.00     0.000 A 
HETATM   31  C   UNL     1      -6.703  -4.092 -34.993  1.00  0.00     0.003 A 
HETATM   32  C   UNL     1      -6.705  -2.754 -34.594  1.00  0.00     0.037 A 
ENDBRANCH  26  27
ENDBRANCH  25  26
ENDBRANCH  20  25
ENDBRANCH   2  19
TORSDOF 5
ENDMDL
MODEL 3
REMARK VINA RESULT:      -9.2      2.805      8.232
REMARK  5 active torsions:
REMARK  status: ('A' for Active; 'I' for Inactive)
REMARK    1  A    between atoms: C_14  and  C_15 
REMARK       I    between atoms: C_15  and  N_16 
REMARK    2  A    between atoms: N_16  and  C_17 
REMARK    3  A    between atoms: C_18  and  C_19 
REMARK    4  A    between atoms: C_19  and  O_20 
REMARK    5  A    between atoms: O_20  and  C_21 
ROOT
HETATM    1  C   UNL     1      -6.304   3.906 -33.724  1.00  0.00     0.273 C 
HETATM    2  N   UNL     1      -6.226   2.678 -33.078  1.00  0.00    -0.321 N 
HETATM    3  O   UNL     1      -7.340   4.355 -34.200  1.00  0.00    -0.266 OA
HETATM    4  H   UNL     1      -5.533   2.651 -32.343  1.00  0.00     0.169 HD
ENDROOT
BRANCH   1   5
HETATM    5  C   UNL     1      -5.054   4.661 -33.696  1.00  0.00     0.104 C 
HETATM    6  N   UNL     1      -4.526   5.301 -32.570  1.00  0.00    -0.345 N 
HETATM    7  C   UNL     1      -5.252   5.498 -31.332  1.00  0.00     0.156 C 
HETATM    8  C   UNL     1      -3.284   5.740 -32.875  1.00  0.00     0.060 A 
HETATM    9  C   UNL     1      -3.042   5.604 -34.228  1.00  0.00     0.012 A 
HETATM   10  C   UNL     1      -2.319   6.277 -32.072  1.00  0.00     0.039 A 
HETATM   11  C   UNL     1      -1.827   6.098 -34.745  1.00  0.00     0.132 A 
HETATM   12  C   UNL     1      -4.172   4.925 -34.745  1.00  0.00     0.050 C 
HETATM   13  N   UNL     1      -0.867   6.677 -33.964  1.00  0.00    -0.241 NA
HETATM   14  C   UNL     1      -1.155   6.723 -32.652  1.00  0.00     0.139 A 
HETATM   15  N   UNL     1      -0.367   7.200 -31.644  1.00  0.00    -0.350 N 
HETATM   16  H   UNL     1       0.550   7.596 -31.784  1.00  0.00     0.166 HD
HETATM   17  C   UNL     1      -1.007   7.018 -30.433  1.00  0.00     0.091 A 
HETATM   18  C   UNL     1      -2.239   6.428 -30.667  1.00  0.00     0.034 A 
ENDBRANCH   1   5
BRANCH   2  19
HETATM   19  C   UNL     1      -7.340   1.821 -32.919  1.00  0.00     0.043 A 
HETATM   20  C   UNL     1      -7.637   0.743 -33.775  1.00  0.00    -0.007 A 
HETATM   21  C   UNL     1      -8.836   0.031 -33.569  1.00  0.00     0.011 A 
HETATM   22  C   UNL     1      -9.686   0.340 -32.508  1.00  0.00     0.001 A 
HETATM   23  C   UNL     1      -9.342   1.351 -31.619  1.00  0.00     0.002 A 
HETATM   24  C   UNL     1      -8.170   2.081 -31.818  1.00  0.00     0.030 A 
BRANCH  20  25
HETATM   25  C   UNL     1      -6.676   0.203 -34.815  1.00  0.00     0.216 C 
BRANCH  25  26
HETATM   26  O   UNL     1      -5.564  -0.440 -34.185  1.00  0.00    -0.347 OA
BRANCH  26  27
HETATM   27  C   UNL     1      -5.585  -1.802 -34.335  1.00  0.00     0.069 A 
HETATM   28  C   UNL     1      -6.696  -2.508 -34.797  1.00  0.00     0.037 A 
HETATM   29  C   UNL     1      -6.628  -3.896 -34.943  1.00  0.00     0.003 A 
HETATM   30  C   UNL     1      -5.448  -4.574 -34.638  1.00  0.00     0.000 A 
HETATM   31  C   UNL     1      -4.331  -3.865 -34.196  1.00  0.00     0.003 A 
HETATM   32  C   UNL     1      -4.398  -2.478 -34.052  1.00  0.00     0.037 A 
ENDBRANCH  26  27
ENDBRANCH  25  26
ENDBRANCH  20  25
ENDBRANCH   2  19
TORSDOF 5
ENDMDL
MODEL 4
REMARK VINA RESULT:      -9.1      2.573      4.927
REMARK  5 active torsions:
REMARK  status: ('A' for Active; 'I' for Inactive)
REMARK    1  A    between atoms: C_14  and  C_15 
REMARK       I    between atoms: C_15  and  N_16 
REMARK    2  A    between atoms: N_16  and  C_17 
REMARK    3  A    between atoms: C_18  and  C_19 
REMARK    4  A    between atoms: C_19  and  O_20 
REMARK    5  A    between atoms: O_20  and  C_21 
ROOT
HETATM    1  C   UNL     1      -6.541   1.079 -33.629  1.00  0.00     0.273 C 
HETATM    2  N   UNL     1      -6.862   1.242 -32.287  1.00  0.00    -0.321 N 
HETATM    3  O   UNL     1      -6.372   2.015 -34.403  1.00  0.00    -0.266 OA
HETATM    4  H   UNL     1      -6.492   0.511 -31.693  1.00  0.00     0.169 HD
ENDROOT
BRANCH   1   5
HETATM    5  C   UNL     1      -6.325  -0.314 -34.015  1.00  0.00     0.104 C 
HETATM    6  N   UNL     1      -5.164  -1.049 -33.754  1.00  0.00    -0.345 N 
HETATM    7  C   UNL     1      -3.928  -0.472 -33.268  1.00  0.00     0.156 C 
HETATM    8  C   UNL     1      -5.393  -2.337 -34.094  1.00  0.00     0.060 A 
HETATM    9  C   UNL     1      -6.592  -2.453 -34.770  1.00  0.00     0.012 A 
HETATM   10  C   UNL     1      -4.633  -3.452 -33.882  1.00  0.00     0.039 A 
HETATM   11  C   UNL     1      -6.952  -3.715 -35.286  1.00  0.00     0.132 A 
HETATM   12  C   UNL     1      -7.176  -1.164 -34.723  1.00  0.00     0.050 C 
HETATM   13  N   UNL     1      -6.184  -4.833 -35.121  1.00  0.00    -0.241 NA
HETATM   14  C   UNL     1      -5.061  -4.648 -34.406  1.00  0.00     0.139 A 
HETATM   15  N   UNL     1      -4.138  -5.590 -34.050  1.00  0.00    -0.350 N 
HETATM   16  H   UNL     1      -4.199  -6.564 -34.306  1.00  0.00     0.166 HD
HETATM   17  C   UNL     1      -3.159  -5.004 -33.272  1.00  0.00     0.091 A 
HETATM   18  C   UNL     1      -3.447  -3.655 -33.138  1.00  0.00     0.034 A 
ENDBRANCH   1   5
BRANCH   2  19
HETATM   19  C   UNL     1      -7.035   2.510 -31.686  1.00  0.00     0.043 A 
HETATM   20  C   UNL     1      -8.279   3.151 -31.540  1.00  0.00    -0.007 A 
HETATM   21  C   UNL     1      -8.303   4.461 -31.019  1.00  0.00     0.011 A 
HETATM   22  C   UNL     1      -7.133   5.094 -30.600  1.00  0.00     0.001 A 
HETATM   23  C   UNL     1      -5.920   4.419 -30.671  1.00  0.00     0.002 A 
HETATM   24  C   UNL     1      -5.873   3.131 -31.202  1.00  0.00     0.030 A 
BRANCH  20  25
HETATM   25  C   UNL     1      -9.612   2.467 -31.767  1.00  0.00     0.216 C 
BRANCH  25  26
HETATM   26  O   UNL     1      -9.600   1.742 -32.999  1.00  0.00    -0.347 OA
BRANCH  26  27
HETATM   27  C   UNL     1     -10.472   2.253 -33.925  1.00  0.00     0.069 A 
HETATM   28  C   UNL     1     -10.294   3.489 -34.549  1.00  0.00     0.037 A 
HETATM   29  C   UNL     1     -11.219   3.928 -35.499  1.00  0.00     0.003 A 
HETATM   30  C   UNL     1     -12.313   3.129 -35.832  1.00  0.00     0.000 A 
HETATM   31  C   UNL     1     -12.478   1.886 -35.223  1.00  0.00     0.003 A 
HETATM   32  C   UNL     1     -11.553   1.445 -34.275  1.00  0.00     0.037 A 
ENDBRANCH  26  27
ENDBRANCH  25  26
ENDBRANCH  20  25
ENDBRANCH   2  19
TORSDOF 5
ENDMDL
MODEL 5
REMARK VINA RESULT:      -8.6      2.896      8.404
REMARK  5 active torsions:
REMARK  status: ('A' for Active; 'I' for Inactive)
REMARK    1  A    between atoms: C_14  and  C_15 
REMARK       I    between atoms: C_15  and  N_16 
REMARK    2  A    between atoms: N_16  and  C_17 
REMARK    3  A    between atoms: C_18  and  C_19 
REMARK    4  A    between atoms: C_19  and  O_20 
REMARK    5  A    between atoms: O_20  and  C_21 
ROOT
HETATM    1  C   UNL     1      -5.535   3.662 -33.166  1.00  0.00     0.273 C 
HETATM    2  N   UNL     1      -5.903   2.579 -32.378  1.00  0.00    -0.321 N 
HETATM    3  O   UNL     1      -6.213   4.084 -34.096  1.00  0.00    -0.266 OA
HETATM    4  H   UNL     1      -5.578   2.646 -31.423  1.00  0.00     0.169 HD
ENDROOT
BRANCH   1   5
HETATM    5  C   UNL     1      -4.307   4.318 -32.723  1.00  0.00     0.104 C 
HETATM    6  N   UNL     1      -4.241   5.340 -31.769  1.00  0.00    -0.345 N 
HETATM    7  C   UNL     1      -5.395   6.046 -31.254  1.00  0.00     0.156 C 
HETATM    8  C   UNL     1      -2.940   5.571 -31.487  1.00  0.00     0.060 A 
HETATM    9  C   UNL     1      -2.124   4.891 -32.370  1.00  0.00     0.012 A 
HETATM   10  C   UNL     1      -2.375   6.352 -30.518  1.00  0.00     0.039 A 
HETATM   11  C   UNL     1      -0.730   5.089 -32.285  1.00  0.00     0.132 A 
HETATM   12  C   UNL     1      -2.998   4.102 -33.156  1.00  0.00     0.050 C 
HETATM   13  N   UNL     1      -0.150   5.899 -31.350  1.00  0.00    -0.241 NA
HETATM   14  C   UNL     1      -1.007   6.482 -30.495  1.00  0.00     0.139 A 
HETATM   15  N   UNL     1      -0.704   7.298 -29.442  1.00  0.00    -0.350 N 
HETATM   16  H   UNL     1       0.234   7.568 -29.190  1.00  0.00     0.166 HD
HETATM   17  C   UNL     1      -1.866   7.644 -28.779  1.00  0.00     0.091 A 
HETATM   18  C   UNL     1      -2.939   7.056 -29.428  1.00  0.00     0.034 A 
ENDBRANCH   1   5
BRANCH   2  19
HETATM   19  C   UNL     1      -7.098   1.850 -32.582  1.00  0.00     0.043 A 
HETATM   20  C   UNL     1      -7.230   0.790 -33.498  1.00  0.00    -0.007 A 
HETATM   21  C   UNL     1      -8.504   0.215 -33.684  1.00  0.00     0.011 A 
HETATM   22  C   UNL     1      -9.603   0.639 -32.937  1.00  0.00     0.001 A 
HETATM   23  C   UNL     1      -9.443   1.630 -31.975  1.00  0.00     0.002 A 
HETATM   24  C   UNL     1      -8.196   2.225 -31.792  1.00  0.00     0.030 A 
BRANCH  20  25
HETATM   25  C   UNL     1      -6.059   0.125 -34.192  1.00  0.00     0.216 C 
BRANCH  25  26
HETATM   26  O   UNL     1      -5.446  -0.838 -33.330  1.00  0.00    -0.347 OA
BRANCH  26  27
HETATM   27  C   UNL     1      -5.428  -2.098 -33.870  1.00  0.00     0.069 A 
HETATM   28  C   UNL     1      -4.312  -2.935 -33.833  1.00  0.00     0.037 A 
HETATM   29  C   UNL     1      -4.384  -4.215 -34.388  1.00  0.00     0.003 A 
HETATM   30  C   UNL     1      -5.572  -4.661 -34.967  1.00  0.00     0.000 A 
HETATM   31  C   UNL     1      -6.692  -3.832 -34.984  1.00  0.00     0.003 A 
HETATM   32  C   UNL     1      -6.622  -2.553 -34.429  1.00  0.00     0.037 A 
ENDBRANCH  26  27
ENDBRANCH  25  26
ENDBRANCH  20  25
ENDBRANCH   2  19
TORSDOF 5
ENDMDL
MODEL 6
REMARK VINA RESULT:      -8.5     15.244     17.754
REMARK  5 active torsions:
REMARK  status: ('A' for Active; 'I' for Inactive)
REMARK    1  A    between atoms: C_14  and  C_15 
REMARK       I    between atoms: C_15  and  N_16 
REMARK    2  A    between atoms: N_16  and  C_17 
REMARK    3  A    between atoms: C_18  and  C_19 
REMARK    4  A    between atoms: C_19  and  O_20 
REMARK    5  A    between atoms: O_20  and  C_21 
ROOT
HETATM    1  C   UNL     1      -3.122 -12.805 -38.653  1.00  0.00     0.273 C 
HETATM    2  N   UNL     1      -4.072 -13.662 -39.194  1.00  0.00    -0.321 N 
HETATM    3  O   UNL     1      -3.359 -11.644 -38.339  1.00  0.00    -0.266 OA
HETATM    4  H   UNL     1      -3.930 -14.632 -38.944  1.00  0.00     0.169 HD
ENDROOT
BRANCH   1   5
HETATM    5  C   UNL     1      -1.833 -13.444 -38.401  1.00  0.00     0.104 C 
HETATM    6  N   UNL     1      -1.540 -14.252 -37.297  1.00  0.00    -0.345 N 
HETATM    7  C   UNL     1      -2.395 -14.384 -36.136  1.00  0.00     0.156 C 
HETATM    8  C   UNL     1      -0.322 -14.807 -37.490  1.00  0.00     0.060 A 
HETATM    9  C   UNL     1       0.302 -14.236 -38.582  1.00  0.00     0.012 A 
HETATM   10  C   UNL     1       0.325 -15.778 -36.780  1.00  0.00     0.039 A 
HETATM   11  C   UNL     1       1.624 -14.626 -38.880  1.00  0.00     0.132 A 
HETATM   12  C   UNL     1      -0.659 -13.367 -39.152  1.00  0.00     0.050 C 
HETATM   13  N   UNL     1       2.303 -15.565 -38.155  1.00  0.00    -0.241 NA
HETATM   14  C   UNL     1       1.608 -16.111 -37.143  1.00  0.00     0.139 A 
HETATM   15  N   UNL     1       2.018 -17.097 -36.290  1.00  0.00    -0.350 N 
HETATM   16  H   UNL     1       2.928 -17.531 -36.326  1.00  0.00     0.166 HD
HETATM   17  C   UNL     1       0.989 -17.414 -35.425  1.00  0.00     0.091 A 
HETATM   18  C   UNL     1      -0.098 -16.605 -35.714  1.00  0.00     0.034 A 
ENDBRANCH   1   5
BRANCH   2  19
HETATM   19  C   UNL     1      -5.408 -13.270 -39.444  1.00  0.00     0.043 A 
HETATM   20  C   UNL     1      -5.995 -13.234 -40.722  1.00  0.00    -0.007 A 
HETATM   21  C   UNL     1      -7.303 -12.723 -40.848  1.00  0.00     0.011 A 
HETATM   22  C   UNL     1      -8.030 -12.315 -39.730  1.00  0.00     0.001 A 
HETATM   23  C   UNL     1      -7.471 -12.434 -38.462  1.00  0.00     0.002 A 
HETATM   24  C   UNL     1      -6.171 -12.918 -38.320  1.00  0.00     0.030 A 
BRANCH  20  25
HETATM   25  C   UNL     1      -5.366 -13.849 -41.956  1.00  0.00     0.216 C 
BRANCH  25  26
HETATM   26  O   UNL     1      -3.946 -13.682 -41.931  1.00  0.00    -0.347 OA
BRANCH  26  27
HETATM   27  C   UNL     1      -3.274 -14.790 -42.375  1.00  0.00     0.069 A 
HETATM   28  C   UNL     1      -2.367 -15.505 -41.591  1.00  0.00     0.037 A 
HETATM   29  C   UNL     1      -1.739 -16.639 -42.113  1.00  0.00     0.003 A 
HETATM   30  C   UNL     1      -2.027 -17.064 -43.410  1.00  0.00     0.000 A 
HETATM   31  C   UNL     1      -2.949 -16.361 -44.184  1.00  0.00     0.003 A 
HETATM   32  C   UNL     1      -3.577 -15.229 -43.664  1.00  0.00     0.037 A 
ENDBRANCH  26  27
ENDBRANCH  25  26
ENDBRANCH  20  25
ENDBRANCH   2  19
TORSDOF 5
ENDMDL
MODEL 7
REMARK VINA RESULT:      -8.4     14.929     16.881
REMARK  5 active torsions:
REMARK  status: ('A' for Active; 'I' for Inactive)
REMARK    1  A    between atoms: C_14  and  C_15 
REMARK       I    between atoms: C_15  and  N_16 
REMARK    2  A    between atoms: N_16  and  C_17 
REMARK    3  A    between atoms: C_18  and  C_19 
REMARK    4  A    between atoms: C_19  and  O_20 
REMARK    5  A    between atoms: O_20  and  C_21 
ROOT
HETATM    1  C   UNL     1      -3.110 -12.842 -38.565  1.00  0.00     0.273 C 
HETATM    2  N   UNL     1      -4.029 -13.664 -39.205  1.00  0.00    -0.321 N 
HETATM    3  O   UNL     1      -3.378 -11.718 -38.155  1.00  0.00    -0.266 OA
HETATM    4  H   UNL     1      -3.874 -14.649 -39.039  1.00  0.00     0.169 HD
ENDROOT
BRANCH   1   5
HETATM    5  C   UNL     1      -1.816 -13.478 -38.335  1.00  0.00     0.104 C 
HETATM    6  N   UNL     1      -1.510 -14.312 -37.254  1.00  0.00    -0.345 N 
HETATM    7  C   UNL     1      -2.358 -14.480 -36.092  1.00  0.00     0.156 C 
HETATM    8  C   UNL     1      -0.290 -14.853 -37.468  1.00  0.00     0.060 A 
HETATM    9  C   UNL     1       0.324 -14.250 -38.549  1.00  0.00     0.012 A 
HETATM   10  C   UNL     1       0.368 -15.837 -36.787  1.00  0.00     0.039 A 
HETATM   11  C   UNL     1       1.647 -14.624 -38.863  1.00  0.00     0.132 A 
HETATM   12  C   UNL     1      -0.647 -13.374 -39.091  1.00  0.00     0.050 C 
HETATM   13  N   UNL     1       2.336 -15.576 -38.167  1.00  0.00    -0.241 NA
HETATM   14  C   UNL     1       1.651 -16.153 -37.165  1.00  0.00     0.139 A 
HETATM   15  N   UNL     1       2.072 -17.157 -36.340  1.00  0.00    -0.350 N 
HETATM   16  H   UNL     1       2.985 -17.583 -36.391  1.00  0.00     0.166 HD
HETATM   17  C   UNL     1       1.050 -17.503 -35.477  1.00  0.00     0.091 A 
HETATM   18  C   UNL     1      -0.044 -16.694 -35.739  1.00  0.00     0.034 A 
ENDBRANCH   1   5
BRANCH   2  19
HETATM   19  C   UNL     1      -5.366 -13.275 -39.454  1.00  0.00     0.043 A 
HETATM   20  C   UNL     1      -6.464 -13.673 -38.670  1.00  0.00    -0.007 A 
HETATM   21  C   UNL     1      -7.759 -13.303 -39.088  1.00  0.00     0.011 A 
HETATM   22  C   UNL     1      -7.954 -12.510 -40.219  1.00  0.00     0.001 A 
HETATM   23  C   UNL     1      -6.857 -12.053 -40.938  1.00  0.00     0.002 A 
HETATM   24  C   UNL     1      -5.569 -12.425 -40.552  1.00  0.00     0.030 A 
BRANCH  20  25
HETATM   25  C   UNL     1      -6.335 -14.349 -37.320  1.00  0.00     0.216 C 
BRANCH  25  26
HETATM   26  O   UNL     1      -5.752 -13.458 -36.366  1.00  0.00    -0.347 OA
BRANCH  26  27
HETATM   27  C   UNL     1      -5.918 -13.881 -35.073  1.00  0.00     0.069 A 
HETATM   28  C   UNL     1      -5.404 -13.200 -33.969  1.00  0.00     0.037 A 
HETATM   29  C   UNL     1      -5.638 -13.688 -32.680  1.00  0.00     0.003 A 
HETATM   30  C   UNL     1      -6.393 -14.846 -32.497  1.00  0.00     0.000 A 
HETATM   31  C   UNL     1      -6.924 -15.513 -33.600  1.00  0.00     0.003 A 
HETATM   32  C   UNL     1      -6.693 -15.026 -34.887  1.00  0.00     0.037 A 
ENDBRANCH  26  27
ENDBRANCH  25  26
ENDBRANCH  20  25
ENDBRANCH   2  19
TORSDOF 5
ENDMDL
MODEL 8
REMARK VINA RESULT:      -8.3      3.009      8.201
REMARK  5 active torsions:
REMARK  status: ('A' for Active; 'I' for Inactive)
REMARK    1  A    between atoms: C_14  and  C_15 
REMARK       I    between atoms: C_15  and  N_16 
REMARK    2  A    between atoms: N_16  and  C_17 
REMARK    3  A    between atoms: C_18  and  C_19 
REMARK    4  A    between atoms: C_19  and  O_20 
REMARK    5  A    between atoms: O_20  and  C_21 
ROOT
HETATM    1  C   UNL     1      -6.283   4.413 -32.715  1.00  0.00     0.273 C 
HETATM    2  N   UNL     1      -6.803   3.229 -32.206  1.00  0.00    -0.321 N 
HETATM    3  O   UNL     1      -6.718   4.967 -33.718  1.00  0.00    -0.266 OA
HETATM    4  H   UNL     1      -6.731   3.156 -31.200  1.00  0.00     0.169 HD
ENDROOT
BRANCH   1   5
HETATM    5  C   UNL     1      -5.229   4.993 -31.886  1.00  0.00     0.104 C 
HETATM    6  N   UNL     1      -3.869   4.675 -31.977  1.00  0.00    -0.345 N 
HETATM    7  C   UNL     1      -3.343   3.566 -32.744  1.00  0.00     0.156 C 
HETATM    8  C   UNL     1      -3.182   5.530 -31.187  1.00  0.00     0.060 A 
HETATM    9  C   UNL     1      -4.048   6.272 -30.407  1.00  0.00     0.012 A 
HETATM   10  C   UNL     1      -1.835   5.722 -31.062  1.00  0.00     0.039 A 
HETATM   11  C   UNL     1      -3.502   7.153 -29.451  1.00  0.00     0.132 A 
HETATM   12  C   UNL     1      -5.346   5.922 -30.851  1.00  0.00     0.050 C 
HETATM   13  N   UNL     1      -2.157   7.327 -29.282  1.00  0.00    -0.241 NA
HETATM   14  C   UNL     1      -1.384   6.610 -30.115  1.00  0.00     0.139 A 
HETATM   15  N   UNL     1      -0.020   6.621 -30.199  1.00  0.00    -0.350 N 
HETATM   16  H   UNL     1       0.576   7.186 -29.614  1.00  0.00     0.166 HD
HETATM   17  C   UNL     1       0.385   5.782 -31.219  1.00  0.00     0.091 A 
HETATM   18  C   UNL     1      -0.738   5.205 -31.791  1.00  0.00     0.034 A 
ENDBRANCH   1   5
BRANCH   2  19
HETATM   19  C   UNL     1      -7.883   2.543 -32.807  1.00  0.00     0.043 A 
HETATM   20  C   UNL     1      -7.742   1.595 -33.838  1.00  0.00    -0.007 A 
HETATM   21  C   UNL     1      -8.907   1.060 -34.425  1.00  0.00     0.011 A 
HETATM   22  C   UNL     1     -10.175   1.410 -33.962  1.00  0.00     0.001 A 
HETATM   23  C   UNL     1     -10.301   2.283 -32.888  1.00  0.00     0.002 A 
HETATM   24  C   UNL     1      -9.161   2.839 -32.308  1.00  0.00     0.030 A 
BRANCH  20  25
HETATM   25  C   UNL     1      -6.414   0.999 -34.258  1.00  0.00     0.216 C 
BRANCH  25  26
HETATM   26  O   UNL     1      -5.917   0.117 -33.247  1.00  0.00    -0.347 OA
BRANCH  26  27
HETATM   27  C   UNL     1      -5.781  -1.173 -33.688  1.00  0.00     0.069 A 
HETATM   28  C   UNL     1      -6.836  -1.921 -34.214  1.00  0.00     0.037 A 
HETATM   29  C   UNL     1      -6.609  -3.224 -34.663  1.00  0.00     0.003 A 
HETATM   30  C   UNL     1      -5.328  -3.774 -34.597  1.00  0.00     0.000 A 
HETATM   31  C   UNL     1      -4.272  -3.018 -34.090  1.00  0.00     0.003 A 
HETATM   32  C   UNL     1      -4.497  -1.716 -33.643  1.00  0.00     0.037 A 
ENDBRANCH  26  27
ENDBRANCH  25  26
ENDBRANCH  20  25
ENDBRANCH   2  19
TORSDOF 5
ENDMDL
MODEL 9
REMARK VINA RESULT:      -8.0     15.639     18.326
REMARK  5 active torsions:
REMARK  status: ('A' for Active; 'I' for Inactive)
REMARK    1  A    between atoms: C_14  and  C_15 
REMARK       I    between atoms: C_15  and  N_16 
REMARK    2  A    between atoms: N_16  and  C_17 
REMARK    3  A    between atoms: C_18  and  C_19 
REMARK    4  A    between atoms: C_19  and  O_20 
REMARK    5  A    between atoms: O_20  and  C_21 
ROOT
HETATM    1  C   UNL     1      -4.999 -15.024 -39.047  1.00  0.00     0.273 C 
HETATM    2  N   UNL     1      -4.256 -14.108 -39.782  1.00  0.00    -0.321 N 
HETATM    3  O   UNL     1      -4.515 -15.755 -38.191  1.00  0.00    -0.266 OA
HETATM    4  H   UNL     1      -4.778 -13.283 -40.045  1.00  0.00     0.169 HD
ENDROOT
BRANCH   1   5
HETATM    5  C   UNL     1      -6.432 -14.968 -39.320  1.00  0.00     0.104 C 
HETATM    6  N   UNL     1      -7.216 -13.810 -39.268  1.00  0.00    -0.345 N 
HETATM    7  C   UNL     1      -6.766 -12.548 -38.718  1.00  0.00     0.156 C 
HETATM    8  C   UNL     1      -8.443 -14.107 -39.750  1.00  0.00     0.060 A 
HETATM    9  C   UNL     1      -8.577 -15.471 -39.925  1.00  0.00     0.012 A 
HETATM   10  C   UNL     1      -9.495 -13.287 -40.045  1.00  0.00     0.039 A 
HETATM   11  C   UNL     1      -9.829 -15.975 -40.333  1.00  0.00     0.132 A 
HETATM   12  C   UNL     1      -7.300 -16.013 -39.644  1.00  0.00     0.050 C 
HETATM   13  N   UNL     1     -10.905 -15.173 -40.593  1.00  0.00    -0.241 NA
HETATM   14  C   UNL     1     -10.678 -13.857 -40.451  1.00  0.00     0.139 A 
HETATM   15  N   UNL     1     -11.551 -12.833 -40.686  1.00  0.00    -0.350 N 
HETATM   16  H   UNL     1     -12.503 -12.963 -40.994  1.00  0.00     0.166 HD
HETATM   17  C   UNL     1     -10.914 -11.626 -40.473  1.00  0.00     0.091 A 
HETATM   18  C   UNL     1      -9.610 -11.877 -40.076  1.00  0.00     0.034 A 
ENDBRANCH   1   5
BRANCH   2  19
HETATM   19  C   UNL     1      -2.862 -13.940 -39.618  1.00  0.00     0.043 A 
HETATM   20  C   UNL     1      -1.892 -14.500 -40.470  1.00  0.00    -0.007 A 
HETATM   21  C   UNL     1      -0.531 -14.345 -40.134  1.00  0.00     0.011 A 
HETATM   22  C   UNL     1      -0.142 -13.604 -39.018  1.00  0.00     0.001 A 
HETATM   23  C   UNL     1      -1.105 -12.985 -38.231  1.00  0.00     0.002 A 
HETATM   24  C   UNL     1      -2.457 -13.144 -38.535  1.00  0.00     0.030 A 
BRANCH  20  25
HETATM   25  C   UNL     1      -2.211 -15.134 -41.808  1.00  0.00     0.216 C 
BRANCH  25  26
HETATM   26  O   UNL     1      -3.149 -14.333 -42.532  1.00  0.00    -0.347 OA
BRANCH  26  27
HETATM   27  C   UNL     1      -4.007 -15.080 -43.295  1.00  0.00     0.069 A 
HETATM   28  C   UNL     1      -5.297 -15.425 -42.889  1.00  0.00     0.037 A 
HETATM   29  C   UNL     1      -6.118 -16.172 -43.737  1.00  0.00     0.003 A 
HETATM   30  C   UNL     1      -5.654 -16.563 -44.993  1.00  0.00     0.000 A 
HETATM   31  C   UNL     1      -4.373 -16.200 -45.406  1.00  0.00     0.003 A 
HETATM   32  C   UNL     1      -3.553 -15.452 -44.560  1.00  0.00     0.037 A 
ENDBRANCH  26  27
ENDBRANCH  25  26
ENDBRANCH  20  25
ENDBRANCH   2  19
TORSDOF 5
ENDMDL
MODEL 10
REMARK VINA RESULT:      -7.9     14.793     17.255
REMARK  5 active torsions:
REMARK  status: ('A' for Active; 'I' for Inactive)
REMARK    1  A    between atoms: C_14  and  C_15 
REMARK       I    between atoms: C_15  and  N_16 
REMARK    2  A    between atoms: N_16  and  C_17 
REMARK    3  A    between atoms: C_18  and  C_19 
REMARK    4  A    between atoms: C_19  and  O_20 
REMARK    5  A    between atoms: O_20  and  C_21 
ROOT
HETATM    1  C   UNL     1      -4.771 -14.677 -39.687  1.00  0.00     0.273 C 
HETATM    2  N   UNL     1      -3.820 -13.674 -39.546  1.00  0.00    -0.321 N 
HETATM    3  O   UNL     1      -4.515 -15.871 -39.578  1.00  0.00    -0.266 OA
HETATM    4  H   UNL     1      -4.194 -12.814 -39.168  1.00  0.00     0.169 HD
ENDROOT
BRANCH   1   5
HETATM    5  C   UNL     1      -6.128 -14.174 -39.881  1.00  0.00     0.104 C 
HETATM    6  N   UNL     1      -7.104 -14.782 -40.678  1.00  0.00    -0.345 N 
HETATM    7  C   UNL     1      -6.841 -15.867 -41.600  1.00  0.00     0.156 C 
HETATM    8  C   UNL     1      -8.276 -14.139 -40.475  1.00  0.00     0.060 A 
HETATM    9  C   UNL     1      -8.077 -12.990 -39.734  1.00  0.00     0.012 A 
HETATM   10  C   UNL     1      -9.536 -14.454 -40.898  1.00  0.00     0.039 A 
HETATM   11  C   UNL     1      -9.179 -12.141 -39.504  1.00  0.00     0.132 A 
HETATM   12  C   UNL     1      -6.710 -13.014 -39.365  1.00  0.00     0.050 C 
HETATM   13  N   UNL     1     -10.438 -12.418 -39.955  1.00  0.00    -0.241 NA
HETATM   14  C   UNL     1     -10.560 -13.579 -40.620  1.00  0.00     0.139 A 
HETATM   15  N   UNL     1     -11.700 -14.124 -41.139  1.00  0.00    -0.350 N 
HETATM   16  H   UNL     1     -12.608 -13.690 -41.083  1.00  0.00     0.166 HD
HETATM   17  C   UNL     1     -11.408 -15.353 -41.700  1.00  0.00     0.091 A 
HETATM   18  C   UNL     1     -10.052 -15.595 -41.556  1.00  0.00     0.034 A 
ENDBRANCH   1   5
BRANCH   2  19
HETATM   19  C   UNL     1      -2.458 -13.937 -39.272  1.00  0.00     0.043 A 
HETATM   20  C   UNL     1      -1.928 -14.090 -37.977  1.00  0.00    -0.007 A 
HETATM   21  C   UNL     1      -0.534 -14.244 -37.834  1.00  0.00     0.011 A 
HETATM   22  C   UNL     1       0.304 -14.306 -38.948  1.00  0.00     0.001 A 
HETATM   23  C   UNL     1      -0.240 -14.238 -40.225  1.00  0.00     0.002 A 
HETATM   24  C   UNL     1      -1.614 -14.065 -40.386  1.00  0.00     0.030 A 
BRANCH  20  25
HETATM   25  C   UNL     1      -2.777 -14.249 -36.732  1.00  0.00     0.216 C 
BRANCH  25  26
HETATM   26  O   UNL     1      -3.775 -13.227 -36.671  1.00  0.00    -0.347 OA
BRANCH  26  27
HETATM   27  C   UNL     1      -4.831 -13.563 -35.865  1.00  0.00     0.069 A 
HETATM   28  C   UNL     1      -5.740 -14.577 -36.171  1.00  0.00     0.037 A 
HETATM   29  C   UNL     1      -6.777 -14.873 -35.283  1.00  0.00     0.003 A 
HETATM   30  C   UNL     1      -6.898 -14.164 -34.088  1.00  0.00     0.000 A 
HETATM   31  C   UNL     1      -5.977 -13.166 -33.774  1.00  0.00     0.003 A 
HETATM   32  C   UNL     1      -4.940 -12.870 -34.659  1.00  0.00     0.037 A 
ENDBRANCH  26  27
ENDBRANCH  25  26
ENDBRANCH  20  25
ENDBRANCH   2  19
TORSDOF 5
ENDMDL
