MODEL 1
REMARK VINA RESULT:      -7.3      0.000      0.000
REMARK  4 active torsions:
REMARK  status: ('A' for Active; 'I' for Inactive)
REMARK    1  A    between atoms: C_2  and  O_3 
REMARK    2  A    between atoms: O_3  and  C_4 
REMARK    3  A    between atoms: C_7  and  N_8 
REMARK       I    between atoms: N_8  and  C_9 
REMARK    4  A    between atoms: C_9  and  C_10 
ROOT
HETATM    1  N   UNL     1      -8.487   0.532 -34.294  1.00  0.00    -0.323 N 
HETATM    2  C   UNL     1      -9.563   0.518 -33.422  1.00  0.00     0.257 C 
HETATM    3  O   UNL     1      -9.599  -0.018 -32.321  1.00  0.00    -0.267 OA
HETATM    4  H   UNL     1      -8.565   1.086 -35.134  1.00  0.00     0.169 HD
ENDROOT
BRANCH   1   5
HETATM    5  C   UNL     1      -7.246  -0.124 -34.131  1.00  0.00     0.035 A 
HETATM    6  C   UNL     1      -6.163   0.408 -33.429  1.00  0.00     0.032 A 
HETATM    7  C   UNL     1      -4.973  -0.319 -33.297  1.00  0.00     0.039 A 
HETATM    8  C   UNL     1      -4.869  -1.596 -33.841  1.00  0.00     0.069 A 
HETATM    9  C   UNL     1      -5.928  -2.118 -34.576  1.00  0.00     0.039 A 
HETATM   10  C   UNL     1      -7.113  -1.390 -34.716  1.00  0.00     0.032 A 
BRANCH   8  11
HETATM   11  O   UNL     1      -3.741  -2.362 -33.767  1.00  0.00    -0.347 OA
BRANCH  11  12
HETATM   12  C   UNL     1      -3.857  -3.547 -32.965  1.00  0.00     0.120 C 
HETATM   13  C   UNL     1      -2.908  -3.400 -31.781  1.00  0.00     0.040 C 
HETATM   14  C   UNL     1      -3.460  -4.739 -33.832  1.00  0.00     0.040 C 
ENDBRANCH  11  12
ENDBRANCH   8  11
ENDBRANCH   1   5
BRANCH   2  15
HETATM   15  C   UNL     1     -10.779   1.240 -33.878  1.00  0.00     0.051 A 
HETATM   16  C   UNL     1     -10.631   2.531 -34.382  1.00  0.00     0.133 A 
HETATM   17  N   UNL     1     -11.659   3.297 -34.826  1.00  0.00    -0.271 NA
HETATM   18  C   UNL     1     -12.896   2.756 -34.748  1.00  0.00     0.135 A 
HETATM   19  C   UNL     1     -13.145   1.488 -34.245  1.00  0.00     0.029 A 
HETATM   20 BR   UNL     1     -14.905   0.814 -34.160  1.00  0.00    -0.050 Br
HETATM   21  C   UNL     1     -12.073   0.717 -33.796  1.00  0.00     0.039 A 
ENDBRANCH   2  15
TORSDOF 4
ENDMDL
MODEL 2
REMARK VINA RESULT:      -7.1      1.249      1.249
REMARK  4 active torsions:
REMARK  status: ('A' for Active; 'I' for Inactive)
REMARK    1  A    between atoms: C_2  and  O_3 
REMARK    2  A    between atoms: O_3  and  C_4 
REMARK    3  A    between atoms: C_7  and  N_8 
REMARK       I    between atoms: N_8  and  C_9 
REMARK    4  A    between atoms: C_9  and  C_10 
ROOT
HETATM    1  N   UNL     1      -8.957   0.233 -33.268  1.00  0.00    -0.323 N 
HETATM    2  C   UNL     1      -9.287   1.520 -33.656  1.00  0.00     0.257 C 
HETATM    3  O   UNL     1      -8.533   2.345 -34.159  1.00  0.00    -0.267 OA
HETATM    4  H   UNL     1      -9.700  -0.370 -32.947  1.00  0.00     0.169 HD
ENDROOT
BRANCH   1   5
HETATM    5  C   UNL     1      -7.679  -0.368 -33.301  1.00  0.00     0.035 A 
HETATM    6  C   UNL     1      -6.710  -0.208 -32.309  1.00  0.00     0.032 A 
HETATM    7  C   UNL     1      -5.473  -0.858 -32.408  1.00  0.00     0.039 A 
HETATM    8  C   UNL     1      -5.209  -1.697 -33.487  1.00  0.00     0.069 A 
HETATM    9  C   UNL     1      -6.152  -1.832 -34.501  1.00  0.00     0.039 A 
HETATM   10  C   UNL     1      -7.383  -1.176 -34.407  1.00  0.00     0.032 A 
BRANCH   8  11
HETATM   11  O   UNL     1      -4.025  -2.355 -33.664  1.00  0.00    -0.347 OA
BRANCH  11  12
HETATM   12  C   UNL     1      -3.904  -3.599 -32.959  1.00  0.00     0.120 C 
HETATM   13  C   UNL     1      -2.865  -3.410 -31.859  1.00  0.00     0.040 C 
HETATM   14  C   UNL     1      -3.449  -4.660 -33.956  1.00  0.00     0.040 C 
ENDBRANCH  11  12
ENDBRANCH   8  11
ENDBRANCH   1   5
BRANCH   2  15
HETATM   15  C   UNL     1     -10.704   1.919 -33.447  1.00  0.00     0.051 A 
HETATM   16  C   UNL     1     -10.962   3.111 -32.772  1.00  0.00     0.133 A 
HETATM   17  N   UNL     1     -12.207   3.585 -32.515  1.00  0.00    -0.271 NA
HETATM   18  C   UNL     1     -13.244   2.826 -32.935  1.00  0.00     0.135 A 
HETATM   19  C   UNL     1     -13.087   1.617 -33.597  1.00  0.00     0.029 A 
HETATM   20 BR   UNL     1     -14.590   0.614 -34.138  1.00  0.00    -0.050 Br
HETATM   21  C   UNL     1     -11.799   1.150 -33.854  1.00  0.00     0.039 A 
ENDBRANCH   2  15
TORSDOF 4
ENDMDL
MODEL 3
REMARK VINA RESULT:      -6.9      1.473      2.085
REMARK  4 active torsions:
REMARK  status: ('A' for Active; 'I' for Inactive)
REMARK    1  A    between atoms: C_2  and  O_3 
REMARK    2  A    between atoms: O_3  and  C_4 
REMARK    3  A    between atoms: C_7  and  N_8 
REMARK       I    between atoms: N_8  and  C_9 
REMARK    4  A    between atoms: C_9  and  C_10 
ROOT
HETATM    1  N   UNL     1      -8.827   0.368 -34.203  1.00  0.00    -0.323 N 
HETATM    2  C   UNL     1      -9.842   0.473 -33.268  1.00  0.00     0.257 C 
HETATM    3  O   UNL     1      -9.792   0.117 -32.097  1.00  0.00    -0.267 OA
HETATM    4  H   UNL     1      -8.974   0.782 -35.112  1.00  0.00     0.169 HD
ENDROOT
BRANCH   1   5
HETATM    5  C   UNL     1      -7.561  -0.236 -34.026  1.00  0.00     0.035 A 
HETATM    6  C   UNL     1      -7.247  -1.535 -34.430  1.00  0.00     0.032 A 
HETATM    7  C   UNL     1      -5.960  -2.051 -34.236  1.00  0.00     0.039 A 
HETATM    8  C   UNL     1      -4.968  -1.259 -33.665  1.00  0.00     0.069 A 
HETATM    9  C   UNL     1      -5.281   0.022 -33.223  1.00  0.00     0.039 A 
HETATM   10  C   UNL     1      -6.568   0.535 -33.408  1.00  0.00     0.032 A 
BRANCH   8  11
HETATM   11  O   UNL     1      -3.694  -1.691 -33.429  1.00  0.00    -0.347 OA
BRANCH  11  12
HETATM   12  C   UNL     1      -3.378  -1.947 -32.052  1.00  0.00     0.120 C 
HETATM   13  C   UNL     1      -2.207  -1.049 -31.671  1.00  0.00     0.040 C 
HETATM   14  C   UNL     1      -2.996  -3.418 -31.925  1.00  0.00     0.040 C 
ENDBRANCH  11  12
ENDBRANCH   8  11
ENDBRANCH   1   5
BRANCH   2  15
HETATM   15  C   UNL     1     -11.104   1.098 -33.746  1.00  0.00     0.051 A 
HETATM   16  C   UNL     1     -12.280   0.357 -33.660  1.00  0.00     0.133 A 
HETATM   17  N   UNL     1     -13.495   0.809 -34.063  1.00  0.00    -0.271 NA
HETATM   18  C   UNL     1     -13.534   2.052 -34.593  1.00  0.00     0.135 A 
HETATM   19  C   UNL     1     -12.413   2.857 -34.737  1.00  0.00     0.029 A 
HETATM   20 BR   UNL     1     -12.554   4.576 -35.500  1.00  0.00    -0.050 Br
HETATM   21  C   UNL     1     -11.176   2.374 -34.314  1.00  0.00     0.039 A 
ENDBRANCH   2  15
TORSDOF 4
ENDMDL
MODEL 4
REMARK VINA RESULT:      -6.6      3.390      8.245
REMARK  4 active torsions:
REMARK  status: ('A' for Active; 'I' for Inactive)
REMARK    1  A    between atoms: C_2  and  O_3 
REMARK    2  A    between atoms: O_3  and  C_4 
REMARK    3  A    between atoms: C_7  and  N_8 
REMARK       I    between atoms: N_8  and  C_9 
REMARK    4  A    between atoms: C_9  and  C_10 
ROOT
HETATM    1  N   UNL     1      -8.571   0.338 -33.243  1.00  0.00    -0.323 N 
HETATM    2  C   UNL     1      -7.450   0.525 -34.033  1.00  0.00     0.257 C 
HETATM    3  O   UNL     1      -7.163   1.536 -34.662  1.00  0.00    -0.267 OA
HETATM    4  H   UNL     1      -8.639  -0.516 -32.710  1.00  0.00     0.169 HD
ENDROOT
BRANCH   1   5
HETATM    5  C   UNL     1      -9.647   1.237 -33.060  1.00  0.00     0.035 A 
HETATM    6  C   UNL     1      -9.557   2.435 -32.350  1.00  0.00     0.032 A 
HETATM    7  C   UNL     1     -10.668   3.280 -32.234  1.00  0.00     0.039 A 
HETATM    8  C   UNL     1     -11.868   2.946 -32.854  1.00  0.00     0.069 A 
HETATM    9  C   UNL     1     -11.979   1.736 -33.531  1.00  0.00     0.039 A 
HETATM   10  C   UNL     1     -10.874   0.888 -33.640  1.00  0.00     0.032 A 
BRANCH   8  11
HETATM   11  O   UNL     1     -12.999   3.708 -32.778  1.00  0.00    -0.347 OA
BRANCH  11  12
HETATM   12  C   UNL     1     -13.834   3.453 -31.638  1.00  0.00     0.120 C 
HETATM   13  C   UNL     1     -15.212   3.054 -32.153  1.00  0.00     0.040 C 
HETATM   14  C   UNL     1     -13.914   4.738 -30.820  1.00  0.00     0.040 C 
ENDBRANCH  11  12
ENDBRANCH   8  11
ENDBRANCH   1   5
BRANCH   2  15
HETATM   15  C   UNL     1      -6.503  -0.620 -34.099  1.00  0.00     0.051 A 
HETATM   16  C   UNL     1      -5.196  -0.421 -33.662  1.00  0.00     0.133 A 
HETATM   17  N   UNL     1      -4.236  -1.381 -33.673  1.00  0.00    -0.271 NA
HETATM   18  C   UNL     1      -4.593  -2.591 -34.160  1.00  0.00     0.135 A 
HETATM   19  C   UNL     1      -5.864  -2.877 -34.635  1.00  0.00     0.029 A 
HETATM   20 BR   UNL     1      -6.276  -4.590 -35.309  1.00  0.00    -0.050 Br
HETATM   21  C   UNL     1      -6.836  -1.878 -34.612  1.00  0.00     0.039 A 
ENDBRANCH   2  15
TORSDOF 4
ENDMDL
MODEL 5
REMARK VINA RESULT:      -6.5      6.721      8.940
REMARK  4 active torsions:
REMARK  status: ('A' for Active; 'I' for Inactive)
REMARK    1  A    between atoms: C_2  and  O_3 
REMARK    2  A    between atoms: O_3  and  C_4 
REMARK    3  A    between atoms: C_7  and  N_8 
REMARK       I    between atoms: N_8  and  C_9 
REMARK    4  A    between atoms: C_9  and  C_10 
ROOT
HETATM    1  N   UNL     1      -3.057   3.477 -31.283  1.00  0.00    -0.323 N 
HETATM    2  C   UNL     1      -2.311   4.363 -32.041  1.00  0.00     0.257 C 
HETATM    3  O   UNL     1      -2.279   4.427 -33.264  1.00  0.00    -0.267 OA
HETATM    4  H   UNL     1      -3.055   3.593 -30.280  1.00  0.00     0.169 HD
ENDROOT
BRANCH   1   5
HETATM    5  C   UNL     1      -3.872   2.424 -31.756  1.00  0.00     0.035 A 
HETATM    6  C   UNL     1      -3.387   1.187 -32.183  1.00  0.00     0.032 A 
HETATM    7  C   UNL     1      -4.267   0.187 -32.617  1.00  0.00     0.039 A 
HETATM    8  C   UNL     1      -5.640   0.408 -32.598  1.00  0.00     0.069 A 
HETATM    9  C   UNL     1      -6.132   1.650 -32.211  1.00  0.00     0.039 A 
HETATM   10  C   UNL     1      -5.255   2.652 -31.786  1.00  0.00     0.032 A 
BRANCH   8  11
HETATM   11  O   UNL     1      -6.562  -0.509 -33.017  1.00  0.00    -0.347 OA
BRANCH  11  12
HETATM   12  C   UNL     1      -6.424  -0.938 -34.380  1.00  0.00     0.120 C 
HETATM   13  C   UNL     1      -7.372  -0.099 -35.229  1.00  0.00     0.040 C 
HETATM   14  C   UNL     1      -6.801  -2.414 -34.446  1.00  0.00     0.040 C 
ENDBRANCH  11  12
ENDBRANCH   8  11
ENDBRANCH   1   5
BRANCH   2  15
HETATM   15  C   UNL     1      -1.483   5.334 -31.278  1.00  0.00     0.051 A 
HETATM   16  C   UNL     1      -0.097   5.194 -31.316  1.00  0.00     0.133 A 
HETATM   17  N   UNL     1       0.768   6.010 -30.663  1.00  0.00    -0.271 NA
HETATM   18  C   UNL     1       0.225   7.003 -29.924  1.00  0.00     0.135 A 
HETATM   19  C   UNL     1      -1.142   7.211 -29.810  1.00  0.00     0.029 A 
HETATM   20 BR   UNL     1      -1.817   8.614 -28.746  1.00  0.00    -0.050 Br
HETATM   21  C   UNL     1      -2.013   6.361 -30.491  1.00  0.00     0.039 A 
ENDBRANCH   2  15
TORSDOF 4
ENDMDL
MODEL 6
REMARK VINA RESULT:      -6.5      3.429      3.855
REMARK  4 active torsions:
REMARK  status: ('A' for Active; 'I' for Inactive)
REMARK    1  A    between atoms: C_2  and  O_3 
REMARK    2  A    between atoms: O_3  and  C_4 
REMARK    3  A    between atoms: C_7  and  N_8 
REMARK       I    between atoms: N_8  and  C_9 
REMARK    4  A    between atoms: C_9  and  C_10 
ROOT
HETATM    1  N   UNL     1      -7.422   1.592 -32.388  1.00  0.00    -0.323 N 
HETATM    2  C   UNL     1      -8.636   1.583 -31.724  1.00  0.00     0.257 C 
HETATM    3  O   UNL     1      -9.316   0.598 -31.463  1.00  0.00    -0.267 OA
HETATM    4  H   UNL     1      -6.927   2.468 -32.459  1.00  0.00     0.169 HD
ENDROOT
BRANCH   1   5
HETATM    5  C   UNL     1      -6.756   0.487 -32.965  1.00  0.00     0.035 A 
HETATM    6  C   UNL     1      -5.668  -0.166 -32.383  1.00  0.00     0.032 A 
HETATM    7  C   UNL     1      -5.078  -1.269 -33.013  1.00  0.00     0.039 A 
HETATM    8  C   UNL     1      -5.592  -1.746 -34.215  1.00  0.00     0.069 A 
HETATM    9  C   UNL     1      -6.650  -1.079 -34.823  1.00  0.00     0.039 A 
HETATM   10  C   UNL     1      -7.234   0.028 -34.200  1.00  0.00     0.032 A 
BRANCH   8  11
HETATM   11  O   UNL     1      -5.067  -2.805 -34.898  1.00  0.00    -0.347 OA
BRANCH  11  12
HETATM   12  C   UNL     1      -5.520  -4.098 -34.467  1.00  0.00     0.120 C 
HETATM   13  C   UNL     1      -4.290  -4.942 -34.158  1.00  0.00     0.040 C 
HETATM   14  C   UNL     1      -6.327  -4.713 -35.606  1.00  0.00     0.040 C 
ENDBRANCH  11  12
ENDBRANCH   8  11
ENDBRANCH   1   5
BRANCH   2  15
HETATM   15  C   UNL     1      -9.142   2.908 -31.277  1.00  0.00     0.051 A 
HETATM   16  C   UNL     1     -10.329   3.383 -31.832  1.00  0.00     0.133 A 
HETATM   17  N   UNL     1     -10.894   4.575 -31.513  1.00  0.00    -0.271 NA
HETATM   18  C   UNL     1     -10.236   5.336 -30.610  1.00  0.00     0.135 A 
HETATM   19  C   UNL     1      -9.040   4.957 -30.018  1.00  0.00     0.029 A 
HETATM   20 BR   UNL     1      -8.180   6.086 -28.776  1.00  0.00    -0.050 Br
HETATM   21  C   UNL     1      -8.478   3.727 -30.359  1.00  0.00     0.039 A 
ENDBRANCH   2  15
TORSDOF 4
ENDMDL
MODEL 7
REMARK VINA RESULT:      -6.5      5.821      8.281
REMARK  4 active torsions:
REMARK  status: ('A' for Active; 'I' for Inactive)
REMARK    1  A    between atoms: C_2  and  O_3 
REMARK    2  A    between atoms: O_3  and  C_4 
REMARK    3  A    between atoms: C_7  and  N_8 
REMARK       I    between atoms: N_8  and  C_9 
REMARK    4  A    between atoms: C_9  and  C_10 
ROOT
HETATM    1  N   UNL     1      -4.489   1.663 -32.730  1.00  0.00    -0.323 N 
HETATM    2  C   UNL     1      -4.000   0.413 -32.394  1.00  0.00     0.257 C 
HETATM    3  O   UNL     1      -3.192   0.161 -31.508  1.00  0.00    -0.267 OA
HETATM    4  H   UNL     1      -5.219   1.715 -33.425  1.00  0.00     0.169 HD
ENDROOT
BRANCH   1   5
HETATM    5  C   UNL     1      -4.107   2.907 -32.178  1.00  0.00     0.035 A 
HETATM    6  C   UNL     1      -4.873   3.626 -31.258  1.00  0.00     0.032 A 
HETATM    7  C   UNL     1      -4.410   4.843 -30.742  1.00  0.00     0.039 A 
HETATM    8  C   UNL     1      -3.165   5.335 -31.122  1.00  0.00     0.069 A 
HETATM    9  C   UNL     1      -2.412   4.646 -32.067  1.00  0.00     0.039 A 
HETATM   10  C   UNL     1      -2.877   3.436 -32.589  1.00  0.00     0.032 A 
BRANCH   8  11
HETATM   11  O   UNL     1      -2.649   6.518 -30.676  1.00  0.00    -0.347 OA
BRANCH  11  12
HETATM   12  C   UNL     1      -1.484   6.982 -31.377  1.00  0.00     0.120 C 
HETATM   13  C   UNL     1      -0.375   7.182 -30.352  1.00  0.00     0.040 C 
HETATM   14  C   UNL     1      -1.841   8.301 -32.055  1.00  0.00     0.040 C 
ENDBRANCH  11  12
ENDBRANCH   8  11
ENDBRANCH   1   5
BRANCH   2  15
HETATM   15  C   UNL     1      -4.529  -0.728 -33.188  1.00  0.00     0.051 A 
HETATM   16  C   UNL     1      -5.651  -0.513 -33.985  1.00  0.00     0.133 A 
HETATM   17  N   UNL     1      -6.233  -1.469 -34.752  1.00  0.00    -0.271 NA
HETATM   18  C   UNL     1      -5.679  -2.702 -34.710  1.00  0.00     0.135 A 
HETATM   19  C   UNL     1      -4.574  -3.016 -33.933  1.00  0.00     0.029 A 
HETATM   20 BR   UNL     1      -3.871  -4.766 -33.922  1.00  0.00    -0.050 Br
HETATM   21  C   UNL     1      -3.990  -2.018 -33.153  1.00  0.00     0.039 A 
ENDBRANCH   2  15
TORSDOF 4
ENDMDL
MODEL 8
REMARK VINA RESULT:      -6.5      2.237      2.526
REMARK  4 active torsions:
REMARK  status: ('A' for Active; 'I' for Inactive)
REMARK    1  A    between atoms: C_2  and  O_3 
REMARK    2  A    between atoms: O_3  and  C_4 
REMARK    3  A    between atoms: C_7  and  N_8 
REMARK       I    between atoms: N_8  and  C_9 
REMARK    4  A    between atoms: C_9  and  C_10 
ROOT
HETATM    1  N   UNL     1      -8.902   1.335 -33.418  1.00  0.00    -0.323 N 
HETATM    2  C   UNL     1     -10.242   1.090 -33.173  1.00  0.00     0.257 C 
HETATM    3  O   UNL     1     -10.770  -0.008 -33.046  1.00  0.00    -0.267 OA
HETATM    4  H   UNL     1      -8.586   2.294 -33.413  1.00  0.00     0.169 HD
ENDROOT
BRANCH   1   5
HETATM    5  C   UNL     1      -7.886   0.380 -33.648  1.00  0.00     0.035 A 
HETATM    6  C   UNL     1      -7.057  -0.140 -32.652  1.00  0.00     0.032 A 
HETATM    7  C   UNL     1      -6.088  -1.102 -32.961  1.00  0.00     0.039 A 
HETATM    8  C   UNL     1      -5.961  -1.573 -34.264  1.00  0.00     0.069 A 
HETATM    9  C   UNL     1      -6.755  -1.034 -35.271  1.00  0.00     0.039 A 
HETATM   10  C   UNL     1      -7.717  -0.067 -34.965  1.00  0.00     0.032 A 
BRANCH   8  11
HETATM   11  O   UNL     1      -5.034  -2.498 -34.650  1.00  0.00    -0.347 OA
BRANCH  11  12
HETATM   12  C   UNL     1      -5.317  -3.851 -34.259  1.00  0.00     0.120 C 
HETATM   13  C   UNL     1      -3.986  -4.557 -34.031  1.00  0.00     0.040 C 
HETATM   14  C   UNL     1      -6.094  -4.512 -35.393  1.00  0.00     0.040 C 
ENDBRANCH  11  12
ENDBRANCH   8  11
ENDBRANCH   1   5
BRANCH   2  15
HETATM   15  C   UNL     1     -11.109   2.291 -33.037  1.00  0.00     0.051 A 
HETATM   16  C   UNL     1     -12.271   2.356 -33.802  1.00  0.00     0.133 A 
HETATM   17  N   UNL     1     -13.143   3.395 -33.773  1.00  0.00    -0.271 NA
HETATM   18  C   UNL     1     -12.832   4.426 -32.955  1.00  0.00     0.135 A 
HETATM   19  C   UNL     1     -11.689   4.460 -32.171  1.00  0.00     0.029 A 
HETATM   20 BR   UNL     1     -11.323   5.945 -31.067  1.00  0.00    -0.050 Br
HETATM   21  C   UNL     1     -10.807   3.381 -32.214  1.00  0.00     0.039 A 
ENDBRANCH   2  15
TORSDOF 4
ENDMDL
MODEL 9
REMARK VINA RESULT:      -6.4      5.895      7.686
REMARK  4 active torsions:
REMARK  status: ('A' for Active; 'I' for Inactive)
REMARK    1  A    between atoms: C_2  and  O_3 
REMARK    2  A    between atoms: O_3  and  C_4 
REMARK    3  A    between atoms: C_7  and  N_8 
REMARK       I    between atoms: N_8  and  C_9 
REMARK    4  A    between atoms: C_9  and  C_10 
ROOT
HETATM    1  N   UNL     1      -4.717   2.862 -31.867  1.00  0.00    -0.323 N 
HETATM    2  C   UNL     1      -3.447   3.363 -32.096  1.00  0.00     0.257 C 
HETATM    3  O   UNL     1      -2.602   2.889 -32.845  1.00  0.00    -0.267 OA
HETATM    4  H   UNL     1      -5.343   3.403 -31.289  1.00  0.00     0.169 HD
ENDROOT
BRANCH   1   5
HETATM    5  C   UNL     1      -5.272   1.670 -32.386  1.00  0.00     0.035 A 
HETATM    6  C   UNL     1      -5.843   1.557 -33.654  1.00  0.00     0.032 A 
HETATM    7  C   UNL     1      -6.352   0.331 -34.100  1.00  0.00     0.039 A 
HETATM    8  C   UNL     1      -6.265  -0.798 -33.291  1.00  0.00     0.069 A 
HETATM    9  C   UNL     1      -5.733  -0.687 -32.010  1.00  0.00     0.039 A 
HETATM   10  C   UNL     1      -5.234   0.538 -31.561  1.00  0.00     0.032 A 
BRANCH   8  11
HETATM   11  O   UNL     1      -6.749  -2.025 -33.646  1.00  0.00    -0.347 OA
BRANCH  11  12
HETATM   12  C   UNL     1      -6.104  -2.635 -34.775  1.00  0.00     0.120 C 
HETATM   13  C   UNL     1      -6.777  -3.980 -35.022  1.00  0.00     0.040 C 
HETATM   14  C   UNL     1      -4.631  -2.823 -34.427  1.00  0.00     0.040 C 
ENDBRANCH  11  12
ENDBRANCH   8  11
ENDBRANCH   1   5
BRANCH   2  15
HETATM   15  C   UNL     1      -3.097   4.609 -31.363  1.00  0.00     0.051 A 
HETATM   16  C   UNL     1      -4.132   5.370 -30.824  1.00  0.00     0.133 A 
HETATM   17  N   UNL     1      -3.947   6.526 -30.137  1.00  0.00    -0.271 NA
HETATM   18  C   UNL     1      -2.671   6.951 -29.996  1.00  0.00     0.135 A 
HETATM   19  C   UNL     1      -1.579   6.272 -30.514  1.00  0.00     0.029 A 
HETATM   20 BR   UNL     1       0.169   6.942 -30.283  1.00  0.00    -0.050 Br
HETATM   21  C   UNL     1      -1.791   5.085 -31.214  1.00  0.00     0.039 A 
ENDBRANCH   2  15
TORSDOF 4
ENDMDL
MODEL 10
REMARK VINA RESULT:      -6.4     14.410     17.111
REMARK  4 active torsions:
REMARK  status: ('A' for Active; 'I' for Inactive)
REMARK    1  A    between atoms: C_2  and  O_3 
REMARK    2  A    between atoms: O_3  and  C_4 
REMARK    3  A    between atoms: C_7  and  N_8 
REMARK       I    between atoms: N_8  and  C_9 
REMARK    4  A    between atoms: C_9  and  C_10 
ROOT
HETATM    1  N   UNL     1      -3.231 -13.931 -39.281  1.00  0.00    -0.323 N 
HETATM    2  C   UNL     1      -2.085 -13.272 -38.871  1.00  0.00     0.257 C 
HETATM    3  O   UNL     1      -2.015 -12.119 -38.464  1.00  0.00    -0.267 OA
HETATM    4  H   UNL     1      -3.158 -14.911 -39.510  1.00  0.00     0.169 HD
ENDROOT
BRANCH   1   5
HETATM    5  C   UNL     1      -4.535 -13.394 -39.387  1.00  0.00     0.035 A 
HETATM    6  C   UNL     1      -5.140 -13.035 -40.592  1.00  0.00     0.032 A 
HETATM    7  C   UNL     1      -6.446 -12.529 -40.611  1.00  0.00     0.039 A 
HETATM    8  C   UNL     1      -7.166 -12.407 -39.426  1.00  0.00     0.069 A 
HETATM    9  C   UNL     1      -6.558 -12.725 -38.216  1.00  0.00     0.039 A 
HETATM   10  C   UNL     1      -5.252 -13.222 -38.195  1.00  0.00     0.032 A 
BRANCH   8  11
HETATM   11  O   UNL     1      -8.436 -11.911 -39.358  1.00  0.00    -0.347 OA
BRANCH  11  12
HETATM   12  C   UNL     1      -9.397 -12.568 -40.199  1.00  0.00     0.120 C 
HETATM   13  C   UNL     1     -10.562 -11.608 -40.410  1.00  0.00     0.040 C 
HETATM   14  C   UNL     1      -9.860 -13.832 -39.482  1.00  0.00     0.040 C 
ENDBRANCH  11  12
ENDBRANCH   8  11
ENDBRANCH   1   5
BRANCH   2  15
HETATM   15  C   UNL     1      -0.827 -14.063 -38.922  1.00  0.00     0.051 A 
HETATM   16  C   UNL     1      -0.204 -14.233 -40.156  1.00  0.00     0.133 A 
HETATM   17  N   UNL     1       0.944 -14.933 -40.338  1.00  0.00    -0.271 NA
HETATM   18  C   UNL     1       1.487 -15.505 -39.239  1.00  0.00     0.135 A 
HETATM   19  C   UNL     1       0.930 -15.407 -37.973  1.00  0.00     0.029 A 
HETATM   20 BR   UNL     1       1.746 -16.247 -36.495  1.00  0.00    -0.050 Br
HETATM   21  C   UNL     1      -0.249 -14.680 -37.808  1.00  0.00     0.039 A 
ENDBRANCH   2  15
TORSDOF 4
ENDMDL
