MODEL 1
REMARK VINA RESULT:      -8.9      0.000      0.000
REMARK  6 active torsions:
REMARK  status: ('A' for Active; 'I' for Inactive)
REMARK    1  A    between atoms: O_2  and  C_3 
REMARK    2  A    between atoms: C_5  and  O_6 
REMARK    3  A    between atoms: C_8  and  N_9 
REMARK       I    between atoms: N_9  and  C_10 
REMARK    4  A    between atoms: C_10  and  C_11 
REMARK    5  A    between atoms: C_11  and  N_12 
REMARK    6  A    between atoms: C_17  and  C_18 
ROOT
HETATM    1  N   UNL     1      -9.817   3.119 -33.736  1.00  0.00    -0.326 N 
HETATM    2  C   UNL     1     -11.027   3.390 -34.367  1.00  0.00     0.255 C 
HETATM    3  O   UNL     1     -11.400   4.447 -34.838  1.00  0.00    -0.267 OA
HETATM    4  C   UNL     1     -11.847   2.175 -34.291  1.00  0.00     0.040 A 
HETATM    5  C   UNL     1     -11.146   1.223 -33.553  1.00  0.00    -0.015 A 
HETATM    6  C   UNL     1      -9.852   1.815 -33.089  1.00  0.00     0.158 C 
HETATM    7  C   UNL     1     -13.130   1.961 -34.759  1.00  0.00     0.017 A 
HETATM    8  C   UNL     1     -13.719   0.727 -34.479  1.00  0.00     0.001 A 
HETATM    9  C   UNL     1     -13.020  -0.250 -33.745  1.00  0.00     0.001 A 
HETATM   10  C   UNL     1     -11.727  -0.005 -33.271  1.00  0.00     0.011 A 
ENDROOT
BRANCH   1  11
HETATM   11  C   UNL     1      -9.064   4.206 -33.132  1.00  0.00     0.230 C 
BRANCH  11  12
HETATM   12  C   UNL     1      -7.543   4.193 -33.304  1.00  0.00     0.240 C 
HETATM   13  N   UNL     1      -6.839   3.762 -32.194  1.00  0.00    -0.323 N 
HETATM   14  H   UNL     1      -7.382   3.402 -31.414  1.00  0.00     0.169 HD
HETATM   15  O   UNL     1      -7.056   4.730 -34.299  1.00  0.00    -0.271 OA
BRANCH  13  16
HETATM   16  C   UNL     1      -5.442   3.862 -31.972  1.00  0.00     0.068 A 
HETATM   17  C   UNL     1      -4.939   5.036 -31.371  1.00  0.00     0.097 A 
HETATM   18  C   UNL     1      -3.553   5.211 -31.218  1.00  0.00     0.075 A 
HETATM   19  C   UNL     1      -2.664   4.216 -31.629  1.00  0.00     0.070 A 
HETATM   20  C   UNL     1      -3.166   3.034 -32.165  1.00  0.00     0.039 A 
HETATM   21  C   UNL     1      -4.541   2.860 -32.342  1.00  0.00     0.035 A 
BRANCH  17  22
HETATM   22  O   UNL     1      -5.878   5.969 -30.987  1.00  0.00    -0.354 OA
HETATM   23  C   UNL     1      -5.821   7.233 -31.639  1.00  0.00     0.210 C 
ENDBRANCH  17  22
BRANCH  19  24
HETATM   24  O   UNL     1      -1.300   4.269 -31.544  1.00  0.00    -0.356 OA
HETATM   25  C   UNL     1      -0.727   5.516 -31.171  1.00  0.00     0.210 C 
ENDBRANCH  19  24
ENDBRANCH  13  16
ENDBRANCH  11  12
ENDBRANCH   1  11
BRANCH   6  26
HETATM   26  C   UNL     1      -8.727   0.972 -33.585  1.00  0.00    -0.003 A 
HETATM   27  C   UNL     1      -7.670   0.432 -32.777  1.00  0.00     0.001 A 
HETATM   28  C   UNL     1      -6.781  -0.224 -33.627  1.00  0.00     0.043 A 
HETATM   29  C   UNL     1      -7.378   0.459 -31.396  1.00  0.00     0.014 A 
HETATM   30  C   UNL     1      -5.609  -0.840 -33.173  1.00  0.00     0.030 A 
HETATM   31  N   UNL     1      -7.285  -0.118 -34.900  1.00  0.00    -0.365 N 
HETATM   32  C   UNL     1      -5.342  -0.793 -31.803  1.00  0.00     0.002 A 
HETATM   33  C   UNL     1      -6.214  -0.158 -30.924  1.00  0.00     0.001 A 
HETATM   34  H   UNL     1      -6.842  -0.498 -35.724  1.00  0.00     0.165 HD
HETATM   35  C   UNL     1      -8.450   0.596 -34.891  1.00  0.00     0.099 A 
ENDBRANCH   6  26
TORSDOF 6
ENDMDL
MODEL 2
REMARK VINA RESULT:      -8.9      2.201      5.013
REMARK  6 active torsions:
REMARK  status: ('A' for Active; 'I' for Inactive)
REMARK    1  A    between atoms: O_2  and  C_3 
REMARK    2  A    between atoms: C_5  and  O_6 
REMARK    3  A    between atoms: C_8  and  N_9 
REMARK       I    between atoms: N_9  and  C_10 
REMARK    4  A    between atoms: C_10  and  C_11 
REMARK    5  A    between atoms: C_11  and  N_12 
REMARK    6  A    between atoms: C_17  and  C_18 
ROOT
HETATM    1  N   UNL     1      -7.888   1.322 -31.620  1.00  0.00    -0.326 N 
HETATM    2  C   UNL     1      -6.892   0.413 -31.278  1.00  0.00     0.255 C 
HETATM    3  O   UNL     1      -6.306   0.315 -30.217  1.00  0.00    -0.267 OA
HETATM    4  C   UNL     1      -6.587  -0.380 -32.476  1.00  0.00     0.040 A 
HETATM    5  C   UNL     1      -7.351   0.115 -33.531  1.00  0.00    -0.015 A 
HETATM    6  C   UNL     1      -8.153   1.285 -33.051  1.00  0.00     0.158 C 
HETATM    7  C   UNL     1      -5.658  -1.391 -32.635  1.00  0.00     0.017 A 
HETATM    8  C   UNL     1      -5.508  -1.930 -33.914  1.00  0.00     0.001 A 
HETATM    9  C   UNL     1      -6.280  -1.449 -34.989  1.00  0.00     0.001 A 
HETATM   10  C   UNL     1      -7.205  -0.416 -34.804  1.00  0.00     0.011 A 
ENDROOT
BRANCH   1  11
HETATM   11  C   UNL     1      -7.989   2.579 -30.899  1.00  0.00     0.230 C 
BRANCH  11  12
HETATM   12  C   UNL     1      -6.767   3.501 -30.910  1.00  0.00     0.240 C 
HETATM   13  N   UNL     1      -6.276   3.795 -32.170  1.00  0.00    -0.323 N 
HETATM   14  H   UNL     1      -6.816   3.465 -32.965  1.00  0.00     0.169 HD
HETATM   15  O   UNL     1      -6.204   3.750 -29.844  1.00  0.00    -0.271 OA
BRANCH  13  16
HETATM   16  C   UNL     1      -5.041   4.415 -32.485  1.00  0.00     0.068 A 
HETATM   17  C   UNL     1      -3.895   3.602 -32.623  1.00  0.00     0.097 A 
HETATM   18  C   UNL     1      -2.637   4.189 -32.845  1.00  0.00     0.075 A 
HETATM   19  C   UNL     1      -2.512   5.575 -32.963  1.00  0.00     0.070 A 
HETATM   20  C   UNL     1      -3.652   6.368 -32.888  1.00  0.00     0.039 A 
HETATM   21  C   UNL     1      -4.903   5.797 -32.645  1.00  0.00     0.035 A 
BRANCH  17  22
HETATM   22  O   UNL     1      -4.098   2.245 -32.498  1.00  0.00    -0.354 OA
HETATM   23  C   UNL     1      -3.369   1.585 -31.470  1.00  0.00     0.210 C 
ENDBRANCH  17  22
BRANCH  19  24
HETATM   24  O   UNL     1      -1.349   6.264 -33.168  1.00  0.00    -0.356 OA
HETATM   25  C   UNL     1      -1.262   7.564 -32.598  1.00  0.00     0.210 C 
ENDBRANCH  19  24
ENDBRANCH  13  16
ENDBRANCH  11  12
ENDBRANCH   1  11
BRANCH   6  26
HETATM   26  C   UNL     1      -9.598   1.013 -33.294  1.00  0.00    -0.003 A 
HETATM   27  C   UNL     1     -10.492   1.856 -34.038  1.00  0.00     0.001 A 
HETATM   28  C   UNL     1     -11.765   1.294 -33.961  1.00  0.00     0.043 A 
HETATM   29  C   UNL     1     -10.336   3.062 -34.755  1.00  0.00     0.014 A 
HETATM   30  C   UNL     1     -12.892   1.879 -34.549  1.00  0.00     0.030 A 
HETATM   31  N   UNL     1     -11.654   0.138 -33.227  1.00  0.00    -0.365 N 
HETATM   32  C   UNL     1     -12.710   3.075 -35.249  1.00  0.00     0.002 A 
HETATM   33  C   UNL     1     -11.450   3.657 -35.356  1.00  0.00     0.001 A 
HETATM   34  H   UNL     1     -12.426  -0.475 -33.005  1.00  0.00     0.165 HD
HETATM   35  C   UNL     1     -10.362  -0.043 -32.820  1.00  0.00     0.099 A 
ENDBRANCH   6  26
TORSDOF 6
ENDMDL
MODEL 3
REMARK VINA RESULT:      -8.6      3.245      5.778
REMARK  6 active torsions:
REMARK  status: ('A' for Active; 'I' for Inactive)
REMARK    1  A    between atoms: O_2  and  C_3 
REMARK    2  A    between atoms: C_5  and  O_6 
REMARK    3  A    between atoms: C_8  and  N_9 
REMARK       I    between atoms: N_9  and  C_10 
REMARK    4  A    between atoms: C_10  and  C_11 
REMARK    5  A    between atoms: C_11  and  N_12 
REMARK    6  A    between atoms: C_17  and  C_18 
ROOT
HETATM    1  N   UNL     1      -4.096  -0.206 -32.064  1.00  0.00    -0.326 N 
HETATM    2  C   UNL     1      -3.676  -1.516 -32.269  1.00  0.00     0.255 C 
HETATM    3  O   UNL     1      -2.730  -2.084 -31.756  1.00  0.00    -0.267 OA
HETATM    4  C   UNL     1      -4.534  -2.098 -33.308  1.00  0.00     0.040 A 
HETATM    5  C   UNL     1      -5.403  -1.106 -33.760  1.00  0.00    -0.015 A 
HETATM    6  C   UNL     1      -5.102   0.174 -33.045  1.00  0.00     0.158 C 
HETATM    7  C   UNL     1      -4.492  -3.364 -33.861  1.00  0.00     0.017 A 
HETATM    8  C   UNL     1      -5.377  -3.639 -34.906  1.00  0.00     0.001 A 
HETATM    9  C   UNL     1      -6.270  -2.652 -35.366  1.00  0.00     0.001 A 
HETATM   10  C   UNL     1      -6.284  -1.374 -34.797  1.00  0.00     0.011 A 
ENDROOT
BRANCH   1  11
HETATM   11  C   UNL     1      -3.147   0.783 -31.580  1.00  0.00     0.230 C 
BRANCH  11  12
HETATM   12  C   UNL     1      -3.650   2.219 -31.407  1.00  0.00     0.240 C 
HETATM   13  N   UNL     1      -3.031   3.151 -32.221  1.00  0.00    -0.323 N 
HETATM   14  H   UNL     1      -2.383   2.796 -32.919  1.00  0.00     0.169 HD
HETATM   15  O   UNL     1      -4.396   2.474 -30.462  1.00  0.00    -0.271 OA
BRANCH  13  16
HETATM   16  C   UNL     1      -3.113   4.563 -32.124  1.00  0.00     0.068 A 
HETATM   17  C   UNL     1      -2.040   5.260 -31.528  1.00  0.00     0.097 A 
HETATM   18  C   UNL     1      -2.125   6.650 -31.331  1.00  0.00     0.075 A 
HETATM   19  C   UNL     1      -3.253   7.357 -31.751  1.00  0.00     0.070 A 
HETATM   20  C   UNL     1      -4.282   6.676 -32.394  1.00  0.00     0.039 A 
HETATM   21  C   UNL     1      -4.217   5.292 -32.574  1.00  0.00     0.035 A 
BRANCH  17  22
HETATM   22  O   UNL     1      -0.961   4.495 -31.144  1.00  0.00    -0.354 OA
HETATM   23  C   UNL     1       0.193   5.200 -30.700  1.00  0.00     0.210 C 
ENDBRANCH  17  22
BRANCH  19  24
HETATM   24  O   UNL     1      -3.460   8.701 -31.609  1.00  0.00    -0.356 OA
HETATM   25  C   UNL     1      -2.498   9.424 -30.852  1.00  0.00     0.210 C 
ENDBRANCH  19  24
ENDBRANCH  13  16
ENDBRANCH  11  12
ENDBRANCH   1  11
BRANCH   6  26
HETATM   26  C   UNL     1      -6.335   0.644 -32.352  1.00  0.00    -0.003 A 
HETATM   27  C   UNL     1      -7.060   1.844 -32.663  1.00  0.00     0.001 A 
HETATM   28  C   UNL     1      -8.097   1.963 -31.738  1.00  0.00     0.043 A 
HETATM   29  C   UNL     1      -6.916   2.854 -33.638  1.00  0.00     0.014 A 
HETATM   30  C   UNL     1      -8.986   3.044 -31.727  1.00  0.00     0.030 A 
HETATM   31  N   UNL     1      -8.031   0.867 -30.913  1.00  0.00    -0.365 N 
HETATM   32  C   UNL     1      -8.817   4.032 -32.700  1.00  0.00     0.002 A 
HETATM   33  C   UNL     1      -7.800   3.938 -33.646  1.00  0.00     0.001 A 
HETATM   34  H   UNL     1      -8.660   0.693 -30.141  1.00  0.00     0.165 HD
HETATM   35  C   UNL     1      -6.981   0.068 -31.268  1.00  0.00     0.099 A 
ENDBRANCH   6  26
TORSDOF 6
ENDMDL
MODEL 4
REMARK VINA RESULT:      -8.5      1.844      7.586
REMARK  6 active torsions:
REMARK  status: ('A' for Active; 'I' for Inactive)
REMARK    1  A    between atoms: O_2  and  C_3 
REMARK    2  A    between atoms: C_5  and  O_6 
REMARK    3  A    between atoms: C_8  and  N_9 
REMARK       I    between atoms: N_9  and  C_10 
REMARK    4  A    between atoms: C_10  and  C_11 
REMARK    5  A    between atoms: C_11  and  N_12 
REMARK    6  A    between atoms: C_17  and  C_18 
ROOT
HETATM    1  N   UNL     1      -6.312   4.964 -33.089  1.00  0.00    -0.326 N 
HETATM    2  C   UNL     1      -5.669   6.092 -32.588  1.00  0.00     0.255 C 
HETATM    3  O   UNL     1      -6.172   7.144 -32.244  1.00  0.00    -0.267 OA
HETATM    4  C   UNL     1      -4.225   5.831 -32.627  1.00  0.00     0.040 A 
HETATM    5  C   UNL     1      -4.024   4.584 -33.217  1.00  0.00    -0.015 A 
HETATM    6  C   UNL     1      -5.347   4.012 -33.620  1.00  0.00     0.158 C 
HETATM    7  C   UNL     1      -3.182   6.657 -32.251  1.00  0.00     0.017 A 
HETATM    8  C   UNL     1      -1.884   6.194 -32.471  1.00  0.00     0.001 A 
HETATM    9  C   UNL     1      -1.664   4.932 -33.055  1.00  0.00     0.001 A 
HETATM   10  C   UNL     1      -2.736   4.119 -33.439  1.00  0.00     0.011 A 
ENDROOT
BRANCH   1  11
HETATM   11  C   UNL     1      -7.614   5.102 -33.719  1.00  0.00     0.230 C 
BRANCH  11  12
HETATM   12  C   UNL     1      -8.716   4.131 -33.287  1.00  0.00     0.240 C 
HETATM   13  N   UNL     1      -9.164   3.283 -34.284  1.00  0.00    -0.323 N 
HETATM   14  H   UNL     1      -8.665   3.308 -35.169  1.00  0.00     0.169 HD
HETATM   15  O   UNL     1      -9.247   4.291 -32.188  1.00  0.00    -0.271 OA
BRANCH  13  16
HETATM   16  C   UNL     1     -10.314   2.455 -34.252  1.00  0.00     0.068 A 
HETATM   17  C   UNL     1     -11.466   2.876 -34.950  1.00  0.00     0.097 A 
HETATM   18  C   UNL     1     -12.653   2.127 -34.867  1.00  0.00     0.075 A 
HETATM   19  C   UNL     1     -12.696   0.947 -34.122  1.00  0.00     0.070 A 
HETATM   20  C   UNL     1     -11.542   0.503 -33.485  1.00  0.00     0.039 A 
HETATM   21  C   UNL     1     -10.364   1.251 -33.543  1.00  0.00     0.035 A 
BRANCH  17  22
HETATM   22  O   UNL     1     -11.345   4.046 -35.667  1.00  0.00    -0.354 OA
HETATM   23  C   UNL     1     -12.122   5.150 -35.217  1.00  0.00     0.210 C 
ENDBRANCH  17  22
BRANCH  19  24
HETATM   24  O   UNL     1     -13.787   0.139 -33.955  1.00  0.00    -0.356 OA
HETATM   25  C   UNL     1     -15.056   0.697 -34.271  1.00  0.00     0.210 C 
ENDBRANCH  19  24
ENDBRANCH  13  16
ENDBRANCH  11  12
ENDBRANCH   1  11
BRANCH   6  26
HETATM   26  C   UNL     1      -5.524   2.688 -32.959  1.00  0.00    -0.003 A 
HETATM   27  C   UNL     1      -6.092   1.520 -33.571  1.00  0.00     0.001 A 
HETATM   28  C   UNL     1      -6.154   0.521 -32.600  1.00  0.00     0.043 A 
HETATM   29  C   UNL     1      -6.580   1.226 -34.863  1.00  0.00     0.014 A 
HETATM   30  C   UNL     1      -6.691  -0.748 -32.847  1.00  0.00     0.030 A 
HETATM   31  N   UNL     1      -5.619   1.043 -31.448  1.00  0.00    -0.365 N 
HETATM   32  C   UNL     1      -7.172  -1.009 -34.132  1.00  0.00     0.002 A 
HETATM   33  C   UNL     1      -7.113  -0.039 -35.129  1.00  0.00     0.001 A 
HETATM   34  H   UNL     1      -5.540   0.541 -30.575  1.00  0.00     0.165 HD
HETATM   35  C   UNL     1      -5.237   2.340 -31.648  1.00  0.00     0.099 A 
ENDBRANCH   6  26
TORSDOF 6
ENDMDL
MODEL 5
REMARK VINA RESULT:      -8.4      1.882      4.791
REMARK  6 active torsions:
REMARK  status: ('A' for Active; 'I' for Inactive)
REMARK    1  A    between atoms: O_2  and  C_3 
REMARK    2  A    between atoms: C_5  and  O_6 
REMARK    3  A    between atoms: C_8  and  N_9 
REMARK       I    between atoms: N_9  and  C_10 
REMARK    4  A    between atoms: C_10  and  C_11 
REMARK    5  A    between atoms: C_11  and  N_12 
REMARK    6  A    between atoms: C_17  and  C_18 
ROOT
HETATM    1  N   UNL     1      -7.259   1.568 -32.173  1.00  0.00    -0.326 N 
HETATM    2  C   UNL     1      -6.231   0.714 -31.786  1.00  0.00     0.255 C 
HETATM    3  O   UNL     1      -5.485   0.830 -30.833  1.00  0.00    -0.267 OA
HETATM    4  C   UNL     1      -6.129  -0.342 -32.801  1.00  0.00     0.040 A 
HETATM    5  C   UNL     1      -7.044  -0.062 -33.814  1.00  0.00    -0.015 A 
HETATM    6  C   UNL     1      -7.747   1.222 -33.500  1.00  0.00     0.158 C 
HETATM    7  C   UNL     1      -5.248  -1.406 -32.863  1.00  0.00     0.017 A 
HETATM    8  C   UNL     1      -5.308  -2.226 -33.992  1.00  0.00     0.001 A 
HETATM    9  C   UNL     1      -6.235  -1.963 -35.018  1.00  0.00     0.001 A 
HETATM   10  C   UNL     1      -7.107  -0.872 -34.938  1.00  0.00     0.011 A 
ENDROOT
BRANCH   1  11
HETATM   11  C   UNL     1      -7.230   2.959 -31.753  1.00  0.00     0.230 C 
BRANCH  11  12
HETATM   12  C   UNL     1      -6.070   3.825 -32.252  1.00  0.00     0.240 C 
HETATM   13  N   UNL     1      -4.899   3.698 -31.526  1.00  0.00    -0.323 N 
HETATM   14  H   UNL     1      -4.879   2.983 -30.803  1.00  0.00     0.169 HD
HETATM   15  O   UNL     1      -6.297   4.685 -33.103  1.00  0.00    -0.271 OA
BRANCH  13  16
HETATM   16  C   UNL     1      -3.751   4.526 -31.599  1.00  0.00     0.068 A 
HETATM   17  C   UNL     1      -3.703   5.682 -30.791  1.00  0.00     0.097 A 
HETATM   18  C   UNL     1      -2.623   6.576 -30.902  1.00  0.00     0.075 A 
HETATM   19  C   UNL     1      -1.576   6.314 -31.787  1.00  0.00     0.070 A 
HETATM   20  C   UNL     1      -1.596   5.143 -32.537  1.00  0.00     0.039 A 
HETATM   21  C   UNL     1      -2.675   4.260 -32.450  1.00  0.00     0.035 A 
BRANCH  17  22
HETATM   22  O   UNL     1      -4.770   5.870 -29.940  1.00  0.00    -0.354 OA
HETATM   23  C   UNL     1      -4.541   6.698 -28.805  1.00  0.00     0.210 C 
ENDBRANCH  17  22
BRANCH  19  24
HETATM   24  O   UNL     1      -0.480   7.106 -31.994  1.00  0.00    -0.356 OA
HETATM   25  C   UNL     1       0.659   6.853 -31.181  1.00  0.00     0.210 C 
ENDBRANCH  19  24
ENDBRANCH  13  16
ENDBRANCH  11  12
ENDBRANCH   1  11
BRANCH   6  26
HETATM   26  C   UNL     1      -9.215   0.972 -33.452  1.00  0.00    -0.003 A 
HETATM   27  C   UNL     1     -10.226   1.826 -34.010  1.00  0.00     0.001 A 
HETATM   28  C   UNL     1     -11.467   1.283 -33.681  1.00  0.00     0.043 A 
HETATM   29  C   UNL     1     -10.197   3.027 -34.750  1.00  0.00     0.014 A 
HETATM   30  C   UNL     1     -12.679   1.883 -34.040  1.00  0.00     0.030 A 
HETATM   31  N   UNL     1     -11.230   0.127 -32.977  1.00  0.00    -0.365 N 
HETATM   32  C   UNL     1     -12.621   3.075 -34.767  1.00  0.00     0.002 A 
HETATM   33  C   UNL     1     -11.399   3.638 -35.123  1.00  0.00     0.001 A 
HETATM   34  H   UNL     1     -11.951  -0.474 -32.605  1.00  0.00     0.165 HD
HETATM   35  C   UNL     1      -9.886  -0.072 -32.832  1.00  0.00     0.099 A 
ENDBRANCH   6  26
TORSDOF 6
ENDMDL
MODEL 6
REMARK VINA RESULT:      -8.3      2.272      6.964
REMARK  6 active torsions:
REMARK  status: ('A' for Active; 'I' for Inactive)
REMARK    1  A    between atoms: O_2  and  C_3 
REMARK    2  A    between atoms: C_5  and  O_6 
REMARK    3  A    between atoms: C_8  and  N_9 
REMARK       I    between atoms: N_9  and  C_10 
REMARK    4  A    between atoms: C_10  and  C_11 
REMARK    5  A    between atoms: C_11  and  N_12 
REMARK    6  A    between atoms: C_17  and  C_18 
ROOT
HETATM    1  N   UNL     1      -6.432   1.045 -31.835  1.00  0.00    -0.326 N 
HETATM    2  C   UNL     1      -6.523   2.200 -31.064  1.00  0.00     0.255 C 
HETATM    3  O   UNL     1      -7.468   2.581 -30.401  1.00  0.00    -0.267 OA
HETATM    4  C   UNL     1      -5.281   2.959 -31.258  1.00  0.00     0.040 A 
HETATM    5  C   UNL     1      -4.501   2.285 -32.196  1.00  0.00    -0.015 A 
HETATM    6  C   UNL     1      -5.242   1.075 -32.673  1.00  0.00     0.158 C 
HETATM    7  C   UNL     1      -4.914   4.178 -30.718  1.00  0.00     0.017 A 
HETATM    8  C   UNL     1      -3.700   4.727 -31.135  1.00  0.00     0.001 A 
HETATM    9  C   UNL     1      -2.895   4.053 -32.073  1.00  0.00     0.001 A 
HETATM   10  C   UNL     1      -3.294   2.827 -32.615  1.00  0.00     0.011 A 
ENDROOT
BRANCH   1  11
HETATM   11  C   UNL     1      -7.645   0.413 -32.324  1.00  0.00     0.230 C 
BRANCH  11  12
HETATM   12  C   UNL     1      -8.403   1.116 -33.453  1.00  0.00     0.240 C 
HETATM   13  N   UNL     1      -9.118   2.234 -33.061  1.00  0.00    -0.323 N 
HETATM   14  H   UNL     1      -9.000   2.544 -32.100  1.00  0.00     0.169 HD
HETATM   15  O   UNL     1      -8.486   0.558 -34.547  1.00  0.00    -0.271 OA
BRANCH  13  16
HETATM   16  C   UNL     1     -10.086   2.941 -33.817  1.00  0.00     0.068 A 
HETATM   17  C   UNL     1      -9.711   4.162 -34.417  1.00  0.00     0.097 A 
HETATM   18  C   UNL     1     -10.668   4.936 -35.098  1.00  0.00     0.075 A 
HETATM   19  C   UNL     1     -11.986   4.492 -35.214  1.00  0.00     0.070 A 
HETATM   20  C   UNL     1     -12.338   3.259 -34.674  1.00  0.00     0.039 A 
HETATM   21  C   UNL     1     -11.401   2.493 -33.977  1.00  0.00     0.035 A 
BRANCH  17  22
HETATM   22  O   UNL     1      -8.393   4.532 -34.264  1.00  0.00    -0.354 OA
HETATM   23  C   UNL     1      -8.134   5.603 -33.363  1.00  0.00     0.210 C 
ENDBRANCH  17  22
BRANCH  19  24
HETATM   24  O   UNL     1     -13.007   5.154 -35.839  1.00  0.00    -0.356 OA
HETATM   25  C   UNL     1     -12.889   6.567 -35.944  1.00  0.00     0.210 C 
ENDBRANCH  19  24
ENDBRANCH  13  16
ENDBRANCH  11  12
ENDBRANCH   1  11
BRANCH   6  26
HETATM   26  C   UNL     1      -4.410  -0.134 -32.417  1.00  0.00    -0.003 A 
HETATM   27  C   UNL     1      -4.509  -1.380 -33.125  1.00  0.00     0.001 A 
HETATM   28  C   UNL     1      -3.620  -2.275 -32.531  1.00  0.00     0.043 A 
HETATM   29  C   UNL     1      -5.293  -1.835 -34.207  1.00  0.00     0.014 A 
HETATM   30  C   UNL     1      -3.483  -3.603 -32.953  1.00  0.00     0.030 A 
HETATM   31  N   UNL     1      -2.979  -1.600 -31.522  1.00  0.00    -0.365 N 
HETATM   32  C   UNL     1      -4.275  -4.028 -34.022  1.00  0.00     0.002 A 
HETATM   33  C   UNL     1      -5.164  -3.157 -34.646  1.00  0.00     0.001 A 
HETATM   34  H   UNL     1      -2.280  -2.007 -30.916  1.00  0.00     0.165 HD
HETATM   35  C   UNL     1      -3.441  -0.317 -31.441  1.00  0.00     0.099 A 
ENDBRANCH   6  26
TORSDOF 6
ENDMDL
MODEL 7
REMARK VINA RESULT:      -8.2      2.549      6.822
REMARK  6 active torsions:
REMARK  status: ('A' for Active; 'I' for Inactive)
REMARK    1  A    between atoms: O_2  and  C_3 
REMARK    2  A    between atoms: C_5  and  O_6 
REMARK    3  A    between atoms: C_8  and  N_9 
REMARK       I    between atoms: N_9  and  C_10 
REMARK    4  A    between atoms: C_10  and  C_11 
REMARK    5  A    between atoms: C_11  and  N_12 
REMARK    6  A    between atoms: C_17  and  C_18 
ROOT
HETATM    1  N   UNL     1      -7.853   1.164 -32.442  1.00  0.00    -0.326 N 
HETATM    2  C   UNL     1      -8.307  -0.009 -33.038  1.00  0.00     0.255 C 
HETATM    3  O   UNL     1      -9.451  -0.419 -33.099  1.00  0.00    -0.267 OA
HETATM    4  C   UNL     1      -7.131  -0.743 -33.521  1.00  0.00     0.040 A 
HETATM    5  C   UNL     1      -5.991  -0.036 -33.142  1.00  0.00    -0.015 A 
HETATM    6  C   UNL     1      -6.400   1.171 -32.357  1.00  0.00     0.158 C 
HETATM    7  C   UNL     1      -7.074  -1.965 -34.163  1.00  0.00     0.017 A 
HETATM    8  C   UNL     1      -5.808  -2.486 -34.443  1.00  0.00     0.001 A 
HETATM    9  C   UNL     1      -4.647  -1.778 -34.077  1.00  0.00     0.001 A 
HETATM   10  C   UNL     1      -4.732  -0.548 -33.417  1.00  0.00     0.011 A 
ENDROOT
BRANCH   1  11
HETATM   11  C   UNL     1      -8.642   1.786 -31.392  1.00  0.00     0.230 C 
BRANCH  11  12
HETATM   12  C   UNL     1      -9.683   2.827 -31.813  1.00  0.00     0.240 C 
HETATM   13  N   UNL     1      -9.956   2.857 -33.168  1.00  0.00    -0.323 N 
HETATM   14  H   UNL     1      -9.527   2.135 -33.742  1.00  0.00     0.169 HD
HETATM   15  O   UNL     1     -10.048   3.665 -30.988  1.00  0.00    -0.271 OA
BRANCH  13  16
HETATM   16  C   UNL     1     -10.682   3.848 -33.875  1.00  0.00     0.068 A 
HETATM   17  C   UNL     1     -12.039   3.602 -34.177  1.00  0.00     0.097 A 
HETATM   18  C   UNL     1     -12.766   4.520 -34.955  1.00  0.00     0.075 A 
HETATM   19  C   UNL     1     -12.165   5.696 -35.409  1.00  0.00     0.070 A 
HETATM   20  C   UNL     1     -10.846   5.965 -35.058  1.00  0.00     0.039 A 
HETATM   21  C   UNL     1     -10.109   5.049 -34.304  1.00  0.00     0.035 A 
BRANCH  17  22
HETATM   22  O   UNL     1     -12.562   2.424 -33.691  1.00  0.00    -0.354 OA
HETATM   23  C   UNL     1     -13.019   1.484 -34.658  1.00  0.00     0.210 C 
ENDBRANCH  17  22
BRANCH  19  24
HETATM   24  O   UNL     1     -12.759   6.659 -36.177  1.00  0.00    -0.356 OA
HETATM   25  C   UNL     1     -12.213   7.969 -36.102  1.00  0.00     0.210 C 
ENDBRANCH  19  24
ENDBRANCH  13  16
ENDBRANCH  11  12
ENDBRANCH   1  11
BRANCH   6  26
HETATM   26  C   UNL     1      -5.858   2.389 -33.024  1.00  0.00    -0.003 A 
HETATM   27  C   UNL     1      -4.640   3.062 -32.670  1.00  0.00     0.001 A 
HETATM   28  C   UNL     1      -4.535   4.196 -33.474  1.00  0.00     0.043 A 
HETATM   29  C   UNL     1      -3.624   2.819 -31.721  1.00  0.00     0.014 A 
HETATM   30  C   UNL     1      -3.477   5.107 -33.370  1.00  0.00     0.030 A 
HETATM   31  N   UNL     1      -5.626   4.204 -34.308  1.00  0.00    -0.365 N 
HETATM   32  C   UNL     1      -2.488   4.845 -32.418  1.00  0.00     0.002 A 
HETATM   33  C   UNL     1      -2.555   3.715 -31.608  1.00  0.00     0.001 A 
HETATM   34  H   UNL     1      -5.814   4.918 -34.997  1.00  0.00     0.165 HD
HETATM   35  C   UNL     1      -6.428   3.128 -34.050  1.00  0.00     0.099 A 
ENDBRANCH   6  26
TORSDOF 6
ENDMDL
MODEL 8
REMARK VINA RESULT:      -8.2      3.083      4.739
REMARK  6 active torsions:
REMARK  status: ('A' for Active; 'I' for Inactive)
REMARK    1  A    between atoms: O_2  and  C_3 
REMARK    2  A    between atoms: C_5  and  O_6 
REMARK    3  A    between atoms: C_8  and  N_9 
REMARK       I    between atoms: N_9  and  C_10 
REMARK    4  A    between atoms: C_10  and  C_11 
REMARK    5  A    between atoms: C_11  and  N_12 
REMARK    6  A    between atoms: C_17  and  C_18 
ROOT
HETATM    1  N   UNL     1      -4.898   3.476 -33.046  1.00  0.00    -0.326 N 
HETATM    2  C   UNL     1      -5.969   4.288 -33.407  1.00  0.00     0.255 C 
HETATM    3  O   UNL     1      -5.975   5.197 -34.214  1.00  0.00    -0.267 OA
HETATM    4  C   UNL     1      -7.110   3.916 -32.561  1.00  0.00     0.040 A 
HETATM    5  C   UNL     1      -6.684   2.942 -31.660  1.00  0.00    -0.015 A 
HETATM    6  C   UNL     1      -5.226   2.680 -31.872  1.00  0.00     0.158 C 
HETATM    7  C   UNL     1      -8.384   4.452 -32.536  1.00  0.00     0.017 A 
HETATM    8  C   UNL     1      -9.265   3.970 -31.566  1.00  0.00     0.001 A 
HETATM    9  C   UNL     1      -8.854   2.978 -30.656  1.00  0.00     0.001 A 
HETATM   10  C   UNL     1      -7.555   2.460 -30.694  1.00  0.00     0.011 A 
ENDROOT
BRANCH   1  11
HETATM   11  C   UNL     1      -3.539   3.953 -33.240  1.00  0.00     0.230 C 
BRANCH  11  12
HETATM   12  C   UNL     1      -2.729   4.306 -31.991  1.00  0.00     0.240 C 
HETATM   13  N   UNL     1      -2.472   5.655 -31.829  1.00  0.00    -0.323 N 
HETATM   14  H   UNL     1      -2.919   6.292 -32.483  1.00  0.00     0.169 HD
HETATM   15  O   UNL     1      -2.211   3.394 -31.345  1.00  0.00    -0.271 OA
BRANCH  13  16
HETATM   16  C   UNL     1      -1.566   6.253 -30.917  1.00  0.00     0.068 A 
HETATM   17  C   UNL     1      -2.082   6.838 -29.741  1.00  0.00     0.097 A 
HETATM   18  C   UNL     1      -1.226   7.520 -28.858  1.00  0.00     0.075 A 
HETATM   19  C   UNL     1       0.143   7.597 -29.118  1.00  0.00     0.070 A 
HETATM   20  C   UNL     1       0.658   6.966 -30.245  1.00  0.00     0.039 A 
HETATM   21  C   UNL     1      -0.187   6.306 -31.140  1.00  0.00     0.035 A 
BRANCH  17  22
HETATM   22  O   UNL     1      -3.442   6.717 -29.552  1.00  0.00    -0.354 OA
HETATM   23  C   UNL     1      -4.185   7.929 -29.484  1.00  0.00     0.210 C 
ENDBRANCH  17  22
BRANCH  19  24
HETATM   24  O   UNL     1       1.074   8.236 -28.346  1.00  0.00    -0.356 OA
HETATM   25  C   UNL     1       1.331   7.686 -27.060  1.00  0.00     0.210 C 
ENDBRANCH  19  24
ENDBRANCH  13  16
ENDBRANCH  11  12
ENDBRANCH   1  11
BRANCH   6  26
HETATM   26  C   UNL     1      -5.032   1.233 -32.169  1.00  0.00    -0.003 A 
HETATM   27  C   UNL     1      -5.679   0.503 -33.223  1.00  0.00     0.001 A 
HETATM   28  C   UNL     1      -5.294  -0.832 -33.111  1.00  0.00     0.043 A 
HETATM   29  C   UNL     1      -6.577   0.856 -34.253  1.00  0.00     0.014 A 
HETATM   30  C   UNL     1      -5.770  -1.835 -33.964  1.00  0.00     0.030 A 
HETATM   31  N   UNL     1      -4.423  -0.915 -32.053  1.00  0.00    -0.365 N 
HETATM   32  C   UNL     1      -6.662  -1.458 -34.972  1.00  0.00     0.002 A 
HETATM   33  C   UNL     1      -7.057  -0.132 -35.119  1.00  0.00     0.001 A 
HETATM   34  H   UNL     1      -3.987  -1.770 -31.736  1.00  0.00     0.165 HD
HETATM   35  C   UNL     1      -4.256   0.313 -31.478  1.00  0.00     0.099 A 
ENDBRANCH   6  26
TORSDOF 6
ENDMDL
MODEL 9
REMARK VINA RESULT:      -8.2      1.572      2.324
REMARK  6 active torsions:
REMARK  status: ('A' for Active; 'I' for Inactive)
REMARK    1  A    between atoms: O_2  and  C_3 
REMARK    2  A    between atoms: C_5  and  O_6 
REMARK    3  A    between atoms: C_8  and  N_9 
REMARK       I    between atoms: N_9  and  C_10 
REMARK    4  A    between atoms: C_10  and  C_11 
REMARK    5  A    between atoms: C_11  and  N_12 
REMARK    6  A    between atoms: C_17  and  C_18 
ROOT
HETATM    1  N   UNL     1      -9.439   4.304 -33.424  1.00  0.00    -0.326 N 
HETATM    2  C   UNL     1     -10.035   4.483 -34.669  1.00  0.00     0.255 C 
HETATM    3  O   UNL     1      -9.884   5.410 -35.441  1.00  0.00    -0.267 OA
HETATM    4  C   UNL     1     -10.979   3.377 -34.869  1.00  0.00     0.040 A 
HETATM    5  C   UNL     1     -10.987   2.597 -33.714  1.00  0.00    -0.015 A 
HETATM    6  C   UNL     1     -10.067   3.206 -32.703  1.00  0.00     0.158 C 
HETATM    7  C   UNL     1     -11.815   3.132 -35.943  1.00  0.00     0.017 A 
HETATM    8  C   UNL     1     -12.685   2.044 -35.845  1.00  0.00     0.001 A 
HETATM    9  C   UNL     1     -12.697   1.239 -34.690  1.00  0.00     0.001 A 
HETATM   10  C   UNL     1     -11.849   1.515 -33.612  1.00  0.00     0.011 A 
ENDROOT
BRANCH   1  11
HETATM   11  C   UNL     1      -8.943   5.459 -32.695  1.00  0.00     0.230 C 
BRANCH  11  12
HETATM   12  C   UNL     1      -7.458   5.801 -32.837  1.00  0.00     0.240 C 
HETATM   13  N   UNL     1      -6.650   4.735 -33.190  1.00  0.00    -0.323 N 
HETATM   14  H   UNL     1      -7.114   3.859 -33.418  1.00  0.00     0.169 HD
HETATM   15  O   UNL     1      -7.065   6.903 -32.453  1.00  0.00    -0.271 OA
BRANCH  13  16
HETATM   16  C   UNL     1      -5.233   4.688 -33.166  1.00  0.00     0.068 A 
HETATM   17  C   UNL     1      -4.603   3.894 -32.183  1.00  0.00     0.097 A 
HETATM   18  C   UNL     1      -3.202   3.894 -32.070  1.00  0.00     0.075 A 
HETATM   19  C   UNL     1      -2.420   4.651 -32.945  1.00  0.00     0.070 A 
HETATM   20  C   UNL     1      -3.042   5.383 -33.951  1.00  0.00     0.039 A 
HETATM   21  C   UNL     1      -4.434   5.408 -34.058  1.00  0.00     0.035 A 
BRANCH  17  22
HETATM   22  O   UNL     1      -5.440   3.173 -31.360  1.00  0.00    -0.354 OA
HETATM   23  C   UNL     1      -5.495   3.577 -29.997  1.00  0.00     0.210 C 
ENDBRANCH  17  22
BRANCH  19  24
HETATM   24  O   UNL     1      -1.056   4.742 -32.932  1.00  0.00    -0.356 OA
HETATM   25  C   UNL     1      -0.457   5.276 -31.758  1.00  0.00     0.210 C 
ENDBRANCH  19  24
ENDBRANCH  13  16
ENDBRANCH  11  12
ENDBRANCH   1  11
BRANCH   6  26
HETATM   26  C   UNL     1      -9.039   2.200 -32.315  1.00  0.00    -0.003 A 
HETATM   27  C   UNL     1      -8.312   1.357 -33.223  1.00  0.00     0.001 A 
HETATM   28  C   UNL     1      -7.512   0.506 -32.461  1.00  0.00     0.043 A 
HETATM   29  C   UNL     1      -8.276   1.227 -34.628  1.00  0.00     0.014 A 
HETATM   30  C   UNL     1      -6.692  -0.477 -33.027  1.00  0.00     0.030 A 
HETATM   31  N   UNL     1      -7.716   0.831 -31.142  1.00  0.00    -0.365 N 
HETATM   32  C   UNL     1      -6.681  -0.587 -34.420  1.00  0.00     0.002 A 
HETATM   33  C   UNL     1      -7.457   0.255 -35.211  1.00  0.00     0.001 A 
HETATM   34  H   UNL     1      -7.267   0.370 -30.363  1.00  0.00     0.165 HD
HETATM   35  C   UNL     1      -8.627   1.844 -31.039  1.00  0.00     0.099 A 
ENDBRANCH   6  26
TORSDOF 6
ENDMDL
MODEL 10
REMARK VINA RESULT:      -8.0      2.330      3.903
REMARK  6 active torsions:
REMARK  status: ('A' for Active; 'I' for Inactive)
REMARK    1  A    between atoms: O_2  and  C_3 
REMARK    2  A    between atoms: C_5  and  O_6 
REMARK    3  A    between atoms: C_8  and  N_9 
REMARK       I    between atoms: N_9  and  C_10 
REMARK    4  A    between atoms: C_10  and  C_11 
REMARK    5  A    between atoms: C_11  and  N_12 
REMARK    6  A    between atoms: C_17  and  C_18 
ROOT
HETATM    1  N   UNL     1      -5.344   1.366 -33.332  1.00  0.00    -0.326 N 
HETATM    2  C   UNL     1      -6.136   2.446 -33.709  1.00  0.00     0.255 C 
HETATM    3  O   UNL     1      -5.771   3.557 -34.041  1.00  0.00    -0.267 OA
HETATM    4  C   UNL     1      -7.538   2.042 -33.548  1.00  0.00     0.040 A 
HETATM    5  C   UNL     1      -7.562   0.756 -33.009  1.00  0.00    -0.015 A 
HETATM    6  C   UNL     1      -6.158   0.300 -32.764  1.00  0.00     0.158 C 
HETATM    7  C   UNL     1      -8.686   2.776 -33.780  1.00  0.00     0.017 A 
HETATM    8  C   UNL     1      -9.908   2.178 -33.464  1.00  0.00     0.001 A 
HETATM    9  C   UNL     1      -9.949   0.876 -32.930  1.00  0.00     0.001 A 
HETATM   10  C   UNL     1      -8.772   0.157 -32.693  1.00  0.00     0.011 A 
ENDROOT
BRANCH   1  11
HETATM   11  C   UNL     1      -4.005   1.604 -32.819  1.00  0.00     0.230 C 
BRANCH  11  12
HETATM   12  C   UNL     1      -3.824   2.749 -31.819  1.00  0.00     0.240 C 
HETATM   13  N   UNL     1      -3.040   3.795 -32.272  1.00  0.00    -0.323 N 
HETATM   14  H   UNL     1      -2.741   3.761 -33.243  1.00  0.00     0.169 HD
HETATM   15  O   UNL     1      -4.205   2.587 -30.660  1.00  0.00    -0.271 OA
BRANCH  13  16
HETATM   16  C   UNL     1      -2.509   4.863 -31.506  1.00  0.00     0.068 A 
HETATM   17  C   UNL     1      -3.328   5.985 -31.257  1.00  0.00     0.097 A 
HETATM   18  C   UNL     1      -2.808   7.101 -30.579  1.00  0.00     0.075 A 
HETATM   19  C   UNL     1      -1.490   7.100 -30.120  1.00  0.00     0.070 A 
HETATM   20  C   UNL     1      -0.704   5.969 -30.313  1.00  0.00     0.039 A 
HETATM   21  C   UNL     1      -1.204   4.863 -31.004  1.00  0.00     0.035 A 
BRANCH  17  22
HETATM   22  O   UNL     1      -4.618   5.910 -31.736  1.00  0.00    -0.354 OA
HETATM   23  C   UNL     1      -5.661   5.984 -30.771  1.00  0.00     0.210 C 
ENDBRANCH  17  22
BRANCH  19  24
HETATM   24  O   UNL     1      -0.866   8.123 -29.460  1.00  0.00    -0.356 OA
HETATM   25  C   UNL     1       0.331   7.803 -28.762  1.00  0.00     0.210 C 
ENDBRANCH  19  24
ENDBRANCH  13  16
ENDBRANCH  11  12
ENDBRANCH   1  11
BRANCH   6  26
HETATM   26  C   UNL     1      -5.923  -0.969 -33.508  1.00  0.00    -0.003 A 
HETATM   27  C   UNL     1      -4.951  -1.969 -33.166  1.00  0.00     0.001 A 
HETATM   28  C   UNL     1      -4.992  -2.954 -34.153  1.00  0.00     0.043 A 
HETATM   29  C   UNL     1      -4.023  -2.117 -32.113  1.00  0.00     0.014 A 
HETATM   30  C   UNL     1      -4.146  -4.069 -34.151  1.00  0.00     0.030 A 
HETATM   31  N   UNL     1      -5.969  -2.590 -35.047  1.00  0.00    -0.365 N 
HETATM   32  C   UNL     1      -3.233  -4.186 -33.100  1.00  0.00     0.002 A 
HETATM   33  C   UNL     1      -3.173  -3.229 -32.092  1.00  0.00     0.001 A 
HETATM   34  H   UNL     1      -6.214  -3.119 -35.872  1.00  0.00     0.165 HD
HETATM   35  C   UNL     1      -6.535  -1.404 -34.675  1.00  0.00     0.099 A 
ENDBRANCH   6  26
TORSDOF 6
ENDMDL
