MODEL 1
REMARK VINA RESULT:      -9.3      0.000      0.000
REMARK  8 active torsions:
REMARK  status: ('A' for Active; 'I' for Inactive)
REMARK    1  A    between atoms: C_2  and  O_3 
REMARK    2  A    between atoms: O_3  and  C_4 
REMARK    3  A    between atoms: C_5  and  C_6 
REMARK    4  A    between atoms: C_6  and  N_7 
REMARK    5  A    between atoms: C_9  and  C_10 
REMARK    6  A    between atoms: C_10  and  C_11 
REMARK       I    between atoms: C_11  and  N_12 
REMARK    7  A    between atoms: N_12  and  C_13 
REMARK    8  A    between atoms: C_13  and  C_14 
ROOT
HETATM    1  N   UNL     1      -5.930   0.756 -32.170  1.00  0.00    -0.052 N 
HETATM    2  H   UNL     1      -4.942   0.544 -31.992  1.00  0.00     0.281 HD
HETATM    3  C   UNL     1      -6.140   2.276 -31.861  1.00  0.00     0.288 C 
HETATM    4  C   UNL     1      -5.808   2.592 -30.368  1.00  0.00     0.249 C 
HETATM    5  O   UNL     1      -5.307   3.646 -29.986  1.00  0.00    -0.271 OA
HETATM    6  N   UNL     1      -6.148   1.636 -29.443  1.00  0.00    -0.358 N 
HETATM    7  C   UNL     1      -6.301   0.230 -29.757  1.00  0.00     0.150 C 
HETATM    8  C   UNL     1      -6.794  -0.038 -31.183  1.00  0.00     0.256 C 
HETATM    9  H   UNL     1      -5.905   1.892 -28.488  1.00  0.00     0.162 HD
ENDROOT
BRANCH   3  10
HETATM   10  C   UNL     1      -5.284   3.175 -32.763  1.00  0.00     0.145 C 
BRANCH  10  11
HETATM   11  C   UNL     1      -6.213   4.013 -33.614  1.00  0.00     0.220 C 
HETATM   12  N   UNL     1      -7.520   3.990 -33.207  1.00  0.00    -0.355 N 
HETATM   13  H   UNL     1      -7.819   3.376 -32.461  1.00  0.00     0.162 HD
HETATM   14  O   UNL     1      -5.793   4.663 -34.564  1.00  0.00    -0.274 OA
BRANCH  12  15
HETATM   15  C   UNL     1      -8.578   4.493 -34.055  1.00  0.00     0.179 C 
BRANCH  15  16
HETATM   16  C   UNL     1      -9.671   3.489 -34.004  1.00  0.00     0.028 A 
HETATM   17  N   UNL     1     -10.897   3.715 -34.589  1.00  0.00    -0.357 N 
HETATM   18  H   UNL     1     -11.154   4.549 -35.105  1.00  0.00     0.166 HD
HETATM   19  C   UNL     1     -11.714   2.617 -34.434  1.00  0.00     0.043 A 
HETATM   20  C   UNL     1     -10.995   1.670 -33.703  1.00  0.00    -0.005 A 
HETATM   21  C   UNL     1     -13.022   2.397 -34.883  1.00  0.00     0.033 A 
HETATM   22  C   UNL     1      -9.717   2.232 -33.433  1.00  0.00     0.040 A 
HETATM   23  C   UNL     1     -11.606   0.441 -33.397  1.00  0.00     0.056 A 
HETATM   24  C   UNL     1     -12.909   0.214 -33.843  1.00  0.00     0.117 A 
HETATM   25  C   UNL     1     -13.609   1.168 -34.571  1.00  0.00     0.044 A 
HETATM   26  F   UNL     1     -13.498  -0.956 -33.562  1.00  0.00    -0.206 F 
ENDBRANCH  15  16
ENDBRANCH  12  15
ENDBRANCH  10  11
ENDBRANCH   3  10
BRANCH   1  27
HETATM   27  C   UNL     1      -6.242   0.380 -33.609  1.00  0.00     0.277 C 
BRANCH  27  28
HETATM   28  C   UNL     1      -5.974  -1.053 -34.010  1.00  0.00     0.001 A 
HETATM   29  C   UNL     1      -4.676  -1.576 -33.837  1.00  0.00     0.076 A 
HETATM   30  C   UNL     1      -4.396  -2.895 -34.206  1.00  0.00     0.037 A 
HETATM   31  C   UNL     1      -5.410  -3.716 -34.697  1.00  0.00     0.003 A 
HETATM   32  C   UNL     1      -6.709  -3.232 -34.808  1.00  0.00     0.001 A 
HETATM   33  C   UNL     1      -6.995  -1.913 -34.455  1.00  0.00     0.012 A 
BRANCH  29  34
HETATM   34  O   UNL     1      -3.754  -0.714 -33.304  1.00  0.00    -0.351 OA
BRANCH  34  35
HETATM   35  C   UNL     1      -3.005  -1.185 -32.178  1.00  0.00     0.171 C 
HETATM   36  C   UNL     1      -2.894  -0.043 -31.183  1.00  0.00     0.034 C 
ENDBRANCH  34  35
ENDBRANCH  29  34
ENDBRANCH  27  28
ENDBRANCH   1  27
TORSDOF 8
ENDMDL
MODEL 2
REMARK VINA RESULT:      -9.0      3.531      6.504
REMARK  8 active torsions:
REMARK  status: ('A' for Active; 'I' for Inactive)
REMARK    1  A    between atoms: C_2  and  O_3 
REMARK    2  A    between atoms: O_3  and  C_4 
REMARK    3  A    between atoms: C_5  and  C_6 
REMARK    4  A    between atoms: C_6  and  N_7 
REMARK    5  A    between atoms: C_9  and  C_10 
REMARK    6  A    between atoms: C_10  and  C_11 
REMARK       I    between atoms: C_11  and  N_12 
REMARK    7  A    between atoms: N_12  and  C_13 
REMARK    8  A    between atoms: C_13  and  C_14 
ROOT
HETATM    1  N   UNL     1      -7.299  -0.054 -33.790  1.00  0.00    -0.052 N 
HETATM    2  H   UNL     1      -7.885  -0.886 -33.662  1.00  0.00     0.281 HD
HETATM    3  C   UNL     1      -7.321   0.739 -32.439  1.00  0.00     0.288 C 
HETATM    4  C   UNL     1      -8.774   1.184 -32.079  1.00  0.00     0.249 C 
HETATM    5  O   UNL     1      -9.203   1.255 -30.931  1.00  0.00    -0.271 OA
HETATM    6  N   UNL     1      -9.583   1.558 -33.123  1.00  0.00    -0.358 N 
HETATM    7  C   UNL     1      -9.397   1.108 -34.488  1.00  0.00     0.150 C 
HETATM    8  C   UNL     1      -7.934   0.842 -34.860  1.00  0.00     0.256 C 
HETATM    9  H   UNL     1     -10.519   1.834 -32.832  1.00  0.00     0.162 HD
ENDROOT
BRANCH   3  10
HETATM   10  C   UNL     1      -6.748  -0.081 -31.276  1.00  0.00     0.145 C 
BRANCH  10  11
HETATM   11  C   UNL     1      -6.163   0.879 -30.264  1.00  0.00     0.220 C 
HETATM   12  N   UNL     1      -6.091   2.176 -30.697  1.00  0.00    -0.355 N 
HETATM   13  H   UNL     1      -6.325   2.416 -31.651  1.00  0.00     0.162 HD
HETATM   14  O   UNL     1      -5.815   0.498 -29.152  1.00  0.00    -0.274 OA
BRANCH  12  15
HETATM   15  C   UNL     1      -5.310   3.162 -29.984  1.00  0.00     0.179 C 
BRANCH  15  16
HETATM   16  C   UNL     1      -4.370   3.749 -30.973  1.00  0.00     0.028 A 
HETATM   17  N   UNL     1      -3.613   4.862 -30.688  1.00  0.00    -0.357 N 
HETATM   18  H   UNL     1      -3.611   5.358 -29.803  1.00  0.00     0.166 HD
HETATM   19  C   UNL     1      -2.799   5.177 -31.754  1.00  0.00     0.043 A 
HETATM   20  C   UNL     1      -3.066   4.250 -32.762  1.00  0.00    -0.005 A 
HETATM   21  C   UNL     1      -1.857   6.204 -31.896  1.00  0.00     0.033 A 
HETATM   22  C   UNL     1      -4.059   3.363 -32.263  1.00  0.00     0.040 A 
HETATM   23  C   UNL     1      -2.366   4.347 -33.977  1.00  0.00     0.056 A 
HETATM   24  C   UNL     1      -1.425   5.367 -34.125  1.00  0.00     0.117 A 
HETATM   25  C   UNL     1      -1.170   6.281 -33.110  1.00  0.00     0.044 A 
HETATM   26  F   UNL     1      -0.747   5.465 -35.277  1.00  0.00    -0.206 F 
ENDBRANCH  15  16
ENDBRANCH  12  15
ENDBRANCH  10  11
ENDBRANCH   3  10
BRANCH   1  27
HETATM   27  C   UNL     1      -5.910  -0.513 -34.201  1.00  0.00     0.277 C 
BRANCH  27  28
HETATM   28  C   UNL     1      -5.700  -2.004 -34.334  1.00  0.00     0.001 A 
HETATM   29  C   UNL     1      -4.474  -2.559 -33.913  1.00  0.00     0.076 A 
HETATM   30  C   UNL     1      -4.248  -3.934 -34.032  1.00  0.00     0.037 A 
HETATM   31  C   UNL     1      -5.252  -4.770 -34.517  1.00  0.00     0.003 A 
HETATM   32  C   UNL     1      -6.489  -4.244 -34.872  1.00  0.00     0.001 A 
HETATM   33  C   UNL     1      -6.719  -2.871 -34.770  1.00  0.00     0.012 A 
BRANCH  29  34
HETATM   34  O   UNL     1      -3.564  -1.671 -33.405  1.00  0.00    -0.351 OA
BRANCH  34  35
HETATM   35  C   UNL     1      -3.269  -1.775 -32.007  1.00  0.00     0.171 C 
HETATM   36  C   UNL     1      -2.953  -0.382 -31.493  1.00  0.00     0.034 C 
ENDBRANCH  34  35
ENDBRANCH  29  34
ENDBRANCH  27  28
ENDBRANCH   1  27
TORSDOF 8
ENDMDL
MODEL 3
REMARK VINA RESULT:      -8.8      3.839      6.611
REMARK  8 active torsions:
REMARK  status: ('A' for Active; 'I' for Inactive)
REMARK    1  A    between atoms: C_2  and  O_3 
REMARK    2  A    between atoms: O_3  and  C_4 
REMARK    3  A    between atoms: C_5  and  C_6 
REMARK    4  A    between atoms: C_6  and  N_7 
REMARK    5  A    between atoms: C_9  and  C_10 
REMARK    6  A    between atoms: C_10  and  C_11 
REMARK       I    between atoms: C_11  and  N_12 
REMARK    7  A    between atoms: N_12  and  C_13 
REMARK    8  A    between atoms: C_13  and  C_14 
ROOT
HETATM    1  N   UNL     1      -6.280  -0.259 -33.581  1.00  0.00    -0.052 N 
HETATM    2  H   UNL     1      -6.646  -1.218 -33.609  1.00  0.00     0.281 HD
HETATM    3  C   UNL     1      -6.935   0.450 -32.349  1.00  0.00     0.288 C 
HETATM    4  C   UNL     1      -8.489   0.498 -32.495  1.00  0.00     0.249 C 
HETATM    5  O   UNL     1      -9.268   0.415 -31.550  1.00  0.00    -0.271 OA
HETATM    6  N   UNL     1      -8.986   0.692 -33.760  1.00  0.00    -0.358 N 
HETATM    7  C   UNL     1      -8.262   0.356 -34.970  1.00  0.00     0.150 C 
HETATM    8  C   UNL     1      -6.741   0.485 -34.840  1.00  0.00     0.256 C 
HETATM    9  H   UNL     1     -10.003   0.710 -33.798  1.00  0.00     0.162 HD
ENDROOT
BRANCH   3  10
HETATM   10  C   UNL     1      -6.580  -0.240 -31.025  1.00  0.00     0.145 C 
BRANCH  10  11
HETATM   11  C   UNL     1      -5.972   0.792 -30.102  1.00  0.00     0.220 C 
HETATM   12  N   UNL     1      -6.225   2.088 -30.464  1.00  0.00    -0.355 N 
HETATM   13  H   UNL     1      -6.694   2.299 -31.335  1.00  0.00     0.162 HD
HETATM   14  O   UNL     1      -5.334   0.461 -29.109  1.00  0.00    -0.274 OA
BRANCH  12  15
HETATM   15  C   UNL     1      -5.496   3.188 -29.871  1.00  0.00     0.179 C 
BRANCH  15  16
HETATM   16  C   UNL     1      -4.644   3.756 -30.947  1.00  0.00     0.028 A 
HETATM   17  N   UNL     1      -4.611   5.106 -31.215  1.00  0.00    -0.357 N 
HETATM   18  H   UNL     1      -5.131   5.815 -30.710  1.00  0.00     0.166 HD
HETATM   19  C   UNL     1      -3.716   5.374 -32.227  1.00  0.00     0.043 A 
HETATM   20  C   UNL     1      -3.181   4.152 -32.636  1.00  0.00    -0.005 A 
HETATM   21  C   UNL     1      -3.346   6.596 -32.802  1.00  0.00     0.033 A 
HETATM   22  C   UNL     1      -3.777   3.143 -31.832  1.00  0.00     0.040 A 
HETATM   23  C   UNL     1      -2.233   4.140 -33.674  1.00  0.00     0.056 A 
HETATM   24  C   UNL     1      -1.858   5.354 -34.251  1.00  0.00     0.117 A 
HETATM   25  C   UNL     1      -2.400   6.562 -33.829  1.00  0.00     0.044 A 
HETATM   26  F   UNL     1      -0.950   5.354 -35.236  1.00  0.00    -0.206 F 
ENDBRANCH  15  16
ENDBRANCH  12  15
ENDBRANCH  10  11
ENDBRANCH   3  10
BRANCH   1  27
HETATM   27  C   UNL     1      -4.764  -0.335 -33.503  1.00  0.00     0.277 C 
BRANCH  27  28
HETATM   28  C   UNL     1      -4.172  -1.662 -33.086  1.00  0.00     0.001 A 
HETATM   29  C   UNL     1      -4.479  -2.812 -33.842  1.00  0.00     0.076 A 
HETATM   30  C   UNL     1      -3.953  -4.054 -33.475  1.00  0.00     0.037 A 
HETATM   31  C   UNL     1      -3.080  -4.154 -32.393  1.00  0.00     0.003 A 
HETATM   32  C   UNL     1      -2.716  -3.017 -31.682  1.00  0.00     0.001 A 
HETATM   33  C   UNL     1      -3.247  -1.775 -32.031  1.00  0.00     0.012 A 
BRANCH  29  34
HETATM   34  O   UNL     1      -5.306  -2.613 -34.916  1.00  0.00    -0.351 OA
BRANCH  34  35
HETATM   35  C   UNL     1      -6.587  -3.253 -34.872  1.00  0.00     0.171 C 
HETATM   36  C   UNL     1      -6.481  -4.558 -35.641  1.00  0.00     0.034 C 
ENDBRANCH  34  35
ENDBRANCH  29  34
ENDBRANCH  27  28
ENDBRANCH   1  27
TORSDOF 8
ENDMDL
MODEL 4
REMARK VINA RESULT:      -8.8      4.746      7.480
REMARK  8 active torsions:
REMARK  status: ('A' for Active; 'I' for Inactive)
REMARK    1  A    between atoms: C_2  and  O_3 
REMARK    2  A    between atoms: O_3  and  C_4 
REMARK    3  A    between atoms: C_5  and  C_6 
REMARK    4  A    between atoms: C_6  and  N_7 
REMARK    5  A    between atoms: C_9  and  C_10 
REMARK    6  A    between atoms: C_10  and  C_11 
REMARK       I    between atoms: C_11  and  N_12 
REMARK    7  A    between atoms: N_12  and  C_13 
REMARK    8  A    between atoms: C_13  and  C_14 
ROOT
HETATM    1  N   UNL     1      -7.042   0.479 -32.732  1.00  0.00    -0.052 N 
HETATM    2  H   UNL     1      -6.798  -0.162 -31.968  1.00  0.00     0.281 HD
HETATM    3  C   UNL     1      -6.874   1.936 -32.186  1.00  0.00     0.288 C 
HETATM    4  C   UNL     1      -7.830   2.191 -30.977  1.00  0.00     0.249 C 
HETATM    5  O   UNL     1      -7.548   2.909 -30.021  1.00  0.00    -0.271 OA
HETATM    6  N   UNL     1      -9.069   1.603 -31.033  1.00  0.00    -0.358 N 
HETATM    7  C   UNL     1      -9.364   0.418 -31.813  1.00  0.00     0.150 C 
HETATM    8  C   UNL     1      -8.522   0.287 -33.087  1.00  0.00     0.256 C 
HETATM    9  H   UNL     1      -9.647   1.798 -30.219  1.00  0.00     0.162 HD
ENDROOT
BRANCH   3  10
HETATM   10  C   UNL     1      -5.432   2.230 -31.752  1.00  0.00     0.145 C 
BRANCH  10  11
HETATM   11  C   UNL     1      -4.800   3.131 -32.791  1.00  0.00     0.220 C 
HETATM   12  N   UNL     1      -3.441   3.253 -32.677  1.00  0.00    -0.355 N 
HETATM   13  H   UNL     1      -2.950   2.845 -31.893  1.00  0.00     0.162 HD
HETATM   14  O   UNL     1      -5.476   3.669 -33.661  1.00  0.00    -0.274 OA
BRANCH  12  15
HETATM   15  C   UNL     1      -2.719   4.280 -33.394  1.00  0.00     0.179 C 
BRANCH  15  16
HETATM   16  C   UNL     1      -2.021   5.097 -32.368  1.00  0.00     0.028 A 
HETATM   17  N   UNL     1      -2.701   5.721 -31.346  1.00  0.00    -0.357 N 
HETATM   18  H   UNL     1      -3.702   5.670 -31.193  1.00  0.00     0.166 HD
HETATM   19  C   UNL     1      -1.822   6.377 -30.513  1.00  0.00     0.043 A 
HETATM   20  C   UNL     1      -0.542   6.187 -31.035  1.00  0.00    -0.005 A 
HETATM   21  C   UNL     1      -2.066   7.115 -29.348  1.00  0.00     0.033 A 
HETATM   22  C   UNL     1      -0.681   5.389 -32.204  1.00  0.00     0.040 A 
HETATM   23  C   UNL     1       0.555   6.764 -30.371  1.00  0.00     0.056 A 
HETATM   24  C   UNL     1       0.320   7.500 -29.209  1.00  0.00     0.117 A 
HETATM   25  C   UNL     1      -0.962   7.676 -28.702  1.00  0.00     0.044 A 
HETATM   26  F   UNL     1       1.359   8.048 -28.565  1.00  0.00    -0.206 F 
ENDBRANCH  15  16
ENDBRANCH  12  15
ENDBRANCH  10  11
ENDBRANCH   3  10
BRANCH   1  27
HETATM   27  C   UNL     1      -6.141   0.167 -33.916  1.00  0.00     0.277 C 
BRANCH  27  28
HETATM   28  C   UNL     1      -5.852  -1.293 -34.182  1.00  0.00     0.001 A 
HETATM   29  C   UNL     1      -4.601  -1.820 -33.800  1.00  0.00     0.076 A 
HETATM   30  C   UNL     1      -4.302  -3.164 -34.041  1.00  0.00     0.037 A 
HETATM   31  C   UNL     1      -5.258  -4.004 -34.611  1.00  0.00     0.003 A 
HETATM   32  C   UNL     1      -6.518  -3.512 -34.930  1.00  0.00     0.001 A 
HETATM   33  C   UNL     1      -6.821  -2.169 -34.706  1.00  0.00     0.012 A 
BRANCH  29  34
HETATM   34  O   UNL     1      -3.742  -0.936 -33.203  1.00  0.00    -0.351 OA
BRANCH  34  35
HETATM   35  C   UNL     1      -3.170  -1.335 -31.952  1.00  0.00     0.171 C 
HETATM   36  C   UNL     1      -2.833  -0.076 -31.172  1.00  0.00     0.034 C 
ENDBRANCH  34  35
ENDBRANCH  29  34
ENDBRANCH  27  28
ENDBRANCH   1  27
TORSDOF 8
ENDMDL
MODEL 5
REMARK VINA RESULT:      -8.6      5.092      8.075
REMARK  8 active torsions:
REMARK  status: ('A' for Active; 'I' for Inactive)
REMARK    1  A    between atoms: C_2  and  O_3 
REMARK    2  A    between atoms: O_3  and  C_4 
REMARK    3  A    between atoms: C_5  and  C_6 
REMARK    4  A    between atoms: C_6  and  N_7 
REMARK    5  A    between atoms: C_9  and  C_10 
REMARK    6  A    between atoms: C_10  and  C_11 
REMARK       I    between atoms: C_11  and  N_12 
REMARK    7  A    between atoms: N_12  and  C_13 
REMARK    8  A    between atoms: C_13  and  C_14 
ROOT
HETATM    1  N   UNL     1      -6.162   0.135 -32.346  1.00  0.00    -0.052 N 
HETATM    2  H   UNL     1      -6.179  -0.528 -31.563  1.00  0.00     0.281 HD
HETATM    3  C   UNL     1      -5.918   1.559 -31.743  1.00  0.00     0.288 C 
HETATM    4  C   UNL     1      -7.068   1.953 -30.762  1.00  0.00     0.249 C 
HETATM    5  O   UNL     1      -6.903   2.631 -29.752  1.00  0.00    -0.271 OA
HETATM    6  N   UNL     1      -8.334   1.543 -31.098  1.00  0.00    -0.358 N 
HETATM    7  C   UNL     1      -8.613   0.404 -31.950  1.00  0.00     0.150 C 
HETATM    8  C   UNL     1      -7.542   0.149 -33.016  1.00  0.00     0.256 C 
HETATM    9  H   UNL     1      -9.043   1.822 -30.423  1.00  0.00     0.162 HD
ENDROOT
BRANCH   3  10
HETATM   10  C   UNL     1      -4.577   1.652 -31.002  1.00  0.00     0.145 C 
BRANCH  10  11
HETATM   11  C   UNL     1      -3.721   2.684 -31.702  1.00  0.00     0.220 C 
HETATM   12  N   UNL     1      -3.987   3.977 -31.337  1.00  0.00    -0.355 N 
HETATM   13  H   UNL     1      -4.764   4.191 -30.725  1.00  0.00     0.162 HD
HETATM   14  O   UNL     1      -2.856   2.354 -32.505  1.00  0.00    -0.274 OA
BRANCH  12  15
HETATM   15  C   UNL     1      -3.474   5.092 -32.101  1.00  0.00     0.179 C 
BRANCH  15  16
HETATM   16  C   UNL     1      -2.513   5.800 -31.216  1.00  0.00     0.028 A 
HETATM   17  N   UNL     1      -2.892   6.331 -30.004  1.00  0.00    -0.357 N 
HETATM   18  H   UNL     1      -3.823   6.276 -29.607  1.00  0.00     0.166 HD
HETATM   19  C   UNL     1      -1.809   6.895 -29.366  1.00  0.00     0.043 A 
HETATM   20  C   UNL     1      -0.710   6.743 -30.211  1.00  0.00    -0.005 A 
HETATM   21  C   UNL     1      -1.727   7.521 -28.116  1.00  0.00     0.033 A 
HETATM   22  C   UNL     1      -1.165   6.061 -31.373  1.00  0.00     0.040 A 
HETATM   23  C   UNL     1       0.538   7.242 -29.798  1.00  0.00     0.056 A 
HETATM   24  C   UNL     1       0.629   7.866 -28.553  1.00  0.00     0.117 A 
HETATM   25  C   UNL     1      -0.477   8.007 -27.724  1.00  0.00     0.044 A 
HETATM   26  F   UNL     1       1.815   8.339 -28.148  1.00  0.00    -0.206 F 
ENDBRANCH  15  16
ENDBRANCH  12  15
ENDBRANCH  10  11
ENDBRANCH   3  10
BRANCH   1  27
HETATM   27  C   UNL     1      -5.078  -0.308 -33.315  1.00  0.00     0.277 C 
BRANCH  27  28
HETATM   28  C   UNL     1      -4.371  -1.606 -32.995  1.00  0.00     0.001 A 
HETATM   29  C   UNL     1      -4.594  -2.724 -33.825  1.00  0.00     0.076 A 
HETATM   30  C   UNL     1      -3.961  -3.940 -33.548  1.00  0.00     0.037 A 
HETATM   31  C   UNL     1      -3.065  -4.038 -32.485  1.00  0.00     0.003 A 
HETATM   32  C   UNL     1      -2.786  -2.925 -31.701  1.00  0.00     0.001 A 
HETATM   33  C   UNL     1      -3.424  -1.711 -31.960  1.00  0.00     0.012 A 
BRANCH  29  34
HETATM   34  O   UNL     1      -5.451  -2.524 -34.874  1.00  0.00    -0.351 OA
BRANCH  34  35
HETATM   35  C   UNL     1      -6.742  -3.136 -34.779  1.00  0.00     0.171 C 
HETATM   36  C   UNL     1      -6.685  -4.459 -35.522  1.00  0.00     0.034 C 
ENDBRANCH  34  35
ENDBRANCH  29  34
ENDBRANCH  27  28
ENDBRANCH   1  27
TORSDOF 8
ENDMDL
MODEL 6
REMARK VINA RESULT:      -8.4      4.751      7.728
REMARK  8 active torsions:
REMARK  status: ('A' for Active; 'I' for Inactive)
REMARK    1  A    between atoms: C_2  and  O_3 
REMARK    2  A    between atoms: O_3  and  C_4 
REMARK    3  A    between atoms: C_5  and  C_6 
REMARK    4  A    between atoms: C_6  and  N_7 
REMARK    5  A    between atoms: C_9  and  C_10 
REMARK    6  A    between atoms: C_10  and  C_11 
REMARK       I    between atoms: C_11  and  N_12 
REMARK    7  A    between atoms: N_12  and  C_13 
REMARK    8  A    between atoms: C_13  and  C_14 
ROOT
HETATM    1  N   UNL     1      -7.194   0.541 -32.976  1.00  0.00    -0.052 N 
HETATM    2  H   UNL     1      -7.083   0.088 -32.062  1.00  0.00     0.281 HD
HETATM    3  C   UNL     1      -7.323   2.079 -32.717  1.00  0.00     0.288 C 
HETATM    4  C   UNL     1      -8.572   2.392 -31.833  1.00  0.00     0.249 C 
HETATM    5  O   UNL     1      -8.616   3.300 -31.008  1.00  0.00    -0.271 OA
HETATM    6  N   UNL     1      -9.688   1.622 -32.045  1.00  0.00    -0.358 N 
HETATM    7  C   UNL     1      -9.652   0.288 -32.611  1.00  0.00     0.150 C 
HETATM    8  C   UNL     1      -8.509   0.068 -33.608  1.00  0.00     0.256 C 
HETATM    9  H   UNL     1     -10.470   1.866 -31.440  1.00  0.00     0.162 HD
ENDROOT
BRANCH   3  10
HETATM   10  C   UNL     1      -6.075   2.660 -32.039  1.00  0.00     0.145 C 
BRANCH  10  11
HETATM   11  C   UNL     1      -5.272   3.403 -33.085  1.00  0.00     0.220 C 
HETATM   12  N   UNL     1      -3.948   3.557 -32.773  1.00  0.00    -0.355 N 
HETATM   13  H   UNL     1      -3.595   3.276 -31.868  1.00  0.00     0.162 HD
HETATM   14  O   UNL     1      -5.791   3.797 -34.124  1.00  0.00    -0.274 OA
BRANCH  12  15
HETATM   15  C   UNL     1      -3.106   4.474 -33.508  1.00  0.00     0.179 C 
BRANCH  15  16
HETATM   16  C   UNL     1      -2.326   5.232 -32.496  1.00  0.00     0.028 A 
HETATM   17  N   UNL     1      -2.918   5.781 -31.381  1.00  0.00    -0.357 N 
HETATM   18  H   UNL     1      -3.901   5.709 -31.145  1.00  0.00     0.166 HD
HETATM   19  C   UNL     1      -1.973   6.393 -30.587  1.00  0.00     0.043 A 
HETATM   20  C   UNL     1      -0.743   6.252 -31.230  1.00  0.00    -0.005 A 
HETATM   21  C   UNL     1      -2.118   7.053 -29.360  1.00  0.00     0.033 A 
HETATM   22  C   UNL     1      -0.978   5.529 -32.431  1.00  0.00     0.040 A 
HETATM   23  C   UNL     1       0.405   6.798 -30.628  1.00  0.00     0.056 A 
HETATM   24  C   UNL     1       0.268   7.456 -29.405  1.00  0.00     0.117 A 
HETATM   25  C   UNL     1      -0.965   7.585 -28.778  1.00  0.00     0.044 A 
HETATM   26  F   UNL     1       1.356   7.974 -28.820  1.00  0.00    -0.206 F 
ENDBRANCH  15  16
ENDBRANCH  12  15
ENDBRANCH  10  11
ENDBRANCH   3  10
BRANCH   1  27
HETATM   27  C   UNL     1      -5.998   0.168 -33.836  1.00  0.00     0.277 C 
BRANCH  27  28
HETATM   28  C   UNL     1      -5.006  -0.802 -33.235  1.00  0.00     0.001 A 
HETATM   29  C   UNL     1      -4.887  -2.090 -33.798  1.00  0.00     0.076 A 
HETATM   30  C   UNL     1      -3.985  -3.011 -33.258  1.00  0.00     0.037 A 
HETATM   31  C   UNL     1      -3.160  -2.644 -32.196  1.00  0.00     0.003 A 
HETATM   32  C   UNL     1      -3.219  -1.356 -31.677  1.00  0.00     0.001 A 
HETATM   33  C   UNL     1      -4.127  -0.434 -32.200  1.00  0.00     0.012 A 
BRANCH  29  34
HETATM   34  O   UNL     1      -5.702  -2.348 -34.868  1.00  0.00    -0.351 OA
BRANCH  34  35
HETATM   35  C   UNL     1      -6.791  -3.252 -34.648  1.00  0.00     0.171 C 
HETATM   36  C   UNL     1      -6.506  -4.521 -35.432  1.00  0.00     0.034 C 
ENDBRANCH  34  35
ENDBRANCH  29  34
ENDBRANCH  27  28
ENDBRANCH   1  27
TORSDOF 8
ENDMDL
MODEL 7
REMARK VINA RESULT:      -8.3      5.106      8.463
REMARK  8 active torsions:
REMARK  status: ('A' for Active; 'I' for Inactive)
REMARK    1  A    between atoms: C_2  and  O_3 
REMARK    2  A    between atoms: O_3  and  C_4 
REMARK    3  A    between atoms: C_5  and  C_6 
REMARK    4  A    between atoms: C_6  and  N_7 
REMARK    5  A    between atoms: C_9  and  C_10 
REMARK    6  A    between atoms: C_10  and  C_11 
REMARK       I    between atoms: C_11  and  N_12 
REMARK    7  A    between atoms: N_12  and  C_13 
REMARK    8  A    between atoms: C_13  and  C_14 
ROOT
HETATM    1  N   UNL     1      -2.005   6.492 -31.482  1.00  0.00    -0.052 N 
HETATM    2  H   UNL     1      -1.014   6.227 -31.497  1.00  0.00     0.281 HD
HETATM    3  C   UNL     1      -2.803   5.339 -32.179  1.00  0.00     0.288 C 
HETATM    4  C   UNL     1      -2.342   5.160 -33.660  1.00  0.00     0.249 C 
HETATM    5  O   UNL     1      -2.299   4.076 -34.237  1.00  0.00    -0.271 OA
HETATM    6  N   UNL     1      -2.016   6.301 -34.349  1.00  0.00    -0.358 N 
HETATM    7  C   UNL     1      -1.585   7.531 -33.714  1.00  0.00     0.150 C 
HETATM    8  C   UNL     1      -2.193   7.758 -32.326  1.00  0.00     0.256 C 
HETATM    9  H   UNL     1      -1.719   6.125 -35.307  1.00  0.00     0.162 HD
ENDROOT
BRANCH   3  10
HETATM   10  C   UNL     1      -2.651   4.001 -31.443  1.00  0.00     0.145 C 
BRANCH  10  11
HETATM   11  C   UNL     1      -4.009   3.337 -31.385  1.00  0.00     0.220 C 
HETATM   12  N   UNL     1      -4.286   2.529 -32.456  1.00  0.00    -0.355 N 
HETATM   13  H   UNL     1      -3.656   2.485 -33.246  1.00  0.00     0.162 HD
HETATM   14  O   UNL     1      -4.762   3.510 -30.434  1.00  0.00    -0.274 OA
BRANCH  12  15
HETATM   15  C   UNL     1      -5.626   2.048 -32.705  1.00  0.00     0.179 C 
BRANCH  15  16
HETATM   16  C   UNL     1      -5.494   0.625 -33.110  1.00  0.00     0.028 A 
HETATM   17  N   UNL     1      -6.519  -0.056 -33.727  1.00  0.00    -0.357 N 
HETATM   18  H   UNL     1      -7.420   0.339 -33.971  1.00  0.00     0.166 HD
HETATM   19  C   UNL     1      -6.128  -1.341 -34.033  1.00  0.00     0.043 A 
HETATM   20  C   UNL     1      -4.820  -1.492 -33.571  1.00  0.00    -0.005 A 
HETATM   21  C   UNL     1      -6.830  -2.367 -34.677  1.00  0.00     0.033 A 
HETATM   22  C   UNL     1      -4.435  -0.254 -32.987  1.00  0.00     0.040 A 
HETATM   23  C   UNL     1      -4.174  -2.728 -33.754  1.00  0.00     0.056 A 
HETATM   24  C   UNL     1      -4.867  -3.755 -34.396  1.00  0.00     0.117 A 
HETATM   25  C   UNL     1      -6.169  -3.585 -34.851  1.00  0.00     0.044 A 
HETATM   26  F   UNL     1      -4.259  -4.934 -34.581  1.00  0.00    -0.206 F 
ENDBRANCH  15  16
ENDBRANCH  12  15
ENDBRANCH  10  11
ENDBRANCH   3  10
BRANCH   1  27
HETATM   27  C   UNL     1      -2.410   6.722 -30.035  1.00  0.00     0.277 C 
BRANCH  27  28
HETATM   28  C   UNL     1      -1.371   7.345 -29.131  1.00  0.00     0.001 A 
HETATM   29  C   UNL     1      -0.246   6.580 -28.759  1.00  0.00     0.076 A 
HETATM   30  C   UNL     1       0.726   7.126 -27.916  1.00  0.00     0.037 A 
HETATM   31  C   UNL     1       0.618   8.446 -27.483  1.00  0.00     0.003 A 
HETATM   32  C   UNL     1      -0.451   9.232 -27.898  1.00  0.00     0.001 A 
HETATM   33  C   UNL     1      -1.435   8.691 -28.727  1.00  0.00     0.012 A 
BRANCH  29  34
HETATM   34  O   UNL     1      -0.197   5.309 -29.269  1.00  0.00    -0.351 OA
BRANCH  34  35
HETATM   35  C   UNL     1       1.099   4.794 -29.596  1.00  0.00     0.171 C 
HETATM   36  C   UNL     1       1.265   4.875 -31.103  1.00  0.00     0.034 C 
ENDBRANCH  34  35
ENDBRANCH  29  34
ENDBRANCH  27  28
ENDBRANCH   1  27
TORSDOF 8
ENDMDL
MODEL 8
REMARK VINA RESULT:      -8.2      5.911      8.920
REMARK  8 active torsions:
REMARK  status: ('A' for Active; 'I' for Inactive)
REMARK    1  A    between atoms: C_2  and  O_3 
REMARK    2  A    between atoms: O_3  and  C_4 
REMARK    3  A    between atoms: C_5  and  C_6 
REMARK    4  A    between atoms: C_6  and  N_7 
REMARK    5  A    between atoms: C_9  and  C_10 
REMARK    6  A    between atoms: C_10  and  C_11 
REMARK       I    between atoms: C_11  and  N_12 
REMARK    7  A    between atoms: N_12  and  C_13 
REMARK    8  A    between atoms: C_13  and  C_14 
ROOT
HETATM    1  N   UNL     1      -5.687   3.031 -32.190  1.00  0.00    -0.052 N 
HETATM    2  H   UNL     1      -4.807   2.577 -31.921  1.00  0.00     0.281 HD
HETATM    3  C   UNL     1      -5.550   4.551 -31.844  1.00  0.00     0.288 C 
HETATM    4  C   UNL     1      -5.314   4.755 -30.313  1.00  0.00     0.249 C 
HETATM    5  O   UNL     1      -4.615   5.647 -29.841  1.00  0.00    -0.271 OA
HETATM    6  N   UNL     1      -5.977   3.902 -29.467  1.00  0.00    -0.358 N 
HETATM    7  C   UNL     1      -6.436   2.581 -29.850  1.00  0.00     0.150 C 
HETATM    8  C   UNL     1      -6.821   2.463 -31.328  1.00  0.00     0.256 C 
HETATM    9  H   UNL     1      -5.784   4.076 -28.482  1.00  0.00     0.162 HD
ENDROOT
BRANCH   3  10
HETATM   10  C   UNL     1      -4.406   5.221 -32.617  1.00  0.00     0.145 C 
BRANCH  10  11
HETATM   11  C   UNL     1      -3.104   4.588 -32.178  1.00  0.00     0.220 C 
HETATM   12  N   UNL     1      -2.187   5.476 -31.683  1.00  0.00    -0.355 N 
HETATM   13  H   UNL     1      -2.360   6.472 -31.718  1.00  0.00     0.162 HD
HETATM   14  O   UNL     1      -2.930   3.377 -32.251  1.00  0.00    -0.274 OA
BRANCH  12  15
HETATM   15  C   UNL     1      -0.806   5.094 -31.486  1.00  0.00     0.179 C 
BRANCH  15  16
HETATM   16  C   UNL     1      -0.309   5.895 -30.338  1.00  0.00     0.028 A 
HETATM   17  N   UNL     1      -0.544   5.523 -29.034  1.00  0.00    -0.357 N 
HETATM   18  H   UNL     1      -1.044   4.689 -28.744  1.00  0.00     0.166 HD
HETATM   19  C   UNL     1       0.055   6.408 -28.165  1.00  0.00     0.043 A 
HETATM   20  C   UNL     1       0.669   7.392 -28.941  1.00  0.00    -0.005 A 
HETATM   21  C   UNL     1       0.096   6.408 -26.765  1.00  0.00     0.033 A 
HETATM   22  C   UNL     1       0.427   7.064 -30.303  1.00  0.00     0.040 A 
HETATM   23  C   UNL     1       1.358   8.434 -28.295  1.00  0.00     0.056 A 
HETATM   24  C   UNL     1       1.404   8.440 -26.901  1.00  0.00     0.117 A 
HETATM   25  C   UNL     1       0.788   7.451 -26.144  1.00  0.00     0.044 A 
HETATM   26  F   UNL     1       2.063   9.426 -26.276  1.00  0.00    -0.206 F 
ENDBRANCH  15  16
ENDBRANCH  12  15
ENDBRANCH  10  11
ENDBRANCH   3  10
BRANCH   1  27
HETATM   27  C   UNL     1      -5.923   2.763 -33.667  1.00  0.00     0.277 C 
BRANCH  27  28
HETATM   28  C   UNL     1      -6.305   1.350 -34.048  1.00  0.00     0.001 A 
HETATM   29  C   UNL     1      -5.491   0.284 -33.612  1.00  0.00     0.076 A 
HETATM   30  C   UNL     1      -5.814  -1.031 -33.956  1.00  0.00     0.037 A 
HETATM   31  C   UNL     1      -6.970  -1.302 -34.686  1.00  0.00     0.003 A 
HETATM   32  C   UNL     1      -7.816  -0.265 -35.063  1.00  0.00     0.001 A 
HETATM   33  C   UNL     1      -7.495   1.053 -34.737  1.00  0.00     0.012 A 
BRANCH  29  34
HETATM   34  O   UNL     1      -4.402   0.638 -32.860  1.00  0.00    -0.351 OA
BRANCH  34  35
HETATM   35  C   UNL     1      -4.113  -0.177 -31.718  1.00  0.00     0.171 C 
HETATM   36  C   UNL     1      -2.750  -0.811 -31.933  1.00  0.00     0.034 C 
ENDBRANCH  34  35
ENDBRANCH  29  34
ENDBRANCH  27  28
ENDBRANCH   1  27
TORSDOF 8
ENDMDL
MODEL 9
REMARK VINA RESULT:      -8.0      4.907      8.620
REMARK  8 active torsions:
REMARK  status: ('A' for Active; 'I' for Inactive)
REMARK    1  A    between atoms: C_2  and  O_3 
REMARK    2  A    between atoms: O_3  and  C_4 
REMARK    3  A    between atoms: C_5  and  C_6 
REMARK    4  A    between atoms: C_6  and  N_7 
REMARK    5  A    between atoms: C_9  and  C_10 
REMARK    6  A    between atoms: C_10  and  C_11 
REMARK       I    between atoms: C_11  and  N_12 
REMARK    7  A    between atoms: N_12  and  C_13 
REMARK    8  A    between atoms: C_13  and  C_14 
ROOT
HETATM    1  N   UNL     1      -1.544   6.075 -31.699  1.00  0.00    -0.052 N 
HETATM    2  H   UNL     1      -0.639   5.775 -32.078  1.00  0.00     0.281 HD
HETATM    3  C   UNL     1      -2.653   5.275 -32.462  1.00  0.00     0.288 C 
HETATM    4  C   UNL     1      -2.609   5.584 -33.993  1.00  0.00     0.249 C 
HETATM    5  O   UNL     1      -2.873   4.761 -34.865  1.00  0.00    -0.271 OA
HETATM    6  N   UNL     1      -2.299   6.871 -34.355  1.00  0.00    -0.358 N 
HETATM    7  C   UNL     1      -1.546   7.785 -33.520  1.00  0.00     0.150 C 
HETATM    8  C   UNL     1      -1.746   7.561 -32.017  1.00  0.00     0.256 C 
HETATM    9  H   UNL     1      -2.280   7.015 -35.363  1.00  0.00     0.162 HD
ENDROOT
BRANCH   3  10
HETATM   10  C   UNL     1      -2.522   3.760 -32.256  1.00  0.00     0.145 C 
BRANCH  10  11
HETATM   11  C   UNL     1      -3.867   3.226 -31.816  1.00  0.00     0.220 C 
HETATM   12  N   UNL     1      -4.351   2.211 -32.597  1.00  0.00    -0.355 N 
HETATM   13  H   UNL     1      -3.871   1.937 -33.445  1.00  0.00     0.162 HD
HETATM   14  O   UNL     1      -4.436   3.671 -30.826  1.00  0.00    -0.274 OA
BRANCH  12  15
HETATM   15  C   UNL     1      -5.728   1.780 -32.499  1.00  0.00     0.179 C 
BRANCH  15  16
HETATM   16  C   UNL     1      -5.787   0.421 -33.097  1.00  0.00     0.028 A 
HETATM   17  N   UNL     1      -4.674  -0.384 -33.187  1.00  0.00    -0.357 N 
HETATM   18  H   UNL     1      -3.748  -0.143 -32.851  1.00  0.00     0.166 HD
HETATM   19  C   UNL     1      -5.005  -1.601 -33.741  1.00  0.00     0.043 A 
HETATM   20  C   UNL     1      -6.367  -1.561 -34.038  1.00  0.00    -0.005 A 
HETATM   21  C   UNL     1      -4.204  -2.722 -33.996  1.00  0.00     0.033 A 
HETATM   22  C   UNL     1      -6.846  -0.283 -33.636  1.00  0.00     0.040 A 
HETATM   23  C   UNL     1      -6.969  -2.688 -34.624  1.00  0.00     0.056 A 
HETATM   24  C   UNL     1      -6.178  -3.809 -34.880  1.00  0.00     0.117 A 
HETATM   25  C   UNL     1      -4.822  -3.833 -34.575  1.00  0.00     0.044 A 
HETATM   26  F   UNL     1      -6.743  -4.891 -35.432  1.00  0.00    -0.206 F 
ENDBRANCH  15  16
ENDBRANCH  12  15
ENDBRANCH  10  11
ENDBRANCH   3  10
BRANCH   1  27
HETATM   27  C   UNL     1      -1.535   5.822 -30.201  1.00  0.00     0.277 C 
BRANCH  27  28
HETATM   28  C   UNL     1      -0.917   6.897 -29.335  1.00  0.00     0.001 A 
HETATM   29  C   UNL     1      -1.760   7.697 -28.538  1.00  0.00     0.076 A 
HETATM   30  C   UNL     1      -1.218   8.704 -27.734  1.00  0.00     0.037 A 
HETATM   31  C   UNL     1       0.163   8.887 -27.675  1.00  0.00     0.003 A 
HETATM   32  C   UNL     1       1.008   8.060 -28.405  1.00  0.00     0.001 A 
HETATM   33  C   UNL     1       0.476   7.061 -29.221  1.00  0.00     0.012 A 
BRANCH  29  34
HETATM   34  O   UNL     1      -3.099   7.416 -28.622  1.00  0.00    -0.351 OA
BRANCH  34  35
HETATM   35  C   UNL     1      -3.932   7.927 -27.575  1.00  0.00     0.171 C 
HETATM   36  C   UNL     1      -4.458   6.745 -26.781  1.00  0.00     0.034 C 
ENDBRANCH  34  35
ENDBRANCH  29  34
ENDBRANCH  27  28
ENDBRANCH   1  27
TORSDOF 8
ENDMDL
MODEL 10
REMARK VINA RESULT:      -8.0      3.018      7.148
REMARK  8 active torsions:
REMARK  status: ('A' for Active; 'I' for Inactive)
REMARK    1  A    between atoms: C_2  and  O_3 
REMARK    2  A    between atoms: O_3  and  C_4 
REMARK    3  A    between atoms: C_5  and  C_6 
REMARK    4  A    between atoms: C_6  and  N_7 
REMARK    5  A    between atoms: C_9  and  C_10 
REMARK    6  A    between atoms: C_10  and  C_11 
REMARK       I    between atoms: C_11  and  N_12 
REMARK    7  A    between atoms: N_12  and  C_13 
REMARK    8  A    between atoms: C_13  and  C_14 
ROOT
HETATM    1  N   UNL     1      -3.889   5.053 -33.736  1.00  0.00    -0.052 N 
HETATM    2  H   UNL     1      -4.003   5.970 -33.288  1.00  0.00     0.281 HD
HETATM    3  C   UNL     1      -3.102   4.144 -32.734  1.00  0.00     0.288 C 
HETATM    4  C   UNL     1      -1.693   4.744 -32.427  1.00  0.00     0.249 C 
HETATM    5  O   UNL     1      -1.133   4.651 -31.338  1.00  0.00    -0.271 OA
HETATM    6  N   UNL     1      -1.045   5.365 -33.465  1.00  0.00    -0.358 N 
HETATM    7  C   UNL     1      -1.723   5.940 -34.610  1.00  0.00     0.150 C 
HETATM    8  C   UNL     1      -3.020   5.218 -34.989  1.00  0.00     0.256 C 
HETATM    9  H   UNL     1      -0.135   5.741 -33.208  1.00  0.00     0.162 HD
ENDROOT
BRANCH   3  10
HETATM   10  C   UNL     1      -3.858   3.945 -31.414  1.00  0.00     0.145 C 
BRANCH  10  11
HETATM   11  C   UNL     1      -3.953   2.460 -31.143  1.00  0.00     0.220 C 
HETATM   12  N   UNL     1      -5.216   2.021 -30.851  1.00  0.00    -0.355 N 
HETATM   13  H   UNL     1      -5.977   2.678 -30.735  1.00  0.00     0.162 HD
HETATM   14  O   UNL     1      -2.966   1.736 -31.212  1.00  0.00    -0.274 OA
BRANCH  12  15
HETATM   15  C   UNL     1      -5.443   0.706 -30.294  1.00  0.00     0.179 C 
BRANCH  15  16
HETATM   16  C   UNL     1      -5.419  -0.244 -31.436  1.00  0.00     0.028 A 
HETATM   17  N   UNL     1      -4.335  -1.055 -31.686  1.00  0.00    -0.357 N 
HETATM   18  H   UNL     1      -3.491  -1.093 -31.126  1.00  0.00     0.166 HD
HETATM   19  C   UNL     1      -4.581  -1.865 -32.773  1.00  0.00     0.043 A 
HETATM   20  C   UNL     1      -5.852  -1.541 -33.248  1.00  0.00    -0.005 A 
HETATM   21  C   UNL     1      -3.778  -2.850 -33.362  1.00  0.00     0.033 A 
HETATM   22  C   UNL     1      -6.365  -0.516 -32.406  1.00  0.00     0.040 A 
HETATM   23  C   UNL     1      -6.354  -2.225 -34.369  1.00  0.00     0.056 A 
HETATM   24  C   UNL     1      -5.560  -3.209 -34.960  1.00  0.00     0.117 A 
HETATM   25  C   UNL     1      -4.297  -3.520 -34.472  1.00  0.00     0.044 A 
HETATM   26  F   UNL     1      -6.031  -3.871 -36.025  1.00  0.00    -0.206 F 
ENDBRANCH  15  16
ENDBRANCH  12  15
ENDBRANCH  10  11
ENDBRANCH   3  10
BRANCH   1  27
HETATM   27  C   UNL     1      -5.270   4.522 -34.082  1.00  0.00     0.277 C 
BRANCH  27  28
HETATM   28  C   UNL     1      -6.443   5.186 -33.397  1.00  0.00     0.001 A 
HETATM   29  C   UNL     1      -7.663   4.484 -33.304  1.00  0.00     0.076 A 
HETATM   30  C   UNL     1      -8.768   5.075 -32.685  1.00  0.00     0.037 A 
HETATM   31  C   UNL     1      -8.655   6.339 -32.108  1.00  0.00     0.003 A 
HETATM   32  C   UNL     1      -7.439   7.013 -32.134  1.00  0.00     0.001 A 
HETATM   33  C   UNL     1      -6.335   6.437 -32.763  1.00  0.00     0.012 A 
BRANCH  29  34
HETATM   34  O   UNL     1      -7.670   3.229 -33.855  1.00  0.00    -0.351 OA
BRANCH  34  35
HETATM   35  C   UNL     1      -8.896   2.494 -33.774  1.00  0.00     0.171 C 
HETATM   36  C   UNL     1      -8.716   1.201 -34.548  1.00  0.00     0.034 C 
ENDBRANCH  34  35
ENDBRANCH  29  34
ENDBRANCH  27  28
ENDBRANCH   1  27
TORSDOF 8
ENDMDL
