MODEL 1
REMARK VINA RESULT:      -8.6      0.000      0.000
REMARK  6 active torsions:
REMARK  status: ('A' for Active; 'I' for Inactive)
REMARK    1  A    between atoms: C_4  and  C_5 
REMARK    2  A    between atoms: C_5  and  N_6 
REMARK       I    between atoms: N_6  and  C_7 
REMARK    3  A    between atoms: C_7  and  C_8 
REMARK    4  A    between atoms: C_12  and  C_13 
REMARK    5  A    between atoms: C_13  and  O_14 
REMARK    6  A    between atoms: O_14  and  C_15 
ROOT
HETATM    1  C   UNL     1      -4.575   5.301 -34.159  1.00  0.00     0.146 A 
HETATM    2  N   UNL     1      -3.798   5.319 -35.262  1.00  0.00    -0.169 NA
HETATM    3  N   UNL     1      -2.735   6.062 -34.904  1.00  0.00    -0.279 N 
HETATM    4  H   UNL     1      -1.984   6.185 -35.577  1.00  0.00     0.189 HD
HETATM    5  C   UNL     1      -2.820   6.575 -33.641  1.00  0.00     0.054 A 
HETATM    6  C   UNL     1      -3.992   6.073 -33.121  1.00  0.00     0.068 A 
ENDROOT
BRANCH   1   7
HETATM    7  C   UNL     1      -5.850   4.572 -34.090  1.00  0.00     0.272 C 
HETATM    8  N   UNL     1      -5.721   3.209 -34.012  1.00  0.00    -0.350 N 
HETATM    9  H   UNL     1      -4.787   2.807 -33.985  1.00  0.00     0.163 HD
HETATM   10  O   UNL     1      -6.940   5.141 -34.107  1.00  0.00    -0.266 OA
BRANCH   8  11
HETATM   11  C   UNL     1      -6.862   2.339 -33.895  1.00  0.00     0.182 C 
BRANCH  11  12
HETATM   12  C   UNL     1      -6.516   0.875 -34.048  1.00  0.00     0.052 A 
HETATM   13  N   UNL     1      -5.409   0.401 -33.414  1.00  0.00    -0.257 NA
HETATM   14  C   UNL     1      -5.108  -0.913 -33.558  1.00  0.00     0.031 A 
HETATM   15  C   UNL     1      -3.876  -1.415 -32.864  1.00  0.00     0.070 C 
HETATM   16  C   UNL     1      -5.884  -1.782 -34.315  1.00  0.00     0.027 A 
HETATM   17  C   UNL     1      -7.017  -1.288 -34.951  1.00  0.00     0.004 A 
HETATM   18  C   UNL     1      -7.340   0.057 -34.817  1.00  0.00     0.029 A 
ENDBRANCH  11  12
ENDBRANCH   8  11
ENDBRANCH   1   7
BRANCH   5  19
HETATM   19  C   UNL     1      -1.788   7.474 -33.070  1.00  0.00     0.234 C 
BRANCH  19  20
HETATM   20  O   UNL     1      -0.643   6.664 -32.818  1.00  0.00    -0.345 OA
BRANCH  20  21
HETATM   21  C   UNL     1      -0.366   6.392 -31.504  1.00  0.00     0.072 A 
HETATM   22  C   UNL     1      -0.919   7.297 -30.591  1.00  0.00     0.076 A 
HETATM   23  C   UNL     1      -0.681   7.095 -29.248  1.00  0.00     0.107 A 
HETATM   24  C   UNL     1       0.069   6.034 -28.799  1.00  0.00     0.105 A 
HETATM   25  O   UNL     1      -1.130   7.879 -28.231  1.00  0.00    -0.323 OA
HETATM   26  O   UNL     1       0.186   6.017 -27.445  1.00  0.00    -0.323 OA
HETATM   27  C   UNL     1       0.617   5.118 -29.668  1.00  0.00     0.042 A 
HETATM   28  C   UNL     1      -0.569   7.194 -27.092  1.00  0.00     0.352 A 
HETATM   29  C   UNL     1       0.392   5.300 -31.038  1.00  0.00     0.039 A 
ENDBRANCH  20  21
ENDBRANCH  19  20
ENDBRANCH   5  19
TORSDOF 6
ENDMDL
MODEL 2
REMARK VINA RESULT:      -8.4      3.754      9.770
REMARK  6 active torsions:
REMARK  status: ('A' for Active; 'I' for Inactive)
REMARK    1  A    between atoms: C_4  and  C_5 
REMARK    2  A    between atoms: C_5  and  N_6 
REMARK       I    between atoms: N_6  and  C_7 
REMARK    3  A    between atoms: C_7  and  C_8 
REMARK    4  A    between atoms: C_12  and  C_13 
REMARK    5  A    between atoms: C_13  and  O_14 
REMARK    6  A    between atoms: O_14  and  C_15 
ROOT
HETATM    1  C   UNL     1      -3.403   3.596 -32.462  1.00  0.00     0.146 A 
HETATM    2  N   UNL     1      -4.580   4.183 -32.764  1.00  0.00    -0.169 NA
HETATM    3  N   UNL     1      -5.468   3.173 -32.738  1.00  0.00    -0.279 N 
HETATM    4  H   UNL     1      -6.447   3.388 -32.901  1.00  0.00     0.189 HD
HETATM    5  C   UNL     1      -4.908   1.951 -32.493  1.00  0.00     0.054 A 
HETATM    6  C   UNL     1      -3.570   2.198 -32.281  1.00  0.00     0.068 A 
ENDROOT
BRANCH   1   7
HETATM    7  C   UNL     1      -2.140   4.342 -32.355  1.00  0.00     0.272 C 
HETATM    8  N   UNL     1      -1.695   4.521 -31.071  1.00  0.00    -0.350 N 
HETATM    9  H   UNL     1      -2.234   4.122 -30.306  1.00  0.00     0.163 HD
HETATM   10  O   UNL     1      -1.540   4.773 -33.337  1.00  0.00    -0.266 OA
BRANCH   8  11
HETATM   11  C   UNL     1      -0.455   5.191 -30.779  1.00  0.00     0.182 C 
BRANCH  11  12
HETATM   12  C   UNL     1      -0.629   6.422 -29.916  1.00  0.00     0.052 A 
HETATM   13  N   UNL     1       0.457   6.915 -29.261  1.00  0.00    -0.257 NA
HETATM   14  C   UNL     1       0.290   8.017 -28.492  1.00  0.00     0.031 A 
HETATM   15  C   UNL     1       1.494   8.538 -27.766  1.00  0.00     0.070 C 
HETATM   16  C   UNL     1      -0.937   8.658 -28.356  1.00  0.00     0.027 A 
HETATM   17  C   UNL     1      -2.038   8.151 -29.036  1.00  0.00     0.004 A 
HETATM   18  C   UNL     1      -1.885   7.019 -29.828  1.00  0.00     0.029 A 
ENDBRANCH  11  12
ENDBRANCH   8  11
ENDBRANCH   1   7
BRANCH   5  19
HETATM   19  C   UNL     1      -5.698   0.696 -32.485  1.00  0.00     0.234 C 
BRANCH  19  20
HETATM   20  O   UNL     1      -5.813   0.283 -33.843  1.00  0.00    -0.345 OA
BRANCH  20  21
HETATM   21  C   UNL     1      -5.804  -1.068 -34.072  1.00  0.00     0.072 A 
HETATM   22  C   UNL     1      -4.636  -1.722 -33.665  1.00  0.00     0.076 A 
HETATM   23  C   UNL     1      -4.546  -3.082 -33.868  1.00  0.00     0.107 A 
HETATM   24  C   UNL     1      -5.570  -3.796 -34.444  1.00  0.00     0.105 A 
HETATM   25  O   UNL     1      -3.485  -3.870 -33.544  1.00  0.00    -0.323 OA
HETATM   26  O   UNL     1      -5.283  -5.120 -34.555  1.00  0.00    -0.323 OA
HETATM   27  C   UNL     1      -6.738  -3.187 -34.845  1.00  0.00     0.042 A 
HETATM   28  C   UNL     1      -3.956  -5.158 -33.990  1.00  0.00     0.352 A 
HETATM   29  C   UNL     1      -6.855  -1.805 -34.653  1.00  0.00     0.039 A 
ENDBRANCH  20  21
ENDBRANCH  19  20
ENDBRANCH   5  19
TORSDOF 6
ENDMDL
MODEL 3
REMARK VINA RESULT:      -8.4      3.154      9.039
REMARK  6 active torsions:
REMARK  status: ('A' for Active; 'I' for Inactive)
REMARK    1  A    between atoms: C_4  and  C_5 
REMARK    2  A    between atoms: C_5  and  N_6 
REMARK       I    between atoms: N_6  and  C_7 
REMARK    3  A    between atoms: C_7  and  C_8 
REMARK    4  A    between atoms: C_12  and  C_13 
REMARK    5  A    between atoms: C_13  and  O_14 
REMARK    6  A    between atoms: O_14  and  C_15 
ROOT
HETATM    1  C   UNL     1      -4.980   4.352 -33.756  1.00  0.00     0.146 A 
HETATM    2  N   UNL     1      -6.177   4.753 -34.231  1.00  0.00    -0.169 NA
HETATM    3  N   UNL     1      -7.016   3.758 -33.895  1.00  0.00    -0.279 N 
HETATM    4  H   UNL     1      -8.000   3.859 -34.122  1.00  0.00     0.189 HD
HETATM    5  C   UNL     1      -6.404   2.704 -33.278  1.00  0.00     0.054 A 
HETATM    6  C   UNL     1      -5.084   3.074 -33.147  1.00  0.00     0.068 A 
ENDROOT
BRANCH   1   7
HETATM    7  C   UNL     1      -3.757   5.159 -33.881  1.00  0.00     0.272 C 
HETATM    8  N   UNL     1      -2.604   4.495 -33.551  1.00  0.00    -0.350 N 
HETATM    9  H   UNL     1      -2.664   3.519 -33.274  1.00  0.00     0.163 HD
HETATM   10  O   UNL     1      -3.772   6.333 -34.245  1.00  0.00    -0.266 OA
BRANCH   8  11
HETATM   11  C   UNL     1      -1.309   5.117 -33.654  1.00  0.00     0.182 C 
BRANCH  11  12
HETATM   12  C   UNL     1      -0.829   5.719 -32.352  1.00  0.00     0.052 A 
HETATM   13  N   UNL     1      -0.115   4.936 -31.499  1.00  0.00    -0.257 NA
HETATM   14  C   UNL     1       0.310   5.486 -30.336  1.00  0.00     0.031 A 
HETATM   15  C   UNL     1       1.083   4.604 -29.401  1.00  0.00     0.070 C 
HETATM   16  C   UNL     1       0.049   6.807 -29.992  1.00  0.00     0.027 A 
HETATM   17  C   UNL     1      -0.674   7.600 -30.875  1.00  0.00     0.004 A 
HETATM   18  C   UNL     1      -1.120   7.052 -32.072  1.00  0.00     0.029 A 
ENDBRANCH  11  12
ENDBRANCH   8  11
ENDBRANCH   1   7
BRANCH   5  19
HETATM   19  C   UNL     1      -7.132   1.474 -32.881  1.00  0.00     0.234 C 
BRANCH  19  20
HETATM   20  O   UNL     1      -7.225   0.665 -34.050  1.00  0.00    -0.345 OA
BRANCH  20  21
HETATM   21  C   UNL     1      -6.445  -0.460 -34.077  1.00  0.00     0.072 A 
HETATM   22  C   UNL     1      -7.077  -1.596 -34.596  1.00  0.00     0.076 A 
HETATM   23  C   UNL     1      -6.360  -2.772 -34.651  1.00  0.00     0.107 A 
HETATM   24  C   UNL     1      -5.056  -2.845 -34.221  1.00  0.00     0.105 A 
HETATM   25  O   UNL     1      -6.819  -3.966 -35.114  1.00  0.00    -0.323 OA
HETATM   26  O   UNL     1      -4.532  -4.091 -34.359  1.00  0.00    -0.323 OA
HETATM   27  C   UNL     1      -4.400  -1.745 -33.717  1.00  0.00     0.042 A 
HETATM   28  C   UNL     1      -5.658  -4.799 -34.918  1.00  0.00     0.352 A 
HETATM   29  C   UNL     1      -5.105  -0.537 -33.647  1.00  0.00     0.039 A 
ENDBRANCH  20  21
ENDBRANCH  19  20
ENDBRANCH   5  19
TORSDOF 6
ENDMDL
MODEL 4
REMARK VINA RESULT:      -8.3      6.469      9.879
REMARK  6 active torsions:
REMARK  status: ('A' for Active; 'I' for Inactive)
REMARK    1  A    between atoms: C_4  and  C_5 
REMARK    2  A    between atoms: C_5  and  N_6 
REMARK       I    between atoms: N_6  and  C_7 
REMARK    3  A    between atoms: C_7  and  C_8 
REMARK    4  A    between atoms: C_12  and  C_13 
REMARK    5  A    between atoms: C_13  and  O_14 
REMARK    6  A    between atoms: O_14  and  C_15 
ROOT
HETATM    1  C   UNL     1      -7.737   1.140 -31.773  1.00  0.00     0.146 A 
HETATM    2  N   UNL     1      -8.824   0.616 -31.172  1.00  0.00    -0.169 NA
HETATM    3  N   UNL     1      -9.705   1.632 -31.140  1.00  0.00    -0.279 N 
HETATM    4  H   UNL     1     -10.629   1.457 -30.758  1.00  0.00     0.189 HD
HETATM    5  C   UNL     1      -9.214   2.805 -31.639  1.00  0.00     0.054 A 
HETATM    6  C   UNL     1      -7.945   2.509 -32.085  1.00  0.00     0.068 A 
ENDROOT
BRANCH   1   7
HETATM    7  C   UNL     1      -6.518   0.363 -32.043  1.00  0.00     0.272 C 
HETATM    8  N   UNL     1      -6.207   0.238 -33.372  1.00  0.00    -0.350 N 
HETATM    9  H   UNL     1      -6.804   0.692 -34.059  1.00  0.00     0.163 HD
HETATM   10  O   UNL     1      -5.839  -0.136 -31.147  1.00  0.00    -0.266 OA
BRANCH   8  11
HETATM   11  C   UNL     1      -5.026  -0.454 -33.819  1.00  0.00     0.182 C 
BRANCH  11  12
HETATM   12  C   UNL     1      -5.269  -1.915 -34.126  1.00  0.00     0.052 A 
HETATM   13  N   UNL     1      -4.263  -2.803 -33.896  1.00  0.00    -0.257 NA
HETATM   14  C   UNL     1      -4.492  -4.109 -34.174  1.00  0.00     0.031 A 
HETATM   15  C   UNL     1      -3.368  -5.071 -33.929  1.00  0.00     0.070 C 
HETATM   16  C   UNL     1      -5.705  -4.568 -34.675  1.00  0.00     0.027 A 
HETATM   17  C   UNL     1      -6.728  -3.654 -34.898  1.00  0.00     0.004 A 
HETATM   18  C   UNL     1      -6.510  -2.309 -34.620  1.00  0.00     0.029 A 
ENDBRANCH  11  12
ENDBRANCH   8  11
ENDBRANCH   1   7
BRANCH   5  19
HETATM   19  C   UNL     1      -9.996   4.065 -31.640  1.00  0.00     0.234 C 
BRANCH  19  20
HETATM   20  O   UNL     1     -10.737   4.079 -32.856  1.00  0.00    -0.345 OA
BRANCH  20  21
HETATM   21  C   UNL     1     -11.978   3.498 -32.821  1.00  0.00     0.072 A 
HETATM   22  C   UNL     1     -12.222   2.580 -33.848  1.00  0.00     0.076 A 
HETATM   23  C   UNL     1     -13.451   1.957 -33.886  1.00  0.00     0.107 A 
HETATM   24  C   UNL     1     -14.419   2.211 -32.945  1.00  0.00     0.105 A 
HETATM   25  O   UNL     1     -13.857   1.050 -34.815  1.00  0.00    -0.323 OA
HETATM   26  O   UNL     1     -15.556   1.498 -33.162  1.00  0.00    -0.323 OA
HETATM   27  C   UNL     1     -14.209   3.099 -31.914  1.00  0.00     0.042 A 
HETATM   28  C   UNL     1     -15.196   0.770 -34.354  1.00  0.00     0.352 A 
HETATM   29  C   UNL     1     -12.969   3.748 -31.852  1.00  0.00     0.039 A 
ENDBRANCH  20  21
ENDBRANCH  19  20
ENDBRANCH   5  19
TORSDOF 6
ENDMDL
MODEL 5
REMARK VINA RESULT:      -8.3      2.319      3.534
REMARK  6 active torsions:
REMARK  status: ('A' for Active; 'I' for Inactive)
REMARK    1  A    between atoms: C_4  and  C_5 
REMARK    2  A    between atoms: C_5  and  N_6 
REMARK       I    between atoms: N_6  and  C_7 
REMARK    3  A    between atoms: C_7  and  C_8 
REMARK    4  A    between atoms: C_12  and  C_13 
REMARK    5  A    between atoms: C_13  and  O_14 
REMARK    6  A    between atoms: O_14  and  C_15 
ROOT
HETATM    1  C   UNL     1      -7.676   3.514 -33.656  1.00  0.00     0.146 A 
HETATM    2  N   UNL     1      -8.285   4.618 -34.136  1.00  0.00    -0.169 NA
HETATM    3  N   UNL     1      -7.445   5.620 -33.822  1.00  0.00    -0.279 N 
HETATM    4  H   UNL     1      -7.683   6.561 -34.122  1.00  0.00     0.189 HD
HETATM    5  C   UNL     1      -6.351   5.221 -33.108  1.00  0.00     0.054 A 
HETATM    6  C   UNL     1      -6.459   3.852 -33.009  1.00  0.00     0.068 A 
ENDROOT
BRANCH   1   7
HETATM    7  C   UNL     1      -8.238   2.163 -33.800  1.00  0.00     0.272 C 
HETATM    8  N   UNL     1      -7.465   1.166 -33.264  1.00  0.00    -0.350 N 
HETATM    9  H   UNL     1      -6.596   1.419 -32.799  1.00  0.00     0.163 HD
HETATM   10  O   UNL     1      -9.311   1.948 -34.361  1.00  0.00    -0.266 OA
BRANCH   8  11
HETATM   11  C   UNL     1      -7.879  -0.213 -33.276  1.00  0.00     0.182 C 
BRANCH  11  12
HETATM   12  C   UNL     1      -6.771  -1.166 -33.666  1.00  0.00     0.052 A 
HETATM   13  N   UNL     1      -7.104  -2.325 -34.297  1.00  0.00    -0.257 NA
HETATM   14  C   UNL     1      -6.104  -3.171 -34.642  1.00  0.00     0.031 A 
HETATM   15  C   UNL     1      -6.491  -4.450 -35.324  1.00  0.00     0.070 C 
HETATM   16  C   UNL     1      -4.766  -2.897 -34.383  1.00  0.00     0.027 A 
HETATM   17  C   UNL     1      -4.437  -1.707 -33.745  1.00  0.00     0.004 A 
HETATM   18  C   UNL     1      -5.450  -0.827 -33.382  1.00  0.00     0.029 A 
ENDBRANCH  11  12
ENDBRANCH   8  11
ENDBRANCH   1   7
BRANCH   5  19
HETATM   19  C   UNL     1      -5.332   6.173 -32.604  1.00  0.00     0.234 C 
BRANCH  19  20
HETATM   20  O   UNL     1      -4.255   6.140 -33.535  1.00  0.00    -0.345 OA
BRANCH  20  21
HETATM   21  C   UNL     1      -2.996   6.301 -33.018  1.00  0.00     0.072 A 
HETATM   22  C   UNL     1      -2.581   5.275 -32.162  1.00  0.00     0.076 A 
HETATM   23  C   UNL     1      -1.328   5.366 -31.595  1.00  0.00     0.107 A 
HETATM   24  C   UNL     1      -0.491   6.424 -31.859  1.00  0.00     0.105 A 
HETATM   25  O   UNL     1      -0.772   4.468 -30.738  1.00  0.00    -0.323 OA
HETATM   26  O   UNL     1       0.695   6.326 -31.202  1.00  0.00    -0.323 OA
HETATM   27  C   UNL     1      -0.862   7.444 -32.706  1.00  0.00     0.042 A 
HETATM   28  C   UNL     1       0.506   5.088 -30.486  1.00  0.00     0.352 A 
HETATM   29  C   UNL     1      -2.131   7.378 -33.294  1.00  0.00     0.039 A 
ENDBRANCH  20  21
ENDBRANCH  19  20
ENDBRANCH   5  19
TORSDOF 6
ENDMDL
MODEL 6
REMARK VINA RESULT:      -8.3      3.317      9.316
REMARK  6 active torsions:
REMARK  status: ('A' for Active; 'I' for Inactive)
REMARK    1  A    between atoms: C_4  and  C_5 
REMARK    2  A    between atoms: C_5  and  N_6 
REMARK       I    between atoms: N_6  and  C_7 
REMARK    3  A    between atoms: C_7  and  C_8 
REMARK    4  A    between atoms: C_12  and  C_13 
REMARK    5  A    between atoms: C_13  and  O_14 
REMARK    6  A    between atoms: O_14  and  C_15 
ROOT
HETATM    1  C   UNL     1      -4.496   4.805 -33.638  1.00  0.00     0.146 A 
HETATM    2  N   UNL     1      -5.557   4.673 -34.461  1.00  0.00    -0.169 NA
HETATM    3  N   UNL     1      -6.104   3.496 -34.107  1.00  0.00    -0.279 N 
HETATM    4  H   UNL     1      -6.954   3.199 -34.576  1.00  0.00     0.189 HD
HETATM    5  C   UNL     1      -5.408   2.834 -33.136  1.00  0.00     0.054 A 
HETATM    6  C   UNL     1      -4.374   3.674 -32.790  1.00  0.00     0.068 A 
ENDROOT
BRANCH   1   7
HETATM    7  C   UNL     1      -3.609   5.978 -33.658  1.00  0.00     0.272 C 
HETATM    8  N   UNL     1      -3.537   6.655 -32.468  1.00  0.00    -0.350 N 
HETATM    9  H   UNL     1      -4.064   6.303 -31.673  1.00  0.00     0.163 HD
HETATM   10  O   UNL     1      -2.988   6.322 -34.662  1.00  0.00    -0.266 OA
BRANCH   8  11
HETATM   11  C   UNL     1      -2.684   7.802 -32.292  1.00  0.00     0.182 C 
BRANCH  11  12
HETATM   12  C   UNL     1      -1.534   7.552 -31.342  1.00  0.00     0.052 A 
HETATM   13  N   UNL     1      -1.624   8.035 -30.073  1.00  0.00    -0.257 NA
HETATM   14  C   UNL     1      -0.588   7.806 -29.230  1.00  0.00     0.031 A 
HETATM   15  C   UNL     1      -0.698   8.357 -27.840  1.00  0.00     0.070 C 
HETATM   16  C   UNL     1       0.546   7.097 -29.611  1.00  0.00     0.027 A 
HETATM   17  C   UNL     1       0.623   6.601 -30.907  1.00  0.00     0.004 A 
HETATM   18  C   UNL     1      -0.429   6.829 -31.786  1.00  0.00     0.029 A 
ENDBRANCH  11  12
ENDBRANCH   8  11
ENDBRANCH   1   7
BRANCH   5  19
HETATM   19  C   UNL     1      -5.801   1.491 -32.645  1.00  0.00     0.234 C 
BRANCH  19  20
HETATM   20  O   UNL     1      -4.798   0.587 -33.099  1.00  0.00    -0.345 OA
BRANCH  20  21
HETATM   21  C   UNL     1      -5.237  -0.608 -33.606  1.00  0.00     0.072 A 
HETATM   22  C   UNL     1      -4.336  -1.669 -33.463  1.00  0.00     0.076 A 
HETATM   23  C   UNL     1      -4.702  -2.904 -33.954  1.00  0.00     0.107 A 
HETATM   24  C   UNL     1      -5.917  -3.109 -34.563  1.00  0.00     0.105 A 
HETATM   25  O   UNL     1      -3.949  -4.036 -33.909  1.00  0.00    -0.323 OA
HETATM   26  O   UNL     1      -6.082  -4.393 -34.977  1.00  0.00    -0.323 OA
HETATM   27  C   UNL     1      -6.832  -2.091 -34.709  1.00  0.00     0.042 A 
HETATM   28  C   UNL     1      -4.826  -4.973 -34.567  1.00  0.00     0.352 A 
HETATM   29  C   UNL     1      -6.486  -0.824 -34.221  1.00  0.00     0.039 A 
ENDBRANCH  20  21
ENDBRANCH  19  20
ENDBRANCH   5  19
TORSDOF 6
ENDMDL
MODEL 7
REMARK VINA RESULT:      -8.2      6.090     10.126
REMARK  6 active torsions:
REMARK  status: ('A' for Active; 'I' for Inactive)
REMARK    1  A    between atoms: C_4  and  C_5 
REMARK    2  A    between atoms: C_5  and  N_6 
REMARK       I    between atoms: N_6  and  C_7 
REMARK    3  A    between atoms: C_7  and  C_8 
REMARK    4  A    between atoms: C_12  and  C_13 
REMARK    5  A    between atoms: C_13  and  O_14 
REMARK    6  A    between atoms: O_14  and  C_15 
ROOT
HETATM    1  C   UNL     1      -6.933   1.356 -32.242  1.00  0.00     0.146 A 
HETATM    2  N   UNL     1      -7.382   1.127 -30.991  1.00  0.00    -0.169 NA
HETATM    3  N   UNL     1      -8.624   1.643 -30.987  1.00  0.00    -0.279 N 
HETATM    4  H   UNL     1      -9.181   1.552 -30.143  1.00  0.00     0.189 HD
HETATM    5  C   UNL     1      -8.974   2.249 -32.160  1.00  0.00     0.054 A 
HETATM    6  C   UNL     1      -7.906   2.053 -33.006  1.00  0.00     0.068 A 
ENDROOT
BRANCH   1   7
HETATM    7  C   UNL     1      -5.605   0.929 -32.708  1.00  0.00     0.272 C 
HETATM    8  N   UNL     1      -5.415  -0.428 -32.714  1.00  0.00    -0.350 N 
HETATM    9  H   UNL     1      -6.183  -1.031 -32.429  1.00  0.00     0.163 HD
HETATM   10  O   UNL     1      -4.737   1.728 -33.056  1.00  0.00    -0.266 OA
BRANCH   8  11
HETATM   11  C   UNL     1      -4.190  -1.026 -33.178  1.00  0.00     0.182 C 
BRANCH  11  12
HETATM   12  C   UNL     1      -4.338  -2.488 -33.538  1.00  0.00     0.052 A 
HETATM   13  N   UNL     1      -5.341  -2.850 -34.385  1.00  0.00    -0.257 NA
HETATM   14  C   UNL     1      -5.464  -4.162 -34.700  1.00  0.00     0.031 A 
HETATM   15  C   UNL     1      -6.583  -4.544 -35.622  1.00  0.00     0.070 C 
HETATM   16  C   UNL     1      -4.608  -5.137 -34.201  1.00  0.00     0.027 A 
HETATM   17  C   UNL     1      -3.582  -4.755 -33.344  1.00  0.00     0.004 A 
HETATM   18  C   UNL     1      -3.442  -3.414 -33.008  1.00  0.00     0.029 A 
ENDBRANCH  11  12
ENDBRANCH   8  11
ENDBRANCH   1   7
BRANCH   5  19
HETATM   19  C   UNL     1     -10.274   2.939 -32.348  1.00  0.00     0.234 C 
BRANCH  19  20
HETATM   20  O   UNL     1     -10.799   2.477 -33.589  1.00  0.00    -0.345 OA
BRANCH  20  21
HETATM   21  C   UNL     1     -12.126   2.135 -33.600  1.00  0.00     0.072 A 
HETATM   22  C   UNL     1     -12.929   2.884 -32.733  1.00  0.00     0.076 A 
HETATM   23  C   UNL     1     -14.276   2.597 -32.681  1.00  0.00     0.107 A 
HETATM   24  C   UNL     1     -14.835   1.611 -33.460  1.00  0.00     0.105 A 
HETATM   25  O   UNL     1     -15.195   3.216 -31.892  1.00  0.00    -0.323 OA
HETATM   26  O   UNL     1     -16.174   1.486 -33.258  1.00  0.00    -0.323 OA
HETATM   27  C   UNL     1     -14.077   0.864 -34.332  1.00  0.00     0.042 A 
HETATM   28  C   UNL     1     -16.394   2.501 -32.257  1.00  0.00     0.352 A 
HETATM   29  C   UNL     1     -12.705   1.133 -34.404  1.00  0.00     0.039 A 
ENDBRANCH  20  21
ENDBRANCH  19  20
ENDBRANCH   5  19
TORSDOF 6
ENDMDL
MODEL 8
REMARK VINA RESULT:      -8.0      5.650      8.763
REMARK  6 active torsions:
REMARK  status: ('A' for Active; 'I' for Inactive)
REMARK    1  A    between atoms: C_4  and  C_5 
REMARK    2  A    between atoms: C_5  and  N_6 
REMARK       I    between atoms: N_6  and  C_7 
REMARK    3  A    between atoms: C_7  and  C_8 
REMARK    4  A    between atoms: C_12  and  C_13 
REMARK    5  A    between atoms: C_13  and  O_14 
REMARK    6  A    between atoms: O_14  and  C_15 
ROOT
HETATM    1  C   UNL     1      -5.163   1.145 -30.809  1.00  0.00     0.146 A 
HETATM    2  N   UNL     1      -5.709   0.983 -29.586  1.00  0.00    -0.169 NA
HETATM    3  N   UNL     1      -6.753   1.831 -29.577  1.00  0.00    -0.279 N 
HETATM    4  H   UNL     1      -7.347   1.856 -28.754  1.00  0.00     0.189 HD
HETATM    5  C   UNL     1      -6.868   2.578 -30.715  1.00  0.00     0.054 A 
HETATM    6  C   UNL     1      -5.865   2.133 -31.547  1.00  0.00     0.068 A 
ENDROOT
BRANCH   1   7
HETATM    7  C   UNL     1      -3.992   0.384 -31.270  1.00  0.00     0.272 C 
HETATM    8  N   UNL     1      -4.286  -0.850 -31.790  1.00  0.00    -0.350 N 
HETATM    9  H   UNL     1      -5.260  -1.139 -31.842  1.00  0.00     0.163 HD
HETATM   10  O   UNL     1      -2.845   0.819 -31.188  1.00  0.00    -0.266 OA
BRANCH   8  11
HETATM   11  C   UNL     1      -3.268  -1.715 -32.327  1.00  0.00     0.182 C 
BRANCH  11  12
HETATM   12  C   UNL     1      -3.828  -2.923 -33.045  1.00  0.00     0.052 A 
HETATM   13  N   UNL     1      -4.881  -2.745 -33.889  1.00  0.00    -0.257 NA
HETATM   14  C   UNL     1      -5.375  -3.834 -34.527  1.00  0.00     0.031 A 
HETATM   15  C   UNL     1      -6.544  -3.622 -35.442  1.00  0.00     0.070 C 
HETATM   16  C   UNL     1      -4.845  -5.108 -34.356  1.00  0.00     0.027 A 
HETATM   17  C   UNL     1      -3.765  -5.276 -33.498  1.00  0.00     0.004 A 
HETATM   18  C   UNL     1      -3.247  -4.171 -32.834  1.00  0.00     0.029 A 
ENDBRANCH  11  12
ENDBRANCH   8  11
ENDBRANCH   1   7
BRANCH   5  19
HETATM   19  C   UNL     1      -7.910   3.619 -30.888  1.00  0.00     0.234 C 
BRANCH  19  20
HETATM   20  O   UNL     1      -9.163   2.975 -30.681  1.00  0.00    -0.345 OA
BRANCH  20  21
HETATM   21  C   UNL     1      -9.795   2.496 -31.799  1.00  0.00     0.072 A 
HETATM   22  C   UNL     1     -10.705   3.386 -32.381  1.00  0.00     0.076 A 
HETATM   23  C   UNL     1     -11.387   2.977 -33.507  1.00  0.00     0.107 A 
HETATM   24  C   UNL     1     -11.185   1.736 -34.062  1.00  0.00     0.105 A 
HETATM   25  O   UNL     1     -12.309   3.706 -34.190  1.00  0.00    -0.323 OA
HETATM   26  O   UNL     1     -11.954   1.528 -35.163  1.00  0.00    -0.323 OA
HETATM   27  C   UNL     1     -10.289   0.840 -33.523  1.00  0.00     0.042 A 
HETATM   28  C   UNL     1     -12.671   2.778 -35.234  1.00  0.00     0.352 A 
HETATM   29  C   UNL     1      -9.584   1.229 -32.377  1.00  0.00     0.039 A 
ENDBRANCH  20  21
ENDBRANCH  19  20
ENDBRANCH   5  19
TORSDOF 6
ENDMDL
MODEL 9
REMARK VINA RESULT:      -7.9      3.693      9.294
REMARK  6 active torsions:
REMARK  status: ('A' for Active; 'I' for Inactive)
REMARK    1  A    between atoms: C_4  and  C_5 
REMARK    2  A    between atoms: C_5  and  N_6 
REMARK       I    between atoms: N_6  and  C_7 
REMARK    3  A    between atoms: C_7  and  C_8 
REMARK    4  A    between atoms: C_12  and  C_13 
REMARK    5  A    between atoms: C_13  and  O_14 
REMARK    6  A    between atoms: O_14  and  C_15 
ROOT
HETATM    1  C   UNL     1      -6.194   3.315 -30.446  1.00  0.00     0.146 A 
HETATM    2  N   UNL     1      -6.396   2.222 -29.681  1.00  0.00    -0.169 NA
HETATM    3  N   UNL     1      -6.919   1.318 -30.529  1.00  0.00    -0.279 N 
HETATM    4  H   UNL     1      -7.122   0.388 -30.177  1.00  0.00     0.189 HD
HETATM    5  C   UNL     1      -7.120   1.798 -31.792  1.00  0.00     0.054 A 
HETATM    6  C   UNL     1      -6.631   3.085 -31.777  1.00  0.00     0.068 A 
ENDROOT
BRANCH   1   7
HETATM    7  C   UNL     1      -5.604   4.558 -29.927  1.00  0.00     0.272 C 
HETATM    8  N   UNL     1      -4.490   4.982 -30.603  1.00  0.00    -0.350 N 
HETATM    9  H   UNL     1      -4.168   4.443 -31.403  1.00  0.00     0.163 HD
HETATM   10  O   UNL     1      -6.071   5.160 -28.962  1.00  0.00    -0.266 OA
BRANCH   8  11
HETATM   11  C   UNL     1      -3.806   6.202 -30.259  1.00  0.00     0.182 C 
BRANCH  11  12
HETATM   12  C   UNL     1      -2.315   6.143 -30.507  1.00  0.00     0.052 A 
HETATM   13  N   UNL     1      -1.492   6.846 -29.683  1.00  0.00    -0.257 NA
HETATM   14  C   UNL     1      -0.158   6.786 -29.915  1.00  0.00     0.031 A 
HETATM   15  C   UNL     1       0.734   7.579 -29.007  1.00  0.00     0.070 C 
HETATM   16  C   UNL     1       0.391   6.034 -30.948  1.00  0.00     0.027 A 
HETATM   17  C   UNL     1      -0.460   5.313 -31.778  1.00  0.00     0.004 A 
HETATM   18  C   UNL     1      -1.831   5.365 -31.556  1.00  0.00     0.029 A 
ENDBRANCH  11  12
ENDBRANCH   8  11
ENDBRANCH   1   7
BRANCH   5  19
HETATM   19  C   UNL     1      -7.745   0.989 -32.866  1.00  0.00     0.234 C 
BRANCH  19  20
HETATM   20  O   UNL     1      -6.771   0.866 -33.898  1.00  0.00    -0.345 OA
BRANCH  20  21
HETATM   21  C   UNL     1      -6.113  -0.333 -33.976  1.00  0.00     0.072 A 
HETATM   22  C   UNL     1      -6.878  -1.387 -34.490  1.00  0.00     0.076 A 
HETATM   23  C   UNL     1      -6.289  -2.629 -34.595  1.00  0.00     0.107 A 
HETATM   24  C   UNL     1      -4.984  -2.844 -34.219  1.00  0.00     0.105 A 
HETATM   25  O   UNL     1      -6.886  -3.759 -35.061  1.00  0.00    -0.323 OA
HETATM   26  O   UNL     1      -4.597  -4.134 -34.400  1.00  0.00    -0.323 OA
HETATM   27  C   UNL     1      -4.199  -1.828 -33.721  1.00  0.00     0.042 A 
HETATM   28  C   UNL     1      -5.810  -4.710 -34.926  1.00  0.00     0.352 A 
HETATM   29  C   UNL     1      -4.773  -0.556 -33.601  1.00  0.00     0.039 A 
ENDBRANCH  20  21
ENDBRANCH  19  20
ENDBRANCH   5  19
TORSDOF 6
ENDMDL
MODEL 10
REMARK VINA RESULT:      -7.9      1.940      2.579
REMARK  6 active torsions:
REMARK  status: ('A' for Active; 'I' for Inactive)
REMARK    1  A    between atoms: C_4  and  C_5 
REMARK    2  A    between atoms: C_5  and  N_6 
REMARK       I    between atoms: N_6  and  C_7 
REMARK    3  A    between atoms: C_7  and  C_8 
REMARK    4  A    between atoms: C_12  and  C_13 
REMARK    5  A    between atoms: C_13  and  O_14 
REMARK    6  A    between atoms: O_14  and  C_15 
ROOT
HETATM    1  C   UNL     1      -3.090   3.795 -32.291  1.00  0.00     0.146 A 
HETATM    2  N   UNL     1      -3.524   4.389 -33.421  1.00  0.00    -0.169 NA
HETATM    3  N   UNL     1      -2.687   5.429 -33.589  1.00  0.00    -0.279 N 
HETATM    4  H   UNL     1      -2.801   6.011 -34.414  1.00  0.00     0.189 HD
HETATM    5  C   UNL     1      -1.772   5.569 -32.585  1.00  0.00     0.054 A 
HETATM    6  C   UNL     1      -1.990   4.504 -31.741  1.00  0.00     0.068 A 
ENDROOT
BRANCH   1   7
HETATM    7  C   UNL     1      -3.708   2.583 -31.735  1.00  0.00     0.272 C 
HETATM    8  N   UNL     1      -3.396   1.428 -32.405  1.00  0.00    -0.350 N 
HETATM    9  H   UNL     1      -2.762   1.480 -33.199  1.00  0.00     0.163 HD
HETATM   10  O   UNL     1      -4.449   2.607 -30.754  1.00  0.00    -0.266 OA
BRANCH   8  11
HETATM   11  C   UNL     1      -3.878   0.141 -31.976  1.00  0.00     0.182 C 
BRANCH  11  12
HETATM   12  C   UNL     1      -4.698  -0.571 -33.029  1.00  0.00     0.052 A 
HETATM   13  N   UNL     1      -5.716   0.106 -33.626  1.00  0.00    -0.257 NA
HETATM   14  C   UNL     1      -6.445  -0.541 -34.567  1.00  0.00     0.031 A 
HETATM   15  C   UNL     1      -7.572   0.215 -35.205  1.00  0.00     0.070 C 
HETATM   16  C   UNL     1      -6.186  -1.855 -34.944  1.00  0.00     0.027 A 
HETATM   17  C   UNL     1      -5.139  -2.534 -34.332  1.00  0.00     0.004 A 
HETATM   18  C   UNL     1      -4.382  -1.886 -33.363  1.00  0.00     0.029 A 
ENDBRANCH  11  12
ENDBRANCH   8  11
ENDBRANCH   1   7
BRANCH   5  19
HETATM   19  C   UNL     1      -0.797   6.686 -32.540  1.00  0.00     0.234 C 
BRANCH  19  20
HETATM   20  O   UNL     1      -1.298   7.620 -31.588  1.00  0.00    -0.345 OA
BRANCH  20  21
HETATM   21  C   UNL     1      -0.951   7.405 -30.281  1.00  0.00     0.072 A 
HETATM   22  C   UNL     1      -2.019   7.451 -29.378  1.00  0.00     0.076 A 
HETATM   23  C   UNL     1      -1.751   7.250 -28.041  1.00  0.00     0.107 A 
HETATM   24  C   UNL     1      -0.477   7.000 -27.589  1.00  0.00     0.105 A 
HETATM   25  O   UNL     1      -2.663   7.271 -27.032  1.00  0.00    -0.323 OA
HETATM   26  O   UNL     1      -0.427   6.833 -26.241  1.00  0.00    -0.323 OA
HETATM   27  C   UNL     1       0.595   6.935 -28.450  1.00  0.00     0.042 A 
HETATM   28  C   UNL     1      -1.815   7.015 -25.893  1.00  0.00     0.352 A 
HETATM   29  C   UNL     1       0.352   7.138 -29.814  1.00  0.00     0.039 A 
ENDBRANCH  20  21
ENDBRANCH  19  20
ENDBRANCH   5  19
TORSDOF 6
ENDMDL
