MODEL 1
REMARK VINA RESULT:      -8.3      0.000      0.000
REMARK  9 active torsions:
REMARK  status: ('A' for Active; 'I' for Inactive)
REMARK    1  A    between atoms: C_6  and  C_7 
REMARK    2  A    between atoms: C_7  and  C_8 
REMARK    3  A    between atoms: C_11  and  N_12 
REMARK       I    between atoms: N_12  and  C_13 
REMARK       I    between atoms: C_13  and  N_14 
REMARK    4  A    between atoms: N_14  and  C_15 
REMARK    5  A    between atoms: C_15  and  C_16 
REMARK    6  A    between atoms: C_16  and  C_17 
REMARK    7  A    between atoms: C_16  and  C_19 
REMARK    8  A    between atoms: C_17  and  O_18 
REMARK    9  A    between atoms: C_19  and  C_20 
ROOT
HETATM    1  N   UNL     1      -7.814   1.227 -30.696  1.00  0.00    -0.309 N 
HETATM    2  C   UNL     1      -6.551   0.733 -30.728  1.00  0.00     0.320 C 
HETATM    3  N   UNL     1      -5.979   0.468 -31.932  1.00  0.00    -0.342 N 
HETATM    4  O   UNL     1      -5.958   0.573 -29.661  1.00  0.00    -0.247 OA
HETATM    5  H   UNL     1      -8.040   1.511 -29.750  1.00  0.00     0.170 HD
HETATM    6  H   UNL     1      -6.261   1.099 -32.677  1.00  0.00     0.164 HD
ENDROOT
BRANCH   1   7
HETATM    7  C   UNL     1      -8.844   1.363 -31.641  1.00  0.00     0.036 A 
HETATM    8  C   UNL     1      -9.266   2.566 -32.205  1.00  0.00     0.030 A 
HETATM    9  C   UNL     1     -10.291   2.583 -33.161  1.00  0.00     0.010 A 
HETATM   10  C   UNL     1     -10.898   1.392 -33.583  1.00  0.00    -0.051 A 
HETATM   11  C   UNL     1     -10.460   0.183 -33.035  1.00  0.00     0.010 A 
HETATM   12  C   UNL     1      -9.445   0.173 -32.075  1.00  0.00     0.030 A 
BRANCH  10  13
HETATM   13  C   UNL     1     -11.952   1.405 -34.668  1.00  0.00     0.118 C 
BRANCH  13  14
HETATM   14  C   UNL     1     -13.356   1.366 -34.164  1.00  0.00     0.126 A 
HETATM   15  N   UNL     1     -14.328   0.533 -34.649  1.00  0.00    -0.263 N 
HETATM   16  N   UNL     1     -15.496   0.719 -34.018  1.00  0.00    -0.158 NA
HETATM   17  H   UNL     1     -14.261  -0.163 -35.384  1.00  0.00     0.190 HD
HETATM   18  C   UNL     1     -15.182   1.687 -33.150  1.00  0.00     0.144 A 
HETATM   19  C   UNL     1     -16.157   2.251 -32.197  1.00  0.00     0.095 C 
HETATM   20  N   UNL     1     -13.879   2.107 -33.208  1.00  0.00    -0.217 NA
ENDBRANCH  13  14
ENDBRANCH  10  13
ENDBRANCH   1   7
BRANCH   3  21
HETATM   21  C   UNL     1      -4.586   0.069 -31.976  1.00  0.00     0.131 C 
BRANCH  21  22
HETATM   22  C   UNL     1      -4.357  -1.384 -32.423  1.00  0.00     0.033 C 
BRANCH  22  23
HETATM   23  C   UNL     1      -3.021  -1.926 -31.895  1.00  0.00     0.170 C 
BRANCH  23  24
HETATM   24  O   UNL     1      -3.034  -3.345 -31.785  1.00  0.00    -0.400 OA
HETATM   25  H   UNL     1      -3.971  -3.597 -31.675  1.00  0.00     0.209 HD
ENDBRANCH  23  24
ENDBRANCH  22  23
BRANCH  22  26
HETATM   26  C   UNL     1      -4.506  -1.506 -33.950  1.00  0.00     0.073 C 
BRANCH  26  27
HETATM   27  C   UNL     1      -5.275  -2.718 -34.335  1.00  0.00     0.053 A 
HETATM   28  O   UNL     1      -4.589  -3.896 -34.362  1.00  0.00    -0.327 OA
HETATM   29  C   UNL     1      -5.477  -4.860 -34.720  1.00  0.00     0.142 A 
HETATM   30  C   UNL     1      -6.723  -4.316 -34.926  1.00  0.00     0.027 A 
HETATM   31  C   UNL     1      -6.594  -2.929 -34.680  1.00  0.00     0.034 A 
ENDBRANCH  26  27
ENDBRANCH  22  26
ENDBRANCH  21  22
ENDBRANCH   3  21
TORSDOF 9
ENDMDL
MODEL 2
REMARK VINA RESULT:      -8.0      5.409      8.700
REMARK  9 active torsions:
REMARK  status: ('A' for Active; 'I' for Inactive)
REMARK    1  A    between atoms: C_6  and  C_7 
REMARK    2  A    between atoms: C_7  and  C_8 
REMARK    3  A    between atoms: C_11  and  N_12 
REMARK       I    between atoms: N_12  and  C_13 
REMARK       I    between atoms: C_13  and  N_14 
REMARK    4  A    between atoms: N_14  and  C_15 
REMARK    5  A    between atoms: C_15  and  C_16 
REMARK    6  A    between atoms: C_16  and  C_17 
REMARK    7  A    between atoms: C_16  and  C_19 
REMARK    8  A    between atoms: C_17  and  O_18 
REMARK    9  A    between atoms: C_19  and  C_20 
ROOT
HETATM    1  N   UNL     1      -5.523   2.736 -31.889  1.00  0.00    -0.309 N 
HETATM    2  C   UNL     1      -4.381   3.464 -31.807  1.00  0.00     0.320 C 
HETATM    3  N   UNL     1      -3.466   3.367 -32.809  1.00  0.00    -0.342 N 
HETATM    4  O   UNL     1      -4.231   4.210 -30.840  1.00  0.00    -0.247 OA
HETATM    5  H   UNL     1      -6.160   3.026 -31.157  1.00  0.00     0.170 HD
HETATM    6  H   UNL     1      -3.869   3.217 -33.729  1.00  0.00     0.164 HD
ENDROOT
BRANCH   1   7
HETATM    7  C   UNL     1      -5.960   1.675 -32.698  1.00  0.00     0.036 A 
HETATM    8  C   UNL     1      -6.357   1.788 -34.030  1.00  0.00     0.030 A 
HETATM    9  C   UNL     1      -6.753   0.654 -34.753  1.00  0.00     0.010 A 
HETATM   10  C   UNL     1      -6.739  -0.617 -34.160  1.00  0.00    -0.051 A 
HETATM   11  C   UNL     1      -6.320  -0.734 -32.832  1.00  0.00     0.010 A 
HETATM   12  C   UNL     1      -5.936   0.400 -32.113  1.00  0.00     0.030 A 
BRANCH  10  13
HETATM   13  C   UNL     1      -7.097  -1.847 -34.964  1.00  0.00     0.118 C 
BRANCH  13  14
HETATM   14  C   UNL     1      -6.205  -3.020 -34.726  1.00  0.00     0.126 A 
HETATM   15  N   UNL     1      -6.575  -4.323 -34.921  1.00  0.00    -0.263 N 
HETATM   16  N   UNL     1      -5.579  -5.168 -34.620  1.00  0.00    -0.158 NA
HETATM   17  H   UNL     1      -7.463  -4.691 -35.247  1.00  0.00     0.190 HD
HETATM   18  C   UNL     1      -4.614  -4.323 -34.243  1.00  0.00     0.144 A 
HETATM   19  C   UNL     1      -3.278  -4.778 -33.811  1.00  0.00     0.095 C 
HETATM   20  N   UNL     1      -4.960  -2.998 -34.297  1.00  0.00    -0.217 NA
ENDBRANCH  13  14
ENDBRANCH  10  13
ENDBRANCH   1   7
BRANCH   3  21
HETATM   21  C   UNL     1      -2.310   4.242 -32.791  1.00  0.00     0.131 C 
BRANCH  21  22
HETATM   22  C   UNL     1      -2.501   5.560 -33.558  1.00  0.00     0.033 C 
BRANCH  22  23
HETATM   23  C   UNL     1      -3.022   5.308 -34.980  1.00  0.00     0.170 C 
BRANCH  23  24
HETATM   24  O   UNL     1      -4.445   5.293 -35.025  1.00  0.00    -0.400 OA
HETATM   25  H   UNL     1      -4.730   4.689 -34.313  1.00  0.00     0.209 HD
ENDBRANCH  23  24
ENDBRANCH  22  23
BRANCH  22  26
HETATM   26  C   UNL     1      -1.210   6.396 -33.519  1.00  0.00     0.073 C 
BRANCH  26  27
HETATM   27  C   UNL     1      -0.824   6.753 -32.128  1.00  0.00     0.053 A 
HETATM   28  O   UNL     1      -1.780   7.351 -31.362  1.00  0.00    -0.327 OA
HETATM   29  C   UNL     1      -1.223   7.573 -30.142  1.00  0.00     0.142 A 
HETATM   30  C   UNL     1       0.078   7.127 -30.117  1.00  0.00     0.027 A 
HETATM   31  C   UNL     1       0.338   6.599 -31.402  1.00  0.00     0.034 A 
ENDBRANCH  26  27
ENDBRANCH  22  26
ENDBRANCH  21  22
ENDBRANCH   3  21
TORSDOF 9
ENDMDL
MODEL 3
REMARK VINA RESULT:      -7.8      6.851     10.385
REMARK  9 active torsions:
REMARK  status: ('A' for Active; 'I' for Inactive)
REMARK    1  A    between atoms: C_6  and  C_7 
REMARK    2  A    between atoms: C_7  and  C_8 
REMARK    3  A    between atoms: C_11  and  N_12 
REMARK       I    between atoms: N_12  and  C_13 
REMARK       I    between atoms: C_13  and  N_14 
REMARK    4  A    between atoms: N_14  and  C_15 
REMARK    5  A    between atoms: C_15  and  C_16 
REMARK    6  A    between atoms: C_16  and  C_17 
REMARK    7  A    between atoms: C_16  and  C_19 
REMARK    8  A    between atoms: C_17  and  O_18 
REMARK    9  A    between atoms: C_19  and  C_20 
ROOT
HETATM    1  N   UNL     1      -2.673   5.824 -33.953  1.00  0.00    -0.309 N 
HETATM    2  C   UNL     1      -1.917   6.733 -33.288  1.00  0.00     0.320 C 
HETATM    3  N   UNL     1      -1.673   6.544 -31.964  1.00  0.00    -0.342 N 
HETATM    4  O   UNL     1      -1.454   7.682 -33.920  1.00  0.00    -0.247 OA
HETATM    5  H   UNL     1      -2.638   6.019 -34.946  1.00  0.00     0.170 HD
HETATM    6  H   UNL     1      -1.595   5.570 -31.689  1.00  0.00     0.164 HD
ENDROOT
BRANCH   1   7
HETATM    7  C   UNL     1      -3.502   4.758 -33.565  1.00  0.00     0.036 A 
HETATM    8  C   UNL     1      -4.847   4.621 -33.903  1.00  0.00     0.030 A 
HETATM    9  C   UNL     1      -5.575   3.500 -33.481  1.00  0.00     0.010 A 
HETATM   10  C   UNL     1      -4.963   2.487 -32.729  1.00  0.00    -0.051 A 
HETATM   11  C   UNL     1      -3.608   2.613 -32.409  1.00  0.00     0.010 A 
HETATM   12  C   UNL     1      -2.889   3.737 -32.824  1.00  0.00     0.030 A 
BRANCH  10  13
HETATM   13  C   UNL     1      -5.731   1.245 -32.338  1.00  0.00     0.118 C 
BRANCH  13  14
HETATM   14  C   UNL     1      -5.012  -0.036 -32.603  1.00  0.00     0.126 A 
HETATM   15  N   UNL     1      -4.943  -0.643 -33.828  1.00  0.00    -0.263 N 
HETATM   16  N   UNL     1      -4.241  -1.784 -33.773  1.00  0.00    -0.158 NA
HETATM   17  H   UNL     1      -5.340  -0.341 -34.712  1.00  0.00     0.190 HD
HETATM   18  C   UNL     1      -3.901  -1.829 -32.481  1.00  0.00     0.144 A 
HETATM   19  C   UNL     1      -3.094  -2.922 -31.905  1.00  0.00     0.095 C 
HETATM   20  N   UNL     1      -4.353  -0.773 -31.733  1.00  0.00    -0.217 NA
ENDBRANCH  13  14
ENDBRANCH  10  13
ENDBRANCH   1   7
BRANCH   3  21
HETATM   21  C   UNL     1      -0.758   7.439 -31.283  1.00  0.00     0.131 C 
BRANCH  21  22
HETATM   22  C   UNL     1       0.199   6.741 -30.304  1.00  0.00     0.033 C 
BRANCH  22  23
HETATM   23  C   UNL     1       0.567   5.332 -30.793  1.00  0.00     0.170 C 
BRANCH  23  24
HETATM   24  O   UNL     1      -0.239   4.333 -30.178  1.00  0.00    -0.400 OA
HETATM   25  H   UNL     1      -0.073   4.408 -29.218  1.00  0.00     0.209 HD
ENDBRANCH  23  24
ENDBRANCH  22  23
BRANCH  22  26
HETATM   26  C   UNL     1      -0.380   6.761 -28.879  1.00  0.00     0.073 C 
BRANCH  26  27
HETATM   27  C   UNL     1       0.521   7.460 -27.925  1.00  0.00     0.053 A 
HETATM   28  O   UNL     1       0.519   7.009 -26.639  1.00  0.00    -0.327 OA
HETATM   29  C   UNL     1       1.413   7.770 -25.954  1.00  0.00     0.142 A 
HETATM   30  C   UNL     1       1.986   8.704 -26.784  1.00  0.00     0.027 A 
HETATM   31  C   UNL     1       1.408   8.507 -28.059  1.00  0.00     0.034 A 
ENDBRANCH  26  27
ENDBRANCH  22  26
ENDBRANCH  21  22
ENDBRANCH   3  21
TORSDOF 9
ENDMDL
MODEL 4
REMARK VINA RESULT:      -7.7      5.215      9.099
REMARK  9 active torsions:
REMARK  status: ('A' for Active; 'I' for Inactive)
REMARK    1  A    between atoms: C_6  and  C_7 
REMARK    2  A    between atoms: C_7  and  C_8 
REMARK    3  A    between atoms: C_11  and  N_12 
REMARK       I    between atoms: N_12  and  C_13 
REMARK       I    between atoms: C_13  and  N_14 
REMARK    4  A    between atoms: N_14  and  C_15 
REMARK    5  A    between atoms: C_15  and  C_16 
REMARK    6  A    between atoms: C_16  and  C_17 
REMARK    7  A    between atoms: C_16  and  C_19 
REMARK    8  A    between atoms: C_17  and  O_18 
REMARK    9  A    between atoms: C_19  and  C_20 
ROOT
HETATM    1  N   UNL     1      -5.837   3.492 -31.726  1.00  0.00    -0.309 N 
HETATM    2  C   UNL     1      -6.261   2.210 -31.861  1.00  0.00     0.320 C 
HETATM    3  N   UNL     1      -5.356   1.202 -31.747  1.00  0.00    -0.342 N 
HETATM    4  O   UNL     1      -7.460   2.008 -32.051  1.00  0.00    -0.247 OA
HETATM    5  H   UNL     1      -6.639   4.109 -31.686  1.00  0.00     0.170 HD
HETATM    6  H   UNL     1      -4.606   1.387 -31.087  1.00  0.00     0.164 HD
ENDROOT
BRANCH   1   7
HETATM    7  C   UNL     1      -4.579   4.116 -31.694  1.00  0.00     0.036 A 
HETATM    8  C   UNL     1      -4.221   5.162 -30.845  1.00  0.00     0.030 A 
HETATM    9  C   UNL     1      -2.925   5.695 -30.881  1.00  0.00     0.010 A 
HETATM   10  C   UNL     1      -1.959   5.177 -31.756  1.00  0.00    -0.051 A 
HETATM   11  C   UNL     1      -2.311   4.114 -32.592  1.00  0.00     0.010 A 
HETATM   12  C   UNL     1      -3.607   3.592 -32.559  1.00  0.00     0.030 A 
BRANCH  10  13
HETATM   13  C   UNL     1      -0.543   5.705 -31.741  1.00  0.00     0.118 C 
BRANCH  13  14
HETATM   14  C   UNL     1      -0.033   6.069 -30.386  1.00  0.00     0.126 A 
HETATM   15  N   UNL     1       0.118   5.183 -29.355  1.00  0.00    -0.263 N 
HETATM   16  N   UNL     1       0.585   5.787 -28.252  1.00  0.00    -0.158 NA
HETATM   17  H   UNL     1      -0.073   4.187 -29.338  1.00  0.00     0.190 HD
HETATM   18  C   UNL     1       0.703   7.052 -28.667  1.00  0.00     0.144 A 
HETATM   19  C   UNL     1       1.198   8.135 -27.795  1.00  0.00     0.095 C 
HETATM   20  N   UNL     1       0.336   7.264 -29.970  1.00  0.00    -0.217 NA
ENDBRANCH  13  14
ENDBRANCH  10  13
ENDBRANCH   1   7
BRANCH   3  21
HETATM   21  C   UNL     1      -5.826  -0.169 -31.756  1.00  0.00     0.131 C 
BRANCH  21  22
HETATM   22  C   UNL     1      -4.935  -1.139 -32.549  1.00  0.00     0.033 C 
BRANCH  22  23
HETATM   23  C   UNL     1      -3.453  -0.751 -32.439  1.00  0.00     0.170 C 
BRANCH  23  24
HETATM   24  O   UNL     1      -3.032  -0.655 -31.083  1.00  0.00    -0.400 OA
HETATM   25  H   UNL     1      -3.381  -1.451 -30.637  1.00  0.00     0.209 HD
ENDBRANCH  23  24
ENDBRANCH  22  23
BRANCH  22  26
HETATM   26  C   UNL     1      -5.430  -1.258 -34.001  1.00  0.00     0.073 C 
BRANCH  26  27
HETATM   27  C   UNL     1      -5.667  -2.673 -34.390  1.00  0.00     0.053 A 
HETATM   28  O   UNL     1      -4.642  -3.546 -34.175  1.00  0.00    -0.327 OA
HETATM   29  C   UNL     1      -5.075  -4.768 -34.584  1.00  0.00     0.142 A 
HETATM   30  C   UNL     1      -6.362  -4.689 -35.061  1.00  0.00     0.027 A 
HETATM   31  C   UNL     1      -6.746  -3.333 -34.939  1.00  0.00     0.034 A 
ENDBRANCH  26  27
ENDBRANCH  22  26
ENDBRANCH  21  22
ENDBRANCH   3  21
TORSDOF 9
ENDMDL
MODEL 5
REMARK VINA RESULT:      -7.6      4.474      6.483
REMARK  9 active torsions:
REMARK  status: ('A' for Active; 'I' for Inactive)
REMARK    1  A    between atoms: C_6  and  C_7 
REMARK    2  A    between atoms: C_7  and  C_8 
REMARK    3  A    between atoms: C_11  and  N_12 
REMARK       I    between atoms: N_12  and  C_13 
REMARK       I    between atoms: C_13  and  N_14 
REMARK    4  A    between atoms: N_14  and  C_15 
REMARK    5  A    between atoms: C_15  and  C_16 
REMARK    6  A    between atoms: C_16  and  C_17 
REMARK    7  A    between atoms: C_16  and  C_19 
REMARK    8  A    between atoms: C_17  and  O_18 
REMARK    9  A    between atoms: C_19  and  C_20 
ROOT
HETATM    1  N   UNL     1      -4.882   1.320 -31.601  1.00  0.00    -0.309 N 
HETATM    2  C   UNL     1      -4.091   2.423 -31.589  1.00  0.00     0.320 C 
HETATM    3  N   UNL     1      -4.644   3.631 -31.873  1.00  0.00    -0.342 N 
HETATM    4  O   UNL     1      -2.906   2.288 -31.290  1.00  0.00    -0.247 OA
HETATM    5  H   UNL     1      -4.366   0.532 -31.227  1.00  0.00     0.170 HD
HETATM    6  H   UNL     1      -5.606   3.734 -31.564  1.00  0.00     0.164 HD
ENDROOT
BRANCH   1   7
HETATM    7  C   UNL     1      -6.181   1.043 -32.058  1.00  0.00     0.036 A 
HETATM    8  C   UNL     1      -6.493   0.388 -33.249  1.00  0.00     0.030 A 
HETATM    9  C   UNL     1      -7.828   0.141 -33.596  1.00  0.00     0.010 A 
HETATM   10  C   UNL     1      -8.874   0.528 -32.746  1.00  0.00    -0.051 A 
HETATM   11  C   UNL     1      -8.561   1.164 -31.542  1.00  0.00     0.010 A 
HETATM   12  C   UNL     1      -7.230   1.417 -31.205  1.00  0.00     0.030 A 
BRANCH  10  13
HETATM   13  C   UNL     1     -10.309   0.195 -33.088  1.00  0.00     0.118 C 
BRANCH  13  14
HETATM   14  C   UNL     1     -11.115   1.357 -33.567  1.00  0.00     0.126 A 
HETATM   15  N   UNL     1     -12.074   1.990 -32.823  1.00  0.00    -0.263 N 
HETATM   16  N   UNL     1     -12.644   2.993 -33.507  1.00  0.00    -0.158 NA
HETATM   17  H   UNL     1     -12.377   1.794 -31.875  1.00  0.00     0.190 HD
HETATM   18  C   UNL     1     -11.993   2.929 -34.673  1.00  0.00     0.144 A 
HETATM   19  C   UNL     1     -12.263   3.854 -35.790  1.00  0.00     0.095 C 
HETATM   20  N   UNL     1     -11.047   1.941 -34.746  1.00  0.00    -0.217 NA
ENDBRANCH  13  14
ENDBRANCH  10  13
ENDBRANCH   1   7
BRANCH   3  21
HETATM   21  C   UNL     1      -3.835   4.826 -31.730  1.00  0.00     0.131 C 
BRANCH  21  22
HETATM   22  C   UNL     1      -3.315   5.401 -33.057  1.00  0.00     0.033 C 
BRANCH  22  23
HETATM   23  C   UNL     1      -4.272   5.086 -34.215  1.00  0.00     0.170 C 
BRANCH  23  24
HETATM   24  O   UNL     1      -3.771   5.563 -35.459  1.00  0.00    -0.400 OA
HETATM   25  H   UNL     1      -3.994   4.878 -36.119  1.00  0.00     0.209 HD
ENDBRANCH  23  24
ENDBRANCH  22  23
BRANCH  22  26
HETATM   26  C   UNL     1      -1.871   4.937 -33.314  1.00  0.00     0.073 C 
BRANCH  26  27
HETATM   27  C   UNL     1      -0.917   5.528 -32.338  1.00  0.00     0.053 A 
HETATM   28  O   UNL     1      -0.319   4.666 -31.468  1.00  0.00    -0.327 OA
HETATM   29  C   UNL     1       0.511   5.408 -30.689  1.00  0.00     0.142 A 
HETATM   30  C   UNL     1       0.451   6.734 -31.046  1.00  0.00     0.027 A 
HETATM   31  C   UNL     1      -0.475   6.814 -32.111  1.00  0.00     0.034 A 
ENDBRANCH  26  27
ENDBRANCH  22  26
ENDBRANCH  21  22
ENDBRANCH   3  21
TORSDOF 9
ENDMDL
MODEL 6
REMARK VINA RESULT:      -7.5      5.709      9.525
REMARK  9 active torsions:
REMARK  status: ('A' for Active; 'I' for Inactive)
REMARK    1  A    between atoms: C_6  and  C_7 
REMARK    2  A    between atoms: C_7  and  C_8 
REMARK    3  A    between atoms: C_11  and  N_12 
REMARK       I    between atoms: N_12  and  C_13 
REMARK       I    between atoms: C_13  and  N_14 
REMARK    4  A    between atoms: N_14  and  C_15 
REMARK    5  A    between atoms: C_15  and  C_16 
REMARK    6  A    between atoms: C_16  and  C_17 
REMARK    7  A    between atoms: C_16  and  C_19 
REMARK    8  A    between atoms: C_17  and  O_18 
REMARK    9  A    between atoms: C_19  and  C_20 
ROOT
HETATM    1  N   UNL     1      -4.973   4.344 -33.338  1.00  0.00    -0.309 N 
HETATM    2  C   UNL     1      -5.670   3.195 -33.157  1.00  0.00     0.320 C 
HETATM    3  N   UNL     1      -5.249   2.311 -32.213  1.00  0.00    -0.342 N 
HETATM    4  O   UNL     1      -6.680   3.011 -33.835  1.00  0.00    -0.247 OA
HETATM    5  H   UNL     1      -5.489   4.957 -33.957  1.00  0.00     0.170 HD
HETATM    6  H   UNL     1      -4.824   2.742 -31.398  1.00  0.00     0.164 HD
ENDROOT
BRANCH   1   7
HETATM    7  C   UNL     1      -3.718   4.814 -32.915  1.00  0.00     0.036 A 
HETATM    8  C   UNL     1      -2.488   4.367 -33.395  1.00  0.00     0.030 A 
HETATM    9  C   UNL     1      -1.294   4.925 -32.919  1.00  0.00     0.010 A 
HETATM   10  C   UNL     1      -1.311   5.955 -31.967  1.00  0.00    -0.051 A 
HETATM   11  C   UNL     1      -2.545   6.419 -31.503  1.00  0.00     0.010 A 
HETATM   12  C   UNL     1      -3.732   5.853 -31.973  1.00  0.00     0.030 A 
BRANCH  10  13
HETATM   13  C   UNL     1      -0.025   6.605 -31.510  1.00  0.00     0.118 C 
BRANCH  13  14
HETATM   14  C   UNL     1       0.211   6.539 -30.038  1.00  0.00     0.126 A 
HETATM   15  N   UNL     1      -0.043   5.439 -29.263  1.00  0.00    -0.263 N 
HETATM   16  N   UNL     1       0.253   5.665 -27.975  1.00  0.00    -0.158 NA
HETATM   17  H   UNL     1      -0.408   4.534 -29.542  1.00  0.00     0.190 HD
HETATM   18  C   UNL     1       0.688   6.929 -28.016  1.00  0.00     0.144 A 
HETATM   19  C   UNL     1       1.150   7.653 -26.817  1.00  0.00     0.095 C 
HETATM   20  N   UNL     1       0.679   7.497 -29.264  1.00  0.00    -0.217 NA
ENDBRANCH  13  14
ENDBRANCH  10  13
ENDBRANCH   1   7
BRANCH   3  21
HETATM   21  C   UNL     1      -6.065   1.148 -31.925  1.00  0.00     0.131 C 
BRANCH  21  22
HETATM   22  C   UNL     1      -5.447  -0.186 -32.370  1.00  0.00     0.033 C 
BRANCH  22  23
HETATM   23  C   UNL     1      -4.001  -0.324 -31.871  1.00  0.00     0.170 C 
BRANCH  23  24
HETATM   24  O   UNL     1      -3.063   0.131 -32.840  1.00  0.00    -0.400 OA
HETATM   25  H   UNL     1      -3.198  -0.429 -33.628  1.00  0.00     0.209 HD
ENDBRANCH  23  24
ENDBRANCH  22  23
BRANCH  22  26
HETATM   26  C   UNL     1      -5.588  -0.363 -33.892  1.00  0.00     0.073 C 
BRANCH  26  27
HETATM   27  C   UNL     1      -5.856  -1.777 -34.262  1.00  0.00     0.053 A 
HETATM   28  O   UNL     1      -4.769  -2.571 -34.473  1.00  0.00    -0.327 OA
HETATM   29  C   UNL     1      -5.239  -3.809 -34.780  1.00  0.00     0.142 A 
HETATM   30  C   UNL     1      -6.614  -3.818 -34.772  1.00  0.00     0.027 A 
HETATM   31  C   UNL     1      -7.015  -2.503 -34.439  1.00  0.00     0.034 A 
ENDBRANCH  26  27
ENDBRANCH  22  26
ENDBRANCH  21  22
ENDBRANCH   3  21
TORSDOF 9
ENDMDL
MODEL 7
REMARK VINA RESULT:      -7.5      3.385      7.962
REMARK  9 active torsions:
REMARK  status: ('A' for Active; 'I' for Inactive)
REMARK    1  A    between atoms: C_6  and  C_7 
REMARK    2  A    between atoms: C_7  and  C_8 
REMARK    3  A    between atoms: C_11  and  N_12 
REMARK       I    between atoms: N_12  and  C_13 
REMARK       I    between atoms: C_13  and  N_14 
REMARK    4  A    between atoms: N_14  and  C_15 
REMARK    5  A    between atoms: C_15  and  C_16 
REMARK    6  A    between atoms: C_16  and  C_17 
REMARK    7  A    between atoms: C_16  and  C_19 
REMARK    8  A    between atoms: C_17  and  O_18 
REMARK    9  A    between atoms: C_19  and  C_20 
ROOT
HETATM    1  N   UNL     1      -7.697   2.621 -30.032  1.00  0.00    -0.309 N 
HETATM    2  C   UNL     1      -8.835   3.006 -30.662  1.00  0.00     0.320 C 
HETATM    3  N   UNL     1      -9.129   2.468 -31.875  1.00  0.00    -0.342 N 
HETATM    4  O   UNL     1      -9.575   3.808 -30.094  1.00  0.00    -0.247 OA
HETATM    5  H   UNL     1      -7.695   2.988 -29.088  1.00  0.00     0.170 HD
HETATM    6  H   UNL     1      -8.825   1.506 -31.990  1.00  0.00     0.164 HD
ENDROOT
BRANCH   1   7
HETATM    7  C   UNL     1      -6.550   1.907 -30.416  1.00  0.00     0.036 A 
HETATM    8  C   UNL     1      -6.249   0.601 -30.032  1.00  0.00     0.030 A 
HETATM    9  C   UNL     1      -5.084  -0.025 -30.497  1.00  0.00     0.010 A 
HETATM   10  C   UNL     1      -4.210   0.639 -31.369  1.00  0.00    -0.051 A 
HETATM   11  C   UNL     1      -4.523   1.940 -31.772  1.00  0.00     0.010 A 
HETATM   12  C   UNL     1      -5.680   2.564 -31.299  1.00  0.00     0.030 A 
BRANCH  10  13
HETATM   13  C   UNL     1      -2.993  -0.065 -31.926  1.00  0.00     0.118 C 
BRANCH  13  14
HETATM   14  C   UNL     1      -3.215  -1.499 -32.275  1.00  0.00     0.126 A 
HETATM   15  N   UNL     1      -2.762  -2.554 -31.530  1.00  0.00    -0.263 N 
HETATM   16  N   UNL     1      -3.097  -3.728 -32.085  1.00  0.00    -0.158 NA
HETATM   17  H   UNL     1      -2.235  -2.542 -30.663  1.00  0.00     0.190 HD
HETATM   18  C   UNL     1      -3.760  -3.331 -33.176  1.00  0.00     0.144 A 
HETATM   19  C   UNL     1      -4.351  -4.279 -34.140  1.00  0.00     0.095 C 
HETATM   20  N   UNL     1      -3.855  -1.972 -33.325  1.00  0.00    -0.217 NA
ENDBRANCH  13  14
ENDBRANCH  10  13
ENDBRANCH   1   7
BRANCH   3  21
HETATM   21  C   UNL     1     -10.406   2.773 -32.489  1.00  0.00     0.131 C 
BRANCH  21  22
HETATM   22  C   UNL     1     -10.821   1.803 -33.606  1.00  0.00     0.033 C 
BRANCH  22  23
HETATM   23  C   UNL     1     -12.341   1.820 -33.824  1.00  0.00     0.170 C 
BRANCH  23  24
HETATM   24  O   UNL     1     -13.043   2.111 -32.621  1.00  0.00    -0.400 OA
HETATM   25  H   UNL     1     -13.595   2.894 -32.813  1.00  0.00     0.209 HD
ENDBRANCH  23  24
ENDBRANCH  22  23
BRANCH  22  26
HETATM   26  C   UNL     1     -10.259   0.397 -33.333  1.00  0.00     0.073 C 
BRANCH  26  27
HETATM   27  C   UNL     1      -8.842   0.274 -33.768  1.00  0.00     0.053 A 
HETATM   28  O   UNL     1      -8.411   1.164 -34.706  1.00  0.00    -0.327 OA
HETATM   29  C   UNL     1      -7.102   0.882 -34.941  1.00  0.00     0.142 A 
HETATM   30  C   UNL     1      -6.690  -0.177 -34.169  1.00  0.00     0.027 A 
HETATM   31  C   UNL     1      -7.816  -0.574 -33.410  1.00  0.00     0.034 A 
ENDBRANCH  26  27
ENDBRANCH  22  26
ENDBRANCH  21  22
ENDBRANCH   3  21
TORSDOF 9
ENDMDL
MODEL 8
REMARK VINA RESULT:      -7.5      4.449      7.659
REMARK  9 active torsions:
REMARK  status: ('A' for Active; 'I' for Inactive)
REMARK    1  A    between atoms: C_6  and  C_7 
REMARK    2  A    between atoms: C_7  and  C_8 
REMARK    3  A    between atoms: C_11  and  N_12 
REMARK       I    between atoms: N_12  and  C_13 
REMARK       I    between atoms: C_13  and  N_14 
REMARK    4  A    between atoms: N_14  and  C_15 
REMARK    5  A    between atoms: C_15  and  C_16 
REMARK    6  A    between atoms: C_16  and  C_17 
REMARK    7  A    between atoms: C_16  and  C_19 
REMARK    8  A    between atoms: C_17  and  O_18 
REMARK    9  A    between atoms: C_19  and  C_20 
ROOT
HETATM    1  N   UNL     1      -7.847   2.381 -31.176  1.00  0.00    -0.309 N 
HETATM    2  C   UNL     1      -7.919   1.156 -31.754  1.00  0.00     0.320 C 
HETATM    3  N   UNL     1      -6.858   0.704 -32.473  1.00  0.00    -0.342 N 
HETATM    4  O   UNL     1      -8.936   0.485 -31.577  1.00  0.00    -0.247 OA
HETATM    5  H   UNL     1      -8.641   2.510 -30.560  1.00  0.00     0.170 HD
HETATM    6  H   UNL     1      -5.955   1.012 -32.123  1.00  0.00     0.164 HD
ENDROOT
BRANCH   1   7
HETATM    7  C   UNL     1      -6.979   3.478 -31.296  1.00  0.00     0.036 A 
HETATM    8  C   UNL     1      -7.186   4.584 -32.120  1.00  0.00     0.030 A 
HETATM    9  C   UNL     1      -6.262   5.637 -32.142  1.00  0.00     0.010 A 
HETATM   10  C   UNL     1      -5.124   5.612 -31.324  1.00  0.00    -0.051 A 
HETATM   11  C   UNL     1      -4.927   4.514 -30.481  1.00  0.00     0.010 A 
HETATM   12  C   UNL     1      -5.845   3.462 -30.470  1.00  0.00     0.030 A 
BRANCH  10  13
HETATM   13  C   UNL     1      -4.167   6.783 -31.296  1.00  0.00     0.118 C 
BRANCH  13  14
HETATM   14  C   UNL     1      -3.129   6.758 -32.369  1.00  0.00     0.126 A 
HETATM   15  N   UNL     1      -2.374   7.838 -32.737  1.00  0.00    -0.263 N 
HETATM   16  N   UNL     1      -1.529   7.531 -33.733  1.00  0.00    -0.158 NA
HETATM   17  H   UNL     1      -2.385   8.781 -32.362  1.00  0.00     0.190 HD
HETATM   18  C   UNL     1      -1.812   6.241 -33.938  1.00  0.00     0.144 A 
HETATM   19  C   UNL     1      -1.124   5.425 -34.958  1.00  0.00     0.095 C 
HETATM   20  N   UNL     1      -2.785   5.731 -33.119  1.00  0.00    -0.217 NA
ENDBRANCH  13  14
ENDBRANCH  10  13
ENDBRANCH   1   7
BRANCH   3  21
HETATM   21  C   UNL     1      -6.877  -0.655 -32.977  1.00  0.00     0.131 C 
BRANCH  21  22
HETATM   22  C   UNL     1      -6.465  -0.789 -34.452  1.00  0.00     0.033 C 
BRANCH  22  23
HETATM   23  C   UNL     1      -6.958   0.407 -35.279  1.00  0.00     0.170 C 
BRANCH  23  24
HETATM   24  O   UNL     1      -8.376   0.522 -35.248  1.00  0.00    -0.400 OA
HETATM   25  H   UNL     1      -8.657   0.145 -34.391  1.00  0.00     0.209 HD
ENDBRANCH  23  24
ENDBRANCH  22  23
BRANCH  22  26
HETATM   26  C   UNL     1      -6.916  -2.149 -35.014  1.00  0.00     0.073 C 
BRANCH  26  27
HETATM   27  C   UNL     1      -5.935  -3.224 -34.712  1.00  0.00     0.053 A 
HETATM   28  O   UNL     1      -4.712  -2.828 -34.258  1.00  0.00    -0.327 OA
HETATM   29  C   UNL     1      -3.990  -3.957 -34.036  1.00  0.00     0.142 A 
HETATM   30  C   UNL     1      -4.733  -5.073 -34.344  1.00  0.00     0.027 A 
HETATM   31  C   UNL     1      -5.991  -4.600 -34.784  1.00  0.00     0.034 A 
ENDBRANCH  26  27
ENDBRANCH  22  26
ENDBRANCH  21  22
ENDBRANCH   3  21
TORSDOF 9
ENDMDL
MODEL 9
REMARK VINA RESULT:      -7.5      5.807      9.627
REMARK  9 active torsions:
REMARK  status: ('A' for Active; 'I' for Inactive)
REMARK    1  A    between atoms: C_6  and  C_7 
REMARK    2  A    between atoms: C_7  and  C_8 
REMARK    3  A    between atoms: C_11  and  N_12 
REMARK       I    between atoms: N_12  and  C_13 
REMARK       I    between atoms: C_13  and  N_14 
REMARK    4  A    between atoms: N_14  and  C_15 
REMARK    5  A    between atoms: C_15  and  C_16 
REMARK    6  A    between atoms: C_16  and  C_17 
REMARK    7  A    between atoms: C_16  and  C_19 
REMARK    8  A    between atoms: C_17  and  O_18 
REMARK    9  A    between atoms: C_19  and  C_20 
ROOT
HETATM    1  N   UNL     1      -5.540   5.096 -33.228  1.00  0.00    -0.309 N 
HETATM    2  C   UNL     1      -6.373   4.062 -33.511  1.00  0.00     0.320 C 
HETATM    3  N   UNL     1      -6.037   2.814 -33.090  1.00  0.00    -0.342 N 
HETATM    4  O   UNL     1      -7.419   4.302 -34.113  1.00  0.00    -0.247 OA
HETATM    5  H   UNL     1      -5.994   5.969 -33.470  1.00  0.00     0.170 HD
HETATM    6  H   UNL     1      -5.534   2.792 -32.208  1.00  0.00     0.164 HD
ENDROOT
BRANCH   1   7
HETATM    7  C   UNL     1      -4.223   5.200 -32.752  1.00  0.00     0.036 A 
HETATM    8  C   UNL     1      -3.863   5.531 -31.447  1.00  0.00     0.030 A 
HETATM    9  C   UNL     1      -2.513   5.582 -31.073  1.00  0.00     0.010 A 
HETATM   10  C   UNL     1      -1.501   5.282 -31.995  1.00  0.00    -0.051 A 
HETATM   11  C   UNL     1      -1.862   4.928 -33.298  1.00  0.00     0.010 A 
HETATM   12  C   UNL     1      -3.208   4.888 -33.668  1.00  0.00     0.030 A 
BRANCH  10  13
HETATM   13  C   UNL     1      -0.049   5.267 -31.570  1.00  0.00     0.118 C 
BRANCH  13  14
HETATM   14  C   UNL     1       0.212   5.897 -30.242  1.00  0.00     0.126 A 
HETATM   15  N   UNL     1       0.169   5.228 -29.049  1.00  0.00    -0.263 N 
HETATM   16  N   UNL     1       0.435   6.044 -28.018  1.00  0.00    -0.158 NA
HETATM   17  H   UNL     1      -0.030   4.249 -28.874  1.00  0.00     0.190 HD
HETATM   18  C   UNL     1       0.635   7.209 -28.641  1.00  0.00     0.144 A 
HETATM   19  C   UNL     1       0.975   8.452 -27.921  1.00  0.00     0.095 C 
HETATM   20  N   UNL     1       0.510   7.158 -30.005  1.00  0.00    -0.217 NA
ENDBRANCH  13  14
ENDBRANCH  10  13
ENDBRANCH   1   7
BRANCH   3  21
HETATM   21  C   UNL     1      -6.985   1.732 -33.272  1.00  0.00     0.131 C 
BRANCH  21  22
HETATM   22  C   UNL     1      -6.436   0.535 -34.064  1.00  0.00     0.033 C 
BRANCH  22  23
HETATM   23  C   UNL     1      -7.207   0.335 -35.377  1.00  0.00     0.170 C 
BRANCH  23  24
HETATM   24  O   UNL     1      -8.580   0.685 -35.241  1.00  0.00    -0.400 OA
HETATM   25  H   UNL     1      -8.950   0.679 -36.145  1.00  0.00     0.209 HD
ENDBRANCH  23  24
ENDBRANCH  22  23
BRANCH  22  26
HETATM   26  C   UNL     1      -6.399  -0.723 -33.180  1.00  0.00     0.073 C 
BRANCH  26  27
HETATM   27  C   UNL     1      -6.141  -1.952 -33.976  1.00  0.00     0.053 A 
HETATM   28  O   UNL     1      -7.190  -2.808 -34.136  1.00  0.00    -0.327 OA
HETATM   29  C   UNL     1      -6.741  -3.840 -34.898  1.00  0.00     0.142 A 
HETATM   30  C   UNL     1      -5.419  -3.658 -35.227  1.00  0.00     0.027 A 
HETATM   31  C   UNL     1      -5.028  -2.438 -34.629  1.00  0.00     0.034 A 
ENDBRANCH  26  27
ENDBRANCH  22  26
ENDBRANCH  21  22
ENDBRANCH   3  21
TORSDOF 9
ENDMDL
MODEL 10
REMARK VINA RESULT:      -7.5      4.859      8.825
REMARK  9 active torsions:
REMARK  status: ('A' for Active; 'I' for Inactive)
REMARK    1  A    between atoms: C_6  and  C_7 
REMARK    2  A    between atoms: C_7  and  C_8 
REMARK    3  A    between atoms: C_11  and  N_12 
REMARK       I    between atoms: N_12  and  C_13 
REMARK       I    between atoms: C_13  and  N_14 
REMARK    4  A    between atoms: N_14  and  C_15 
REMARK    5  A    between atoms: C_15  and  C_16 
REMARK    6  A    between atoms: C_16  and  C_17 
REMARK    7  A    between atoms: C_16  and  C_19 
REMARK    8  A    between atoms: C_17  and  O_18 
REMARK    9  A    between atoms: C_19  and  C_20 
ROOT
HETATM    1  N   UNL     1      -7.147   4.257 -33.111  1.00  0.00    -0.309 N 
HETATM    2  C   UNL     1      -8.059   3.356 -33.556  1.00  0.00     0.320 C 
HETATM    3  N   UNL     1      -7.619   2.182 -34.083  1.00  0.00    -0.342 N 
HETATM    4  O   UNL     1      -9.253   3.624 -33.435  1.00  0.00    -0.247 OA
HETATM    5  H   UNL     1      -7.624   5.001 -32.616  1.00  0.00     0.170 HD
HETATM    6  H   UNL     1      -6.768   1.827 -33.659  1.00  0.00     0.164 HD
ENDROOT
BRANCH   1   7
HETATM    7  C   UNL     1      -5.756   4.399 -33.240  1.00  0.00     0.036 A 
HETATM    8  C   UNL     1      -5.101   4.944 -34.344  1.00  0.00     0.030 A 
HETATM    9  C   UNL     1      -3.704   5.060 -34.356  1.00  0.00     0.010 A 
HETATM   10  C   UNL     1      -2.940   4.651 -33.254  1.00  0.00    -0.051 A 
HETATM   11  C   UNL     1      -3.598   4.125 -32.138  1.00  0.00     0.010 A 
HETATM   12  C   UNL     1      -4.989   4.002 -32.135  1.00  0.00     0.030 A 
BRANCH  10  13
HETATM   13  C   UNL     1      -1.440   4.845 -33.240  1.00  0.00     0.118 C 
BRANCH  13  14
HETATM   14  C   UNL     1      -0.906   5.434 -31.977  1.00  0.00     0.126 A 
HETATM   15  N   UNL     1      -0.941   6.767 -31.672  1.00  0.00    -0.263 N 
HETATM   16  N   UNL     1      -0.381   7.014 -30.478  1.00  0.00    -0.158 NA
HETATM   17  H   UNL     1      -1.319   7.536 -32.216  1.00  0.00     0.190 HD
HETATM   18  C   UNL     1      -0.017   5.786 -30.093  1.00  0.00     0.144 A 
HETATM   19  C   UNL     1       0.653   5.520 -28.806  1.00  0.00     0.095 C 
HETATM   20  N   UNL     1      -0.324   4.792 -30.984  1.00  0.00    -0.217 NA
ENDBRANCH  13  14
ENDBRANCH  10  13
ENDBRANCH   1   7
BRANCH   3  21
HETATM   21  C   UNL     1      -8.589   1.163 -34.434  1.00  0.00     0.131 C 
BRANCH  21  22
HETATM   22  C   UNL     1      -8.571  -0.071 -33.519  1.00  0.00     0.033 C 
BRANCH  22  23
HETATM   23  C   UNL     1      -9.703  -0.014 -32.484  1.00  0.00     0.170 C 
BRANCH  23  24
HETATM   24  O   UNL     1      -9.606   1.142 -31.659  1.00  0.00    -0.400 OA
HETATM   25  H   UNL     1      -8.755   1.062 -31.185  1.00  0.00     0.209 HD
ENDBRANCH  23  24
ENDBRANCH  22  23
BRANCH  22  26
HETATM   26  C   UNL     1      -7.178  -0.255 -32.892  1.00  0.00     0.073 C 
BRANCH  26  27
HETATM   27  C   UNL     1      -6.386  -1.296 -33.600  1.00  0.00     0.053 A 
HETATM   28  O   UNL     1      -5.048  -1.327 -33.341  1.00  0.00    -0.327 OA
HETATM   29  C   UNL     1      -4.530  -2.349 -34.072  1.00  0.00     0.142 A 
HETATM   30  C   UNL     1      -5.518  -2.972 -34.798  1.00  0.00     0.027 A 
HETATM   31  C   UNL     1      -6.720  -2.289 -34.495  1.00  0.00     0.034 A 
ENDBRANCH  26  27
ENDBRANCH  22  26
ENDBRANCH  21  22
ENDBRANCH   3  21
TORSDOF 9
ENDMDL
