MODEL 1
REMARK VINA RESULT:      -8.8      0.000      0.000
REMARK  8 active torsions:
REMARK  status: ('A' for Active; 'I' for Inactive)
REMARK    1  A    between atoms: C_12  and  S_13 
REMARK    2  A    between atoms: S_13  and  C_14 
REMARK    3  A    between atoms: C_14  and  C_15 
REMARK       I    between atoms: C_15  and  N_16 
REMARK    4  A    between atoms: N_16  and  C_17 
REMARK    5  A    between atoms: C_17  and  C_18 
REMARK    6  A    between atoms: C_18  and  C_19 
REMARK    7  A    between atoms: C_21  and  O_22 
REMARK    8  A    between atoms: C_24  and  O_25 
ROOT
HETATM    1  C   UNL     1      -6.019   2.239 -30.953  1.00  0.00     0.185 C 
ENDROOT
BRANCH   1   2
HETATM    2  S   UNL     1      -4.693   1.971 -32.167  1.00  0.00    -0.080 SA
BRANCH   2   3
HETATM    3  C   UNL     1      -5.552   1.121 -33.407  1.00  0.00     0.197 A 
HETATM    4  N   UNL     1      -5.485  -0.233 -33.698  1.00  0.00    -0.271 N 
HETATM    5  C   UNL     1      -4.686  -1.316 -33.230  1.00  0.00     0.054 A 
HETATM    6  C   UNL     1      -6.477  -0.403 -34.658  1.00  0.00     0.159 A 
HETATM    7  C   UNL     1      -5.004  -2.604 -33.728  1.00  0.00    -0.003 A 
HETATM    8  C   UNL     1      -3.616  -1.156 -32.342  1.00  0.00     0.031 A 
HETATM    9  C   UNL     1      -6.110  -2.777 -34.706  1.00  0.00    -0.046 A 
HETATM   10  C   UNL     1      -4.246  -3.702 -33.285  1.00  0.00     0.014 A 
HETATM   11  C   UNL     1      -6.467  -4.147 -35.209  1.00  0.00     0.049 C 
HETATM   12  C   UNL     1      -6.780  -1.695 -35.137  1.00  0.00     0.060 A 
HETATM   13  C   UNL     1      -3.193  -3.533 -32.386  1.00  0.00     0.001 A 
HETATM   14  C   UNL     1      -2.876  -2.263 -31.922  1.00  0.00     0.002 A 
HETATM   15  N   UNL     1      -7.010   0.757 -34.975  1.00  0.00    -0.129 NA
HETATM   16  N   UNL     1      -6.428   1.711 -34.192  1.00  0.00    -0.122 NA
ENDBRANCH   2   3
ENDBRANCH   1   2
BRANCH   1  17
HETATM   17  C   UNL     1      -6.511   0.901 -30.433  1.00  0.00     0.227 C 
HETATM   18  N   UNL     1      -7.723   0.417 -30.852  1.00  0.00    -0.360 N 
HETATM   19  H   UNL     1      -7.969  -0.444 -30.373  1.00  0.00     0.162 HD
HETATM   20  O   UNL     1      -5.840   0.214 -29.659  1.00  0.00    -0.273 OA
BRANCH  18  21
HETATM   21  C   UNL     1      -8.800   1.183 -31.458  1.00  0.00     0.127 C 
BRANCH  21  22
HETATM   22  C   UNL     1      -9.535   0.390 -32.539  1.00  0.00     0.058 C 
BRANCH  22  23
HETATM   23  C   UNL     1     -10.394   1.299 -33.385  1.00  0.00    -0.054 A 
HETATM   24  C   UNL     1     -11.661   0.872 -33.814  1.00  0.00     0.046 A 
HETATM   25  C   UNL     1     -12.445   1.674 -34.650  1.00  0.00     0.102 A 
HETATM   26  C   UNL     1     -11.972   2.941 -35.043  1.00  0.00     0.101 A 
HETATM   27  C   UNL     1     -10.716   3.371 -34.604  1.00  0.00     0.040 A 
HETATM   28  C   UNL     1      -9.929   2.553 -33.787  1.00  0.00     0.010 A 
BRANCH  25  29
HETATM   29  O   UNL     1     -13.685   1.311 -35.117  1.00  0.00    -0.353 OA
HETATM   30  C   UNL     1     -14.710   1.135 -34.147  1.00  0.00     0.210 C 
ENDBRANCH  25  29
BRANCH  26  31
HETATM   31  O   UNL     1     -12.804   3.670 -35.856  1.00  0.00    -0.353 OA
HETATM   32  C   UNL     1     -12.897   5.067 -35.621  1.00  0.00     0.210 C 
ENDBRANCH  26  31
ENDBRANCH  22  23
ENDBRANCH  21  22
ENDBRANCH  18  21
ENDBRANCH   1  17
TORSDOF 8
ENDMDL
MODEL 2
REMARK VINA RESULT:      -8.8      5.156      8.754
REMARK  8 active torsions:
REMARK  status: ('A' for Active; 'I' for Inactive)
REMARK    1  A    between atoms: C_12  and  S_13 
REMARK    2  A    between atoms: S_13  and  C_14 
REMARK    3  A    between atoms: C_14  and  C_15 
REMARK       I    between atoms: C_15  and  N_16 
REMARK    4  A    between atoms: N_16  and  C_17 
REMARK    5  A    between atoms: C_17  and  C_18 
REMARK    6  A    between atoms: C_18  and  C_19 
REMARK    7  A    between atoms: C_21  and  O_22 
REMARK    8  A    between atoms: C_24  and  O_25 
ROOT
HETATM    1  C   UNL     1      -3.061   4.139 -33.034  1.00  0.00     0.185 C 
ENDROOT
BRANCH   1   2
HETATM    2  S   UNL     1      -4.437   3.456 -32.062  1.00  0.00    -0.080 SA
BRANCH   2   3
HETATM    3  C   UNL     1      -3.927   1.811 -31.885  1.00  0.00     0.197 A 
HETATM    4  N   UNL     1      -4.421   0.701 -32.553  1.00  0.00    -0.271 N 
HETATM    5  C   UNL     1      -5.503   0.479 -33.454  1.00  0.00     0.054 A 
HETATM    6  C   UNL     1      -3.564  -0.319 -32.157  1.00  0.00     0.159 A 
HETATM    7  C   UNL     1      -5.619  -0.822 -34.002  1.00  0.00    -0.003 A 
HETATM    8  C   UNL     1      -6.440   1.463 -33.789  1.00  0.00     0.031 A 
HETATM    9  C   UNL     1      -4.654  -1.885 -33.617  1.00  0.00    -0.046 A 
HETATM   10  C   UNL     1      -6.666  -1.082 -34.903  1.00  0.00     0.014 A 
HETATM   11  C   UNL     1      -4.759  -3.257 -34.222  1.00  0.00     0.049 C 
HETATM   12  C   UNL     1      -3.695  -1.607 -32.718  1.00  0.00     0.060 A 
HETATM   13  C   UNL     1      -7.585  -0.089 -35.243  1.00  0.00     0.001 A 
HETATM   14  C   UNL     1      -7.475   1.177 -34.683  1.00  0.00     0.002 A 
HETATM   15  N   UNL     1      -2.707   0.125 -31.264  1.00  0.00    -0.129 NA
HETATM   16  N   UNL     1      -2.936   1.459 -31.093  1.00  0.00    -0.122 NA
ENDBRANCH   2   3
ENDBRANCH   1   2
BRANCH   1  17
HETATM   17  C   UNL     1      -3.604   5.086 -34.089  1.00  0.00     0.227 C 
HETATM   18  N   UNL     1      -2.760   5.983 -34.690  1.00  0.00    -0.360 N 
HETATM   19  H   UNL     1      -3.259   6.606 -35.316  1.00  0.00     0.162 HD
HETATM   20  O   UNL     1      -4.783   5.059 -34.447  1.00  0.00    -0.273 OA
BRANCH  18  21
HETATM   21  C   UNL     1      -1.463   6.419 -34.197  1.00  0.00     0.127 C 
BRANCH  21  22
HETATM   22  C   UNL     1      -1.576   7.613 -33.250  1.00  0.00     0.058 C 
BRANCH  22  23
HETATM   23  C   UNL     1      -1.201   7.222 -31.841  1.00  0.00    -0.054 A 
HETATM   24  C   UNL     1      -2.085   7.482 -30.781  1.00  0.00     0.046 A 
HETATM   25  C   UNL     1      -1.730   7.185 -29.461  1.00  0.00     0.102 A 
HETATM   26  C   UNL     1      -0.483   6.587 -29.192  1.00  0.00     0.101 A 
HETATM   27  C   UNL     1       0.389   6.316 -30.250  1.00  0.00     0.040 A 
HETATM   28  C   UNL     1       0.037   6.638 -31.565  1.00  0.00     0.010 A 
BRANCH  25  29
HETATM   29  O   UNL     1      -2.539   7.426 -28.377  1.00  0.00    -0.353 OA
HETATM   30  C   UNL     1      -3.899   7.026 -28.490  1.00  0.00     0.210 C 
ENDBRANCH  25  29
BRANCH  26  31
HETATM   31  O   UNL     1      -0.214   6.319 -27.873  1.00  0.00    -0.353 OA
HETATM   32  C   UNL     1       0.864   7.014 -27.266  1.00  0.00     0.210 C 
ENDBRANCH  26  31
ENDBRANCH  22  23
ENDBRANCH  21  22
ENDBRANCH  18  21
ENDBRANCH   1  17
TORSDOF 8
ENDMDL
MODEL 3
REMARK VINA RESULT:      -8.7      5.238      8.752
REMARK  8 active torsions:
REMARK  status: ('A' for Active; 'I' for Inactive)
REMARK    1  A    between atoms: C_12  and  S_13 
REMARK    2  A    between atoms: S_13  and  C_14 
REMARK    3  A    between atoms: C_14  and  C_15 
REMARK       I    between atoms: C_15  and  N_16 
REMARK    4  A    between atoms: N_16  and  C_17 
REMARK    5  A    between atoms: C_17  and  C_18 
REMARK    6  A    between atoms: C_18  and  C_19 
REMARK    7  A    between atoms: C_21  and  O_22 
REMARK    8  A    between atoms: C_24  and  O_25 
ROOT
HETATM    1  C   UNL     1      -3.764   4.376 -32.919  1.00  0.00     0.185 C 
ENDROOT
BRANCH   1   2
HETATM    2  S   UNL     1      -5.063   3.109 -32.832  1.00  0.00    -0.080 SA
BRANCH   2   3
HETATM    3  C   UNL     1      -4.180   1.781 -32.158  1.00  0.00     0.197 A 
HETATM    4  N   UNL     1      -4.303   0.439 -32.481  1.00  0.00    -0.271 N 
HETATM    5  C   UNL     1      -5.188  -0.311 -33.310  1.00  0.00     0.054 A 
HETATM    6  C   UNL     1      -3.266  -0.158 -31.772  1.00  0.00     0.159 A 
HETATM    7  C   UNL     1      -4.912  -1.694 -33.449  1.00  0.00    -0.003 A 
HETATM    8  C   UNL     1      -6.298   0.247 -33.952  1.00  0.00     0.031 A 
HETATM    9  C   UNL     1      -3.760  -2.303 -32.734  1.00  0.00    -0.046 A 
HETATM   10  C   UNL     1      -5.754  -2.469 -34.265  1.00  0.00     0.014 A 
HETATM   11  C   UNL     1      -3.449  -3.763 -32.907  1.00  0.00     0.049 C 
HETATM   12  C   UNL     1      -3.007  -1.536 -31.929  1.00  0.00     0.060 A 
HETATM   13  C   UNL     1      -6.849  -1.899 -34.915  1.00  0.00     0.001 A 
HETATM   14  C   UNL     1      -7.122  -0.547 -34.753  1.00  0.00     0.002 A 
HETATM   15  N   UNL     1      -2.652   0.733 -31.025  1.00  0.00    -0.129 NA
HETATM   16  N   UNL     1      -3.226   1.946 -31.266  1.00  0.00    -0.122 NA
ENDBRANCH   2   3
ENDBRANCH   1   2
BRANCH   1  17
HETATM   17  C   UNL     1      -3.748   4.995 -34.305  1.00  0.00     0.227 C 
HETATM   18  N   UNL     1      -2.550   5.335 -34.878  1.00  0.00    -0.360 N 
HETATM   19  H   UNL     1      -2.681   5.807 -35.767  1.00  0.00     0.162 HD
HETATM   20  O   UNL     1      -4.781   5.180 -34.950  1.00  0.00    -0.273 OA
BRANCH  18  21
HETATM   21  C   UNL     1      -1.283   5.528 -34.192  1.00  0.00     0.127 C 
BRANCH  21  22
HETATM   22  C   UNL     1      -1.016   6.999 -33.873  1.00  0.00     0.058 C 
BRANCH  22  23
HETATM   23  C   UNL     1      -1.121   7.258 -32.390  1.00  0.00    -0.054 A 
HETATM   24  C   UNL     1      -0.480   6.403 -31.479  1.00  0.00     0.046 A 
HETATM   25  C   UNL     1      -0.619   6.589 -30.099  1.00  0.00     0.102 A 
HETATM   26  C   UNL     1      -1.383   7.668 -29.615  1.00  0.00     0.101 A 
HETATM   27  C   UNL     1      -2.009   8.527 -30.524  1.00  0.00     0.040 A 
HETATM   28  C   UNL     1      -1.886   8.320 -31.901  1.00  0.00     0.010 A 
BRANCH  25  29
HETATM   29  O   UNL     1      -0.031   5.783 -29.155  1.00  0.00    -0.353 OA
HETATM   30  C   UNL     1       0.889   4.806 -29.626  1.00  0.00     0.210 C 
ENDBRANCH  25  29
BRANCH  26  31
HETATM   31  O   UNL     1      -1.462   7.788 -28.250  1.00  0.00    -0.353 OA
HETATM   32  C   UNL     1      -0.809   8.894 -27.646  1.00  0.00     0.210 C 
ENDBRANCH  26  31
ENDBRANCH  22  23
ENDBRANCH  21  22
ENDBRANCH  18  21
ENDBRANCH   1  17
TORSDOF 8
ENDMDL
MODEL 4
REMARK VINA RESULT:      -8.5      4.909      8.171
REMARK  8 active torsions:
REMARK  status: ('A' for Active; 'I' for Inactive)
REMARK    1  A    between atoms: C_12  and  S_13 
REMARK    2  A    between atoms: S_13  and  C_14 
REMARK    3  A    between atoms: C_14  and  C_15 
REMARK       I    between atoms: C_15  and  N_16 
REMARK    4  A    between atoms: N_16  and  C_17 
REMARK    5  A    between atoms: C_17  and  C_18 
REMARK    6  A    between atoms: C_18  and  C_19 
REMARK    7  A    between atoms: C_21  and  O_22 
REMARK    8  A    between atoms: C_24  and  O_25 
ROOT
HETATM    1  C   UNL     1      -4.019   3.818 -32.930  1.00  0.00     0.185 C 
ENDROOT
BRANCH   1   2
HETATM    2  S   UNL     1      -5.498   3.219 -32.060  1.00  0.00    -0.080 SA
BRANCH   2   3
HETATM    3  C   UNL     1      -6.172   2.159 -33.252  1.00  0.00     0.197 A 
HETATM    4  N   UNL     1      -5.848   0.830 -33.474  1.00  0.00    -0.271 N 
HETATM    5  C   UNL     1      -4.861  -0.057 -32.955  1.00  0.00     0.054 A 
HETATM    6  C   UNL     1      -6.783   0.426 -34.421  1.00  0.00     0.159 A 
HETATM    7  C   UNL     1      -4.925  -1.405 -33.385  1.00  0.00    -0.003 A 
HETATM    8  C   UNL     1      -3.846   0.348 -32.080  1.00  0.00     0.031 A 
HETATM    9  C   UNL     1      -5.972  -1.834 -34.349  1.00  0.00    -0.046 A 
HETATM   10  C   UNL     1      -3.976  -2.316 -32.889  1.00  0.00     0.014 A 
HETATM   11  C   UNL     1      -6.060  -3.271 -34.781  1.00  0.00     0.049 C 
HETATM   12  C   UNL     1      -6.833  -0.922 -34.832  1.00  0.00     0.060 A 
HETATM   13  C   UNL     1      -2.980  -1.905 -32.004  1.00  0.00     0.001 A 
HETATM   14  C   UNL     1      -2.912  -0.576 -31.606  1.00  0.00     0.002 A 
HETATM   15  N   UNL     1      -7.524   1.446 -34.795  1.00  0.00    -0.129 NA
HETATM   16  N   UNL     1      -7.139   2.532 -34.063  1.00  0.00    -0.122 NA
ENDBRANCH   2   3
ENDBRANCH   1   2
BRANCH   1  17
HETATM   17  C   UNL     1      -4.377   5.033 -33.766  1.00  0.00     0.227 C 
HETATM   18  N   UNL     1      -3.495   5.484 -34.714  1.00  0.00    -0.360 N 
HETATM   19  H   UNL     1      -3.818   6.343 -35.147  1.00  0.00     0.162 HD
HETATM   20  O   UNL     1      -5.454   5.619 -33.640  1.00  0.00    -0.273 OA
BRANCH  18  21
HETATM   21  C   UNL     1      -2.076   5.180 -34.794  1.00  0.00     0.127 C 
BRANCH  21  22
HETATM   22  C   UNL     1      -1.208   6.337 -34.299  1.00  0.00     0.058 C 
BRANCH  22  23
HETATM   23  C   UNL     1      -1.130   6.348 -32.792  1.00  0.00    -0.054 A 
HETATM   24  C   UNL     1      -1.461   7.511 -32.078  1.00  0.00     0.046 A 
HETATM   25  C   UNL     1      -1.334   7.560 -30.685  1.00  0.00     0.102 A 
HETATM   26  C   UNL     1      -0.900   6.418 -29.985  1.00  0.00     0.101 A 
HETATM   27  C   UNL     1      -0.584   5.256 -30.696  1.00  0.00     0.040 A 
HETATM   28  C   UNL     1      -0.691   5.223 -32.090  1.00  0.00     0.010 A 
BRANCH  25  29
HETATM   29  O   UNL     1      -1.627   8.668 -29.928  1.00  0.00    -0.353 OA
HETATM   30  C   UNL     1      -2.465   9.650 -30.524  1.00  0.00     0.210 C 
ENDBRANCH  25  29
BRANCH  26  31
HETATM   31  O   UNL     1      -0.811   6.544 -28.621  1.00  0.00    -0.353 OA
HETATM   32  C   UNL     1       0.474   6.422 -28.030  1.00  0.00     0.210 C 
ENDBRANCH  26  31
ENDBRANCH  22  23
ENDBRANCH  21  22
ENDBRANCH  18  21
ENDBRANCH   1  17
TORSDOF 8
ENDMDL
MODEL 5
REMARK VINA RESULT:      -8.3      6.014      9.628
REMARK  8 active torsions:
REMARK  status: ('A' for Active; 'I' for Inactive)
REMARK    1  A    between atoms: C_12  and  S_13 
REMARK    2  A    between atoms: S_13  and  C_14 
REMARK    3  A    between atoms: C_14  and  C_15 
REMARK       I    between atoms: C_15  and  N_16 
REMARK    4  A    between atoms: N_16  and  C_17 
REMARK    5  A    between atoms: C_17  and  C_18 
REMARK    6  A    between atoms: C_18  and  C_19 
REMARK    7  A    between atoms: C_21  and  O_22 
REMARK    8  A    between atoms: C_24  and  O_25 
ROOT
HETATM    1  C   UNL     1      -3.423   4.628 -32.867  1.00  0.00     0.185 C 
ENDROOT
BRANCH   1   2
HETATM    2  S   UNL     1      -2.902   6.247 -32.225  1.00  0.00    -0.080 SA
BRANCH   2   3
HETATM    3  C   UNL     1      -1.523   5.794 -31.279  1.00  0.00     0.197 A 
HETATM    4  N   UNL     1      -0.965   6.492 -30.219  1.00  0.00    -0.271 N 
HETATM    5  C   UNL     1      -1.199   7.769 -29.632  1.00  0.00     0.054 A 
HETATM    6  C   UNL     1       0.001   5.618 -29.734  1.00  0.00     0.159 A 
HETATM    7  C   UNL     1      -0.456   8.081 -28.467  1.00  0.00    -0.003 A 
HETATM    8  C   UNL     1      -2.092   8.707 -30.161  1.00  0.00     0.031 A 
HETATM    9  C   UNL     1       0.528   7.107 -27.924  1.00  0.00    -0.046 A 
HETATM   10  C   UNL     1      -0.662   9.326 -27.850  1.00  0.00     0.014 A 
HETATM   11  C   UNL     1       1.294   7.425 -26.671  1.00  0.00     0.049 C 
HETATM   12  C   UNL     1       0.727   5.946 -28.570  1.00  0.00     0.060 A 
HETATM   13  C   UNL     1      -1.567  10.248 -28.377  1.00  0.00     0.001 A 
HETATM   14  C   UNL     1      -2.275   9.941 -29.532  1.00  0.00     0.002 A 
HETATM   15  N   UNL     1       0.074   4.548 -30.496  1.00  0.00    -0.129 NA
HETATM   16  N   UNL     1      -0.880   4.660 -31.464  1.00  0.00    -0.122 NA
ENDBRANCH   2   3
ENDBRANCH   1   2
BRANCH   1  17
HETATM   17  C   UNL     1      -4.325   4.825 -34.071  1.00  0.00     0.227 C 
HETATM   18  N   UNL     1      -5.533   4.179 -34.124  1.00  0.00    -0.360 N 
HETATM   19  H   UNL     1      -6.002   4.333 -35.010  1.00  0.00     0.162 HD
HETATM   20  O   UNL     1      -4.019   5.573 -35.002  1.00  0.00    -0.273 OA
BRANCH  18  21
HETATM   21  C   UNL     1      -5.932   3.021 -33.341  1.00  0.00     0.127 C 
BRANCH  21  22
HETATM   22  C   UNL     1      -6.874   2.098 -34.113  1.00  0.00     0.058 C 
BRANCH  22  23
HETATM   23  C   UNL     1      -6.374   0.674 -34.090  1.00  0.00    -0.054 A 
HETATM   24  C   UNL     1      -5.286   0.323 -33.273  1.00  0.00     0.046 A 
HETATM   25  C   UNL     1      -4.768  -0.976 -33.285  1.00  0.00     0.102 A 
HETATM   26  C   UNL     1      -5.364  -1.956 -34.100  1.00  0.00     0.101 A 
HETATM   27  C   UNL     1      -6.456  -1.610 -34.902  1.00  0.00     0.040 A 
HETATM   28  C   UNL     1      -6.953  -0.303 -34.902  1.00  0.00     0.010 A 
BRANCH  25  29
HETATM   29  O   UNL     1      -3.698  -1.381 -32.523  1.00  0.00    -0.353 OA
HETATM   30  C   UNL     1      -3.290  -0.511 -31.475  1.00  0.00     0.210 C 
ENDBRANCH  25  29
BRANCH  26  31
HETATM   31  O   UNL     1      -4.803  -3.208 -34.048  1.00  0.00    -0.353 OA
HETATM   32  C   UNL     1      -5.451  -4.251 -34.761  1.00  0.00     0.210 C 
ENDBRANCH  26  31
ENDBRANCH  22  23
ENDBRANCH  21  22
ENDBRANCH  18  21
ENDBRANCH   1  17
TORSDOF 8
ENDMDL
MODEL 6
REMARK VINA RESULT:      -8.1      5.118      8.305
REMARK  8 active torsions:
REMARK  status: ('A' for Active; 'I' for Inactive)
REMARK    1  A    between atoms: C_12  and  S_13 
REMARK    2  A    between atoms: S_13  and  C_14 
REMARK    3  A    between atoms: C_14  and  C_15 
REMARK       I    between atoms: C_15  and  N_16 
REMARK    4  A    between atoms: N_16  and  C_17 
REMARK    5  A    between atoms: C_17  and  C_18 
REMARK    6  A    between atoms: C_18  and  C_19 
REMARK    7  A    between atoms: C_21  and  O_22 
REMARK    8  A    between atoms: C_24  and  O_25 
ROOT
HETATM    1  C   UNL     1      -4.299   3.775 -32.939  1.00  0.00     0.185 C 
ENDROOT
BRANCH   1   2
HETATM    2  S   UNL     1      -5.472   2.747 -32.005  1.00  0.00    -0.080 SA
BRANCH   2   3
HETATM    3  C   UNL     1      -6.119   1.758 -33.271  1.00  0.00     0.197 A 
HETATM    4  N   UNL     1      -5.817   0.433 -33.539  1.00  0.00    -0.271 N 
HETATM    5  C   UNL     1      -4.873  -0.501 -33.020  1.00  0.00     0.054 A 
HETATM    6  C   UNL     1      -6.720   0.095 -34.541  1.00  0.00     0.159 A 
HETATM    7  C   UNL     1      -4.951  -1.827 -33.513  1.00  0.00    -0.003 A 
HETATM    8  C   UNL     1      -3.888  -0.160 -32.086  1.00  0.00     0.031 A 
HETATM    9  C   UNL     1      -5.966  -2.186 -34.538  1.00  0.00    -0.046 A 
HETATM   10  C   UNL     1      -4.045  -2.782 -33.020  1.00  0.00     0.014 A 
HETATM   11  C   UNL     1      -6.069  -3.599 -35.038  1.00  0.00     0.049 C 
HETATM   12  C   UNL     1      -6.784  -1.233 -35.015  1.00  0.00     0.060 A 
HETATM   13  C   UNL     1      -3.077  -2.435 -32.077  1.00  0.00     0.001 A 
HETATM   14  C   UNL     1      -2.997  -1.128 -31.617  1.00  0.00     0.002 A 
HETATM   15  N   UNL     1      -7.421   1.149 -34.898  1.00  0.00    -0.129 NA
HETATM   16  N   UNL     1      -7.043   2.190 -34.104  1.00  0.00    -0.122 NA
ENDBRANCH   2   3
ENDBRANCH   1   2
BRANCH   1  17
HETATM   17  C   UNL     1      -2.929   3.702 -32.290  1.00  0.00     0.227 C 
HETATM   18  N   UNL     1      -1.966   4.612 -32.641  1.00  0.00    -0.360 N 
HETATM   19  H   UNL     1      -1.077   4.407 -32.196  1.00  0.00     0.162 HD
HETATM   20  O   UNL     1      -2.657   2.860 -31.431  1.00  0.00    -0.273 OA
BRANCH  18  21
HETATM   21  C   UNL     1      -1.947   5.437 -33.838  1.00  0.00     0.127 C 
BRANCH  21  22
HETATM   22  C   UNL     1      -1.007   6.634 -33.699  1.00  0.00     0.058 C 
BRANCH  22  23
HETATM   23  C   UNL     1      -1.102   7.238 -32.319  1.00  0.00    -0.054 A 
HETATM   24  C   UNL     1      -0.156   6.901 -31.337  1.00  0.00     0.046 A 
HETATM   25  C   UNL     1      -0.263   7.401 -30.034  1.00  0.00     0.102 A 
HETATM   26  C   UNL     1      -1.314   8.281 -29.710  1.00  0.00     0.101 A 
HETATM   27  C   UNL     1      -2.246   8.627 -30.693  1.00  0.00     0.040 A 
HETATM   28  C   UNL     1      -2.146   8.104 -31.986  1.00  0.00     0.010 A 
BRANCH  25  29
HETATM   29  O   UNL     1       0.617   7.100 -29.024  1.00  0.00    -0.353 OA
HETATM   30  C   UNL     1       0.542   5.790 -28.475  1.00  0.00     0.210 C 
ENDBRANCH  25  29
BRANCH  26  31
HETATM   31  O   UNL     1      -1.344   8.734 -28.415  1.00  0.00    -0.353 OA
HETATM   32  C   UNL     1      -2.613   9.017 -27.845  1.00  0.00     0.210 C 
ENDBRANCH  26  31
ENDBRANCH  22  23
ENDBRANCH  21  22
ENDBRANCH  18  21
ENDBRANCH   1  17
TORSDOF 8
ENDMDL
MODEL 7
REMARK VINA RESULT:      -8.1      3.125      6.791
REMARK  8 active torsions:
REMARK  status: ('A' for Active; 'I' for Inactive)
REMARK    1  A    between atoms: C_12  and  S_13 
REMARK    2  A    between atoms: S_13  and  C_14 
REMARK    3  A    between atoms: C_14  and  C_15 
REMARK       I    between atoms: C_15  and  N_16 
REMARK    4  A    between atoms: N_16  and  C_17 
REMARK    5  A    between atoms: C_17  and  C_18 
REMARK    6  A    between atoms: C_18  and  C_19 
REMARK    7  A    between atoms: C_21  and  O_22 
REMARK    8  A    between atoms: C_24  and  O_25 
ROOT
HETATM    1  C   UNL     1      -9.251   1.616 -34.524  1.00  0.00     0.185 C 
ENDROOT
BRANCH   1   2
HETATM    2  S   UNL     1      -9.712   0.575 -33.108  1.00  0.00    -0.080 SA
BRANCH   2   3
HETATM    3  C   UNL     1      -8.426   0.935 -32.005  1.00  0.00     0.197 A 
HETATM    4  N   UNL     1      -7.135   0.431 -32.025  1.00  0.00    -0.271 N 
HETATM    5  C   UNL     1      -6.464  -0.562 -32.796  1.00  0.00     0.054 A 
HETATM    6  C   UNL     1      -6.491   1.161 -31.033  1.00  0.00     0.159 A 
HETATM    7  C   UNL     1      -5.075  -0.718 -32.563  1.00  0.00    -0.003 A 
HETATM    8  C   UNL     1      -7.111  -1.380 -33.729  1.00  0.00     0.031 A 
HETATM    9  C   UNL     1      -4.389   0.115 -31.542  1.00  0.00    -0.046 A 
HETATM   10  C   UNL     1      -4.372  -1.681 -33.309  1.00  0.00     0.014 A 
HETATM   11  C   UNL     1      -2.910  -0.029 -31.317  1.00  0.00     0.049 C 
HETATM   12  C   UNL     1      -5.107   0.992 -30.820  1.00  0.00     0.060 A 
HETATM   13  C   UNL     1      -5.025  -2.479 -34.248  1.00  0.00     0.001 A 
HETATM   14  C   UNL     1      -6.390  -2.333 -34.452  1.00  0.00     0.002 A 
HETATM   15  N   UNL     1      -7.345   1.950 -30.418  1.00  0.00    -0.129 NA
HETATM   16  N   UNL     1      -8.558   1.807 -31.027  1.00  0.00    -0.122 NA
ENDBRANCH   2   3
ENDBRANCH   1   2
BRANCH   1  17
HETATM   17  C   UNL     1      -9.784   3.022 -34.317  1.00  0.00     0.227 C 
HETATM   18  N   UNL     1      -8.903   4.064 -34.177  1.00  0.00    -0.360 N 
HETATM   19  H   UNL     1      -9.383   4.934 -33.969  1.00  0.00     0.162 HD
HETATM   20  O   UNL     1     -10.991   3.267 -34.295  1.00  0.00    -0.273 OA
BRANCH  18  21
HETATM   21  C   UNL     1      -7.495   3.970 -33.830  1.00  0.00     0.127 C 
BRANCH  21  22
HETATM   22  C   UNL     1      -7.129   4.866 -32.648  1.00  0.00     0.058 C 
BRANCH  22  23
HETATM   23  C   UNL     1      -5.672   4.714 -32.286  1.00  0.00    -0.054 A 
HETATM   24  C   UNL     1      -4.716   4.490 -33.291  1.00  0.00     0.046 A 
HETATM   25  C   UNL     1      -3.371   4.284 -32.970  1.00  0.00     0.102 A 
HETATM   26  C   UNL     1      -2.960   4.335 -31.624  1.00  0.00     0.101 A 
HETATM   27  C   UNL     1      -3.909   4.572 -30.625  1.00  0.00     0.040 A 
HETATM   28  C   UNL     1      -5.257   4.753 -30.953  1.00  0.00     0.010 A 
BRANCH  25  29
HETATM   29  O   UNL     1      -2.389   4.046 -33.901  1.00  0.00    -0.353 OA
HETATM   30  C   UNL     1      -2.079   5.109 -34.794  1.00  0.00     0.210 C 
ENDBRANCH  25  29
BRANCH  26  31
HETATM   31  O   UNL     1      -1.622   4.132 -31.393  1.00  0.00    -0.353 OA
HETATM   32  C   UNL     1      -0.855   5.239 -30.942  1.00  0.00     0.210 C 
ENDBRANCH  26  31
ENDBRANCH  22  23
ENDBRANCH  21  22
ENDBRANCH  18  21
ENDBRANCH   1  17
TORSDOF 8
ENDMDL
MODEL 8
REMARK VINA RESULT:      -8.0      6.344      9.938
REMARK  8 active torsions:
REMARK  status: ('A' for Active; 'I' for Inactive)
REMARK    1  A    between atoms: C_12  and  S_13 
REMARK    2  A    between atoms: S_13  and  C_14 
REMARK    3  A    between atoms: C_14  and  C_15 
REMARK       I    between atoms: C_15  and  N_16 
REMARK    4  A    between atoms: N_16  and  C_17 
REMARK    5  A    between atoms: C_17  and  C_18 
REMARK    6  A    between atoms: C_18  and  C_19 
REMARK    7  A    between atoms: C_21  and  O_22 
REMARK    8  A    between atoms: C_24  and  O_25 
ROOT
HETATM    1  C   UNL     1      -3.233   4.679 -31.700  1.00  0.00     0.185 C 
ENDROOT
BRANCH   1   2
HETATM    2  S   UNL     1      -4.600   3.689 -32.373  1.00  0.00    -0.080 SA
BRANCH   2   3
HETATM    3  C   UNL     1      -4.020   2.085 -32.073  1.00  0.00     0.197 A 
HETATM    4  N   UNL     1      -4.468   0.908 -32.651  1.00  0.00    -0.271 N 
HETATM    5  C   UNL     1      -5.542   0.571 -33.527  1.00  0.00     0.054 A 
HETATM    6  C   UNL     1      -3.568  -0.042 -32.182  1.00  0.00     0.159 A 
HETATM    7  C   UNL     1      -5.603  -0.772 -33.973  1.00  0.00    -0.003 A 
HETATM    8  C   UNL     1      -6.520   1.486 -33.932  1.00  0.00     0.031 A 
HETATM    9  C   UNL     1      -4.593  -1.761 -33.511  1.00  0.00    -0.046 A 
HETATM   10  C   UNL     1      -6.640  -1.145 -34.845  1.00  0.00     0.014 A 
HETATM   11  C   UNL     1      -4.640  -3.178 -34.009  1.00  0.00     0.049 C 
HETATM   12  C   UNL     1      -3.645  -1.374 -32.642  1.00  0.00     0.060 A 
HETATM   13  C   UNL     1      -7.601  -0.220 -35.256  1.00  0.00     0.001 A 
HETATM   14  C   UNL     1      -7.543   1.088 -34.795  1.00  0.00     0.002 A 
HETATM   15  N   UNL     1      -2.729   0.505 -31.330  1.00  0.00    -0.129 NA
HETATM   16  N   UNL     1      -3.014   1.837 -31.261  1.00  0.00    -0.122 NA
ENDBRANCH   2   3
ENDBRANCH   1   2
BRANCH   1  17
HETATM   17  C   UNL     1      -2.226   4.970 -32.798  1.00  0.00     0.227 C 
HETATM   18  N   UNL     1      -1.120   5.729 -32.517  1.00  0.00    -0.360 N 
HETATM   19  H   UNL     1      -0.570   5.913 -33.350  1.00  0.00     0.162 HD
HETATM   20  O   UNL     1      -2.356   4.522 -33.939  1.00  0.00    -0.273 OA
BRANCH  18  21
HETATM   21  C   UNL     1      -0.945   6.621 -31.382  1.00  0.00     0.127 C 
BRANCH  21  22
HETATM   22  C   UNL     1       0.226   6.203 -30.493  1.00  0.00     0.058 C 
BRANCH  22  23
HETATM   23  C   UNL     1       0.175   6.915 -29.163  1.00  0.00    -0.054 A 
HETATM   24  C   UNL     1      -0.364   8.209 -29.077  1.00  0.00     0.046 A 
HETATM   25  C   UNL     1      -0.363   8.909 -27.866  1.00  0.00     0.102 A 
HETATM   26  C   UNL     1       0.156   8.298 -26.709  1.00  0.00     0.101 A 
HETATM   27  C   UNL     1       0.679   7.004 -26.792  1.00  0.00     0.040 A 
HETATM   28  C   UNL     1       0.696   6.320 -28.011  1.00  0.00     0.010 A 
BRANCH  25  29
HETATM   29  O   UNL     1      -0.860  10.181 -27.717  1.00  0.00    -0.353 OA
HETATM   30  C   UNL     1      -2.062  10.487 -28.413  1.00  0.00     0.210 C 
ENDBRANCH  25  29
BRANCH  26  31
HETATM   31  O   UNL     1       0.112   9.047 -25.559  1.00  0.00    -0.353 OA
HETATM   32  C   UNL     1       1.334   9.585 -25.076  1.00  0.00     0.210 C 
ENDBRANCH  26  31
ENDBRANCH  22  23
ENDBRANCH  21  22
ENDBRANCH  18  21
ENDBRANCH   1  17
TORSDOF 8
ENDMDL
MODEL 9
REMARK VINA RESULT:      -7.9      4.405      7.971
REMARK  8 active torsions:
REMARK  status: ('A' for Active; 'I' for Inactive)
REMARK    1  A    between atoms: C_12  and  S_13 
REMARK    2  A    between atoms: S_13  and  C_14 
REMARK    3  A    between atoms: C_14  and  C_15 
REMARK       I    between atoms: C_15  and  N_16 
REMARK    4  A    between atoms: N_16  and  C_17 
REMARK    5  A    between atoms: C_17  and  C_18 
REMARK    6  A    between atoms: C_18  and  C_19 
REMARK    7  A    between atoms: C_21  and  O_22 
REMARK    8  A    between atoms: C_24  and  O_25 
ROOT
HETATM    1  C   UNL     1      -6.156   3.427 -32.895  1.00  0.00     0.185 C 
ENDROOT
BRANCH   1   2
HETATM    2  S   UNL     1      -6.229   5.182 -33.361  1.00  0.00    -0.080 SA
BRANCH   2   3
HETATM    3  C   UNL     1      -4.577   5.474 -33.795  1.00  0.00     0.197 A 
HETATM    4  N   UNL     1      -3.558   5.920 -32.968  1.00  0.00    -0.271 N 
HETATM    5  C   UNL     1      -3.495   6.382 -31.622  1.00  0.00     0.054 A 
HETATM    6  C   UNL     1      -2.429   5.826 -33.774  1.00  0.00     0.159 A 
HETATM    7  C   UNL     1      -2.207   6.664 -31.104  1.00  0.00    -0.003 A 
HETATM    8  C   UNL     1      -4.627   6.582 -30.823  1.00  0.00     0.031 A 
HETATM    9  C   UNL     1      -1.003   6.497 -31.960  1.00  0.00    -0.046 A 
HETATM   10  C   UNL     1      -2.098   7.113 -29.777  1.00  0.00     0.014 A 
HETATM   11  C   UNL     1       0.366   6.767 -31.402  1.00  0.00     0.049 C 
HETATM   12  C   UNL     1      -1.155   6.108 -33.237  1.00  0.00     0.060 A 
HETATM   13  C   UNL     1      -3.232   7.293 -28.984  1.00  0.00     0.001 A 
HETATM   14  C   UNL     1      -4.491   7.034 -29.509  1.00  0.00     0.002 A 
HETATM   15  N   UNL     1      -2.764   5.454 -34.990  1.00  0.00    -0.129 NA
HETATM   16  N   UNL     1      -4.111   5.235 -35.002  1.00  0.00    -0.122 NA
ENDBRANCH   2   3
ENDBRANCH   1   2
BRANCH   1  17
HETATM   17  C   UNL     1      -5.890   3.307 -31.405  1.00  0.00     0.227 C 
HETATM   18  N   UNL     1      -4.748   2.685 -30.971  1.00  0.00    -0.360 N 
HETATM   19  H   UNL     1      -4.728   2.603 -29.960  1.00  0.00     0.162 HD
HETATM   20  O   UNL     1      -6.659   3.777 -30.564  1.00  0.00    -0.273 OA
BRANCH  18  21
HETATM   21  C   UNL     1      -3.907   1.781 -31.739  1.00  0.00     0.127 C 
BRANCH  21  22
HETATM   22  C   UNL     1      -3.970   0.347 -31.215  1.00  0.00     0.058 C 
BRANCH  22  23
HETATM   23  C   UNL     1      -4.331  -0.616 -32.320  1.00  0.00    -0.054 A 
HETATM   24  C   UNL     1      -5.314  -0.269 -33.262  1.00  0.00     0.046 A 
HETATM   25  C   UNL     1      -5.708  -1.173 -34.255  1.00  0.00     0.102 A 
HETATM   26  C   UNL     1      -5.088  -2.435 -34.334  1.00  0.00     0.101 A 
HETATM   27  C   UNL     1      -4.100  -2.773 -33.404  1.00  0.00     0.040 A 
HETATM   28  C   UNL     1      -3.729  -1.873 -32.400  1.00  0.00     0.010 A 
BRANCH  25  29
HETATM   29  O   UNL     1      -6.671  -0.904 -35.197  1.00  0.00    -0.353 OA
HETATM   30  C   UNL     1      -7.277   0.382 -35.147  1.00  0.00     0.210 C 
ENDBRANCH  25  29
BRANCH  26  31
HETATM   31  O   UNL     1      -5.524  -3.259 -35.341  1.00  0.00    -0.353 OA
HETATM   32  C   UNL     1      -6.370  -4.342 -34.987  1.00  0.00     0.210 C 
ENDBRANCH  26  31
ENDBRANCH  22  23
ENDBRANCH  21  22
ENDBRANCH  18  21
ENDBRANCH   1  17
TORSDOF 8
ENDMDL
MODEL 10
REMARK VINA RESULT:      -7.9      1.911      3.107
REMARK  8 active torsions:
REMARK  status: ('A' for Active; 'I' for Inactive)
REMARK    1  A    between atoms: C_12  and  S_13 
REMARK    2  A    between atoms: S_13  and  C_14 
REMARK    3  A    between atoms: C_14  and  C_15 
REMARK       I    between atoms: C_15  and  N_16 
REMARK    4  A    between atoms: N_16  and  C_17 
REMARK    5  A    between atoms: C_17  and  C_18 
REMARK    6  A    between atoms: C_18  and  C_19 
REMARK    7  A    between atoms: C_21  and  O_22 
REMARK    8  A    between atoms: C_24  and  O_25 
ROOT
HETATM    1  C   UNL     1      -5.092   3.008 -30.171  1.00  0.00     0.185 C 
ENDROOT
BRANCH   1   2
HETATM    2  S   UNL     1      -4.350   2.875 -31.824  1.00  0.00    -0.080 SA
BRANCH   2   3
HETATM    3  C   UNL     1      -3.941   1.193 -31.865  1.00  0.00     0.197 A 
HETATM    4  N   UNL     1      -4.533   0.203 -32.634  1.00  0.00    -0.271 N 
HETATM    5  C   UNL     1      -5.662   0.155 -33.502  1.00  0.00     0.054 A 
HETATM    6  C   UNL     1      -3.729  -0.907 -32.401  1.00  0.00     0.159 A 
HETATM    7  C   UNL     1      -5.885  -1.062 -34.192  1.00  0.00    -0.003 A 
HETATM    8  C   UNL     1      -6.546   1.226 -33.675  1.00  0.00     0.031 A 
HETATM    9  C   UNL     1      -4.976  -2.220 -33.979  1.00  0.00    -0.046 A 
HETATM   10  C   UNL     1      -6.982  -1.150 -35.066  1.00  0.00     0.014 A 
HETATM   11  C   UNL     1      -5.194  -3.500 -34.735  1.00  0.00     0.049 C 
HETATM   12  C   UNL     1      -3.966  -2.109 -33.101  1.00  0.00     0.060 A 
HETATM   13  C   UNL     1      -7.847  -0.070 -35.244  1.00  0.00     0.001 A 
HETATM   14  C   UNL     1      -7.632   1.111 -34.546  1.00  0.00     0.002 A 
HETATM   15  N   UNL     1      -2.809  -0.625 -31.504  1.00  0.00    -0.129 NA
HETATM   16  N   UNL     1      -2.944   0.690 -31.168  1.00  0.00    -0.122 NA
ENDBRANCH   2   3
ENDBRANCH   1   2
BRANCH   1  17
HETATM   17  C   UNL     1      -6.144   1.927 -29.997  1.00  0.00     0.227 C 
HETATM   18  N   UNL     1      -7.406   2.128 -30.491  1.00  0.00    -0.360 N 
HETATM   19  H   UNL     1      -8.031   1.368 -30.243  1.00  0.00     0.162 HD
HETATM   20  O   UNL     1      -5.893   0.854 -29.444  1.00  0.00    -0.273 OA
BRANCH  18  21
HETATM   21  C   UNL     1      -8.005   3.403 -30.851  1.00  0.00     0.127 C 
BRANCH  21  22
HETATM   22  C   UNL     1      -9.485   3.473 -30.476  1.00  0.00     0.058 C 
BRANCH  22  23
HETATM   23  C   UNL     1     -10.344   3.671 -31.702  1.00  0.00    -0.054 A 
HETATM   24  C   UNL     1     -11.739   3.766 -31.576  1.00  0.00     0.046 A 
HETATM   25  C   UNL     1     -12.556   3.885 -32.705  1.00  0.00     0.102 A 
HETATM   26  C   UNL     1     -11.972   3.945 -33.984  1.00  0.00     0.101 A 
HETATM   27  C   UNL     1     -10.582   3.865 -34.108  1.00  0.00     0.040 A 
HETATM   28  C   UNL     1      -9.773   3.722 -32.976  1.00  0.00     0.010 A 
BRANCH  25  29
HETATM   29  O   UNL     1     -13.927   3.968 -32.653  1.00  0.00    -0.353 OA
HETATM   30  C   UNL     1     -14.596   3.029 -31.820  1.00  0.00     0.210 C 
ENDBRANCH  25  29
BRANCH  26  31
HETATM   31  O   UNL     1     -12.840   4.072 -35.040  1.00  0.00    -0.353 OA
HETATM   32  C   UNL     1     -12.890   5.324 -35.707  1.00  0.00     0.210 C 
ENDBRANCH  26  31
ENDBRANCH  22  23
ENDBRANCH  21  22
ENDBRANCH  18  21
ENDBRANCH   1  17
TORSDOF 8
ENDMDL
