MODEL 1
REMARK VINA RESULT:      -8.6      0.000      0.000
REMARK  4 active torsions:
REMARK  status: ('A' for Active; 'I' for Inactive)
REMARK    1  A    between atoms: C_6  and  N_7 
REMARK       I    between atoms: N_7  and  C_8 
REMARK    2  A    between atoms: C_8  and  C_9 
REMARK    3  A    between atoms: C_10  and  C_11 
REMARK    4  A    between atoms: C_13  and  O_14 
ROOT
HETATM    1  C   UNL     1      -7.625   2.248 -32.791  1.00  0.00     0.062 A 
HETATM    2  C   UNL     1      -6.782   2.791 -31.643  1.00  0.00     0.202 A 
HETATM    3  N   UNL     1      -7.476   3.882 -30.946  1.00  0.00    -0.084 N 
HETATM    4  C   UNL     1      -8.717   4.348 -31.292  1.00  0.00     0.725 A 
HETATM    5  N   UNL     1      -9.356   3.809 -32.345  1.00  0.00    -0.192 N 
HETATM    6  N   UNL     1      -7.061   4.429 -29.781  1.00  0.00    -0.149 NA
HETATM    7  C   UNL     1      -8.047   5.303 -29.553  1.00  0.00     0.275 A 
HETATM    8  N   UNL     1      -9.087   5.275 -30.446  1.00  0.00    -0.054 NA
HETATM    9  C   UNL     1      -8.840   2.763 -33.099  1.00  0.00     0.037 A 
HETATM   10  C   UNL     1      -9.718   2.270 -34.224  1.00  0.00     0.070 C 
HETATM   11  H   UNL     1     -10.274   4.167 -32.596  1.00  0.00     0.184 HD
ENDROOT
BRANCH   1  12
HETATM   12  C   UNL     1      -7.026   1.192 -33.646  1.00  0.00     0.256 C 
HETATM   13  N   UNL     1      -6.924  -0.025 -33.008  1.00  0.00    -0.323 N 
HETATM   14  H   UNL     1      -7.265  -0.079 -32.059  1.00  0.00     0.169 HD
HETATM   15  O   UNL     1      -6.711   1.471 -34.795  1.00  0.00    -0.267 OA
BRANCH  13  16
HETATM   16  C   UNL     1      -6.434  -1.240 -33.550  1.00  0.00     0.041 A 
HETATM   17  C   UNL     1      -5.061  -1.539 -33.422  1.00  0.00    -0.035 A 
HETATM   18  C   UNL     1      -4.567  -2.759 -33.926  1.00  0.00     0.015 A 
HETATM   19  C   UNL     1      -4.086  -0.601 -32.760  1.00  0.00     0.050 C 
HETATM   20  C   UNL     1      -5.406  -3.673 -34.570  1.00  0.00    -0.061 A 
HETATM   21  C   UNL     1      -4.880  -4.986 -35.068  1.00  0.00     0.048 C 
HETATM   22  C   UNL     1      -6.760  -3.366 -34.694  1.00  0.00     0.009 A 
HETATM   23  C   UNL     1      -7.266  -2.162 -34.196  1.00  0.00     0.030 A 
ENDBRANCH  13  16
ENDBRANCH   1  12
BRANCH   2  24
HETATM   24  C   UNL     1      -5.367   3.219 -32.023  1.00  0.00    -0.025 A 
HETATM   25  C   UNL     1      -5.112   4.129 -33.066  1.00  0.00     0.046 A 
HETATM   26  C   UNL     1      -3.802   4.477 -33.407  1.00  0.00     0.068 A 
HETATM   27  C   UNL     1      -2.738   3.963 -32.665  1.00  0.00     0.037 A 
HETATM   28  C   UNL     1      -2.971   3.085 -31.610  1.00  0.00     0.003 A 
HETATM   29  C   UNL     1      -4.276   2.711 -31.294  1.00  0.00     0.010 A 
BRANCH  26  30
HETATM   30  O   UNL     1      -3.443   5.317 -34.425  1.00  0.00    -0.356 OA
HETATM   31  C   UNL     1      -2.098   5.203 -34.882  1.00  0.00     0.210 C 
ENDBRANCH  26  30
ENDBRANCH   2  24
TORSDOF 4
ENDMDL
MODEL 2
REMARK VINA RESULT:      -8.4      2.333      4.549
REMARK  4 active torsions:
REMARK  status: ('A' for Active; 'I' for Inactive)
REMARK    1  A    between atoms: C_6  and  N_7 
REMARK       I    between atoms: N_7  and  C_8 
REMARK    2  A    between atoms: C_8  and  C_9 
REMARK    3  A    between atoms: C_10  and  C_11 
REMARK    4  A    between atoms: C_13  and  O_14 
ROOT
HETATM    1  C   UNL     1      -5.074   2.293 -32.043  1.00  0.00     0.062 A 
HETATM    2  C   UNL     1      -5.949   3.451 -32.507  1.00  0.00     0.202 A 
HETATM    3  N   UNL     1      -5.345   4.745 -32.162  1.00  0.00    -0.084 N 
HETATM    4  C   UNL     1      -4.151   4.883 -31.504  1.00  0.00     0.725 A 
HETATM    5  N   UNL     1      -3.478   3.786 -31.116  1.00  0.00    -0.192 N 
HETATM    6  N   UNL     1      -5.794   5.939 -32.606  1.00  0.00    -0.149 NA
HETATM    7  C   UNL     1      -4.884   6.761 -32.070  1.00  0.00     0.275 A 
HETATM    8  N   UNL     1      -3.854   6.153 -31.401  1.00  0.00    -0.054 NA
HETATM    9  C   UNL     1      -3.910   2.491 -31.378  1.00  0.00     0.037 A 
HETATM   10  C   UNL     1      -3.003   1.388 -30.891  1.00  0.00     0.070 C 
HETATM   11  H   UNL     1      -2.596   3.901 -30.624  1.00  0.00     0.184 HD
ENDROOT
BRANCH   1  12
HETATM   12  C   UNL     1      -5.588   0.915 -32.247  1.00  0.00     0.256 C 
HETATM   13  N   UNL     1      -5.164   0.352 -33.431  1.00  0.00    -0.323 N 
HETATM   14  H   UNL     1      -4.559   0.909 -34.017  1.00  0.00     0.169 HD
HETATM   15  O   UNL     1      -6.290   0.412 -31.380  1.00  0.00    -0.267 OA
BRANCH  13  16
HETATM   16  C   UNL     1      -5.443  -0.953 -33.909  1.00  0.00     0.041 A 
HETATM   17  C   UNL     1      -6.663  -1.188 -34.580  1.00  0.00    -0.035 A 
HETATM   18  C   UNL     1      -6.938  -2.472 -35.089  1.00  0.00     0.015 A 
HETATM   19  C   UNL     1      -7.697  -0.111 -34.779  1.00  0.00     0.050 C 
HETATM   20  C   UNL     1      -6.036  -3.528 -34.927  1.00  0.00    -0.061 A 
HETATM   21  C   UNL     1      -6.319  -4.881 -35.508  1.00  0.00     0.048 C 
HETATM   22  C   UNL     1      -4.836  -3.287 -34.260  1.00  0.00     0.009 A 
HETATM   23  C   UNL     1      -4.547  -2.017 -33.753  1.00  0.00     0.030 A 
ENDBRANCH  13  16
ENDBRANCH   1  12
BRANCH   2  24
HETATM   24  C   UNL     1      -7.399   3.399 -32.033  1.00  0.00    -0.025 A 
HETATM   25  C   UNL     1      -8.465   3.109 -32.905  1.00  0.00     0.046 A 
HETATM   26  C   UNL     1      -9.784   3.099 -32.443  1.00  0.00     0.068 A 
HETATM   27  C   UNL     1     -10.042   3.321 -31.090  1.00  0.00     0.037 A 
HETATM   28  C   UNL     1      -8.998   3.581 -30.206  1.00  0.00     0.003 A 
HETATM   29  C   UNL     1      -7.686   3.625 -30.674  1.00  0.00     0.010 A 
BRANCH  26  30
HETATM   30  O   UNL     1     -10.893   2.868 -33.210  1.00  0.00    -0.356 OA
HETATM   31  C   UNL     1     -10.985   1.574 -33.798  1.00  0.00     0.210 C 
ENDBRANCH  26  30
ENDBRANCH   2  24
TORSDOF 4
ENDMDL
MODEL 3
REMARK VINA RESULT:      -8.2      1.647      2.562
REMARK  4 active torsions:
REMARK  status: ('A' for Active; 'I' for Inactive)
REMARK    1  A    between atoms: C_6  and  N_7 
REMARK       I    between atoms: N_7  and  C_8 
REMARK    2  A    between atoms: C_8  and  C_9 
REMARK    3  A    between atoms: C_10  and  C_11 
REMARK    4  A    between atoms: C_13  and  O_14 
ROOT
HETATM    1  C   UNL     1      -7.002   3.257 -31.198  1.00  0.00     0.062 A 
HETATM    2  C   UNL     1      -5.837   3.899 -30.455  1.00  0.00     0.202 A 
HETATM    3  N   UNL     1      -6.313   4.860 -29.451  1.00  0.00    -0.084 N 
HETATM    4  C   UNL     1      -7.634   5.140 -29.222  1.00  0.00     0.725 A 
HETATM    5  N   UNL     1      -8.578   4.531 -29.962  1.00  0.00    -0.192 N 
HETATM    6  N   UNL     1      -5.526   5.441 -28.518  1.00  0.00    -0.149 NA
HETATM    7  C   UNL     1      -6.433   6.152 -27.839  1.00  0.00     0.275 A 
HETATM    8  N   UNL     1      -7.736   5.985 -28.229  1.00  0.00    -0.054 NA
HETATM    9  C   UNL     1      -8.291   3.588 -30.942  1.00  0.00     0.037 A 
HETATM   10  C   UNL     1      -9.485   2.991 -31.645  1.00  0.00     0.070 C 
HETATM   11  H   UNL     1      -9.555   4.751 -29.787  1.00  0.00     0.184 HD
ENDROOT
BRANCH   1  12
HETATM   12  C   UNL     1      -6.682   2.320 -32.304  1.00  0.00     0.256 C 
HETATM   13  N   UNL     1      -6.545   1.015 -31.882  1.00  0.00    -0.323 N 
HETATM   14  H   UNL     1      -6.682   0.831 -30.899  1.00  0.00     0.169 HD
HETATM   15  O   UNL     1      -6.594   2.758 -33.443  1.00  0.00    -0.267 OA
BRANCH  13  16
HETATM   16  C   UNL     1      -6.278  -0.123 -32.685  1.00  0.00     0.041 A 
HETATM   17  C   UNL     1      -7.345  -0.733 -33.380  1.00  0.00    -0.035 A 
HETATM   18  C   UNL     1      -7.087  -1.843 -34.209  1.00  0.00     0.015 A 
HETATM   19  C   UNL     1      -8.765  -0.242 -33.275  1.00  0.00     0.050 C 
HETATM   20  C   UNL     1      -5.798  -2.367 -34.342  1.00  0.00    -0.061 A 
HETATM   21  C   UNL     1      -5.526  -3.524 -35.257  1.00  0.00     0.048 C 
HETATM   22  C   UNL     1      -4.753  -1.760 -33.649  1.00  0.00     0.009 A 
HETATM   23  C   UNL     1      -4.992  -0.656 -32.826  1.00  0.00     0.030 A 
ENDBRANCH  13  16
ENDBRANCH   1  12
BRANCH   2  24
HETATM   24  C   UNL     1      -4.776   4.543 -31.344  1.00  0.00    -0.025 A 
HETATM   25  C   UNL     1      -3.423   4.155 -31.302  1.00  0.00     0.046 A 
HETATM   26  C   UNL     1      -2.473   4.785 -32.108  1.00  0.00     0.068 A 
HETATM   27  C   UNL     1      -2.879   5.770 -33.009  1.00  0.00     0.037 A 
HETATM   28  C   UNL     1      -4.217   6.148 -33.087  1.00  0.00     0.003 A 
HETATM   29  C   UNL     1      -5.159   5.542 -32.257  1.00  0.00     0.010 A 
BRANCH  26  30
HETATM   30  O   UNL     1      -1.132   4.514 -32.117  1.00  0.00    -0.356 OA
HETATM   31  C   UNL     1      -0.329   5.308 -31.249  1.00  0.00     0.210 C 
ENDBRANCH  26  30
ENDBRANCH   2  24
TORSDOF 4
ENDMDL
MODEL 4
REMARK VINA RESULT:      -8.2      2.034      2.692
REMARK  4 active torsions:
REMARK  status: ('A' for Active; 'I' for Inactive)
REMARK    1  A    between atoms: C_6  and  N_7 
REMARK       I    between atoms: N_7  and  C_8 
REMARK    2  A    between atoms: C_8  and  C_9 
REMARK    3  A    between atoms: C_10  and  C_11 
REMARK    4  A    between atoms: C_13  and  O_14 
ROOT
HETATM    1  C   UNL     1      -7.367   3.728 -32.161  1.00  0.00     0.062 A 
HETATM    2  C   UNL     1      -6.416   4.819 -31.685  1.00  0.00     0.202 A 
HETATM    3  N   UNL     1      -6.984   6.155 -31.914  1.00  0.00    -0.084 N 
HETATM    4  C   UNL     1      -8.208   6.381 -32.487  1.00  0.00     0.725 A 
HETATM    5  N   UNL     1      -8.950   5.337 -32.896  1.00  0.00    -0.192 N 
HETATM    6  N   UNL     1      -6.457   7.301 -31.429  1.00  0.00    -0.149 NA
HETATM    7  C   UNL     1      -7.362   8.189 -31.856  1.00  0.00     0.275 A 
HETATM    8  N   UNL     1      -8.456   7.665 -32.495  1.00  0.00    -0.054 NA
HETATM    9  C   UNL     1      -8.559   4.012 -32.740  1.00  0.00     0.037 A 
HETATM   10  C   UNL     1      -9.540   2.977 -33.233  1.00  0.00     0.070 C 
HETATM   11  H   UNL     1      -9.854   5.517 -33.325  1.00  0.00     0.184 HD
ENDROOT
BRANCH   1  12
HETATM   12  C   UNL     1      -6.901   2.321 -32.073  1.00  0.00     0.256 C 
HETATM   13  N   UNL     1      -6.496   1.810 -33.288  1.00  0.00    -0.323 N 
HETATM   14  H   UNL     1      -6.544   2.426 -34.086  1.00  0.00     0.169 HD
HETATM   15  O   UNL     1      -6.895   1.768 -30.982  1.00  0.00    -0.267 OA
BRANCH  13  16
HETATM   16  C   UNL     1      -5.967   0.520 -33.542  1.00  0.00     0.041 A 
HETATM   17  C   UNL     1      -6.648  -0.331 -34.441  1.00  0.00    -0.035 A 
HETATM   18  C   UNL     1      -6.115  -1.603 -34.729  1.00  0.00     0.015 A 
HETATM   19  C   UNL     1      -7.935   0.067 -35.114  1.00  0.00     0.050 C 
HETATM   20  C   UNL     1      -4.934  -2.050 -34.128  1.00  0.00    -0.061 A 
HETATM   21  C   UNL     1      -4.353  -3.389 -34.472  1.00  0.00     0.048 C 
HETATM   22  C   UNL     1      -4.272  -1.204 -33.241  1.00  0.00     0.009 A 
HETATM   23  C   UNL     1      -4.786   0.062 -32.947  1.00  0.00     0.030 A 
ENDBRANCH  13  16
ENDBRANCH   1  12
BRANCH   2  24
HETATM   24  C   UNL     1      -5.001   4.741 -32.252  1.00  0.00    -0.025 A 
HETATM   25  C   UNL     1      -3.882   4.464 -31.444  1.00  0.00     0.046 A 
HETATM   26  C   UNL     1      -2.597   4.429 -31.990  1.00  0.00     0.068 A 
HETATM   27  C   UNL     1      -2.426   4.610 -33.363  1.00  0.00     0.037 A 
HETATM   28  C   UNL     1      -3.524   4.855 -34.184  1.00  0.00     0.003 A 
HETATM   29  C   UNL     1      -4.802   4.925 -33.632  1.00  0.00     0.010 A 
BRANCH  26  30
HETATM   30  O   UNL     1      -1.441   4.209 -31.291  1.00  0.00    -0.356 OA
HETATM   31  C   UNL     1      -0.438   5.213 -31.413  1.00  0.00     0.210 C 
ENDBRANCH  26  30
ENDBRANCH   2  24
TORSDOF 4
ENDMDL
MODEL 5
REMARK VINA RESULT:      -8.1      2.057      6.062
REMARK  4 active torsions:
REMARK  status: ('A' for Active; 'I' for Inactive)
REMARK    1  A    between atoms: C_6  and  N_7 
REMARK       I    between atoms: N_7  and  C_8 
REMARK    2  A    between atoms: C_8  and  C_9 
REMARK    3  A    between atoms: C_10  and  C_11 
REMARK    4  A    between atoms: C_13  and  O_14 
ROOT
HETATM    1  C   UNL     1      -7.477   3.769 -33.527  1.00  0.00     0.062 A 
HETATM    2  C   UNL     1      -7.757   2.304 -33.842  1.00  0.00     0.202 A 
HETATM    3  N   UNL     1      -9.169   1.972 -33.606  1.00  0.00    -0.084 N 
HETATM    4  C   UNL     1     -10.103   2.867 -33.157  1.00  0.00     0.725 A 
HETATM    5  N   UNL     1      -9.732   4.130 -32.885  1.00  0.00    -0.192 N 
HETATM    6  N   UNL     1      -9.749   0.808 -33.972  1.00  0.00    -0.149 NA
HETATM    7  C   UNL     1     -11.014   1.035 -33.599  1.00  0.00     0.275 A 
HETATM    8  N   UNL     1     -11.275   2.288 -33.109  1.00  0.00    -0.054 NA
HETATM    9  C   UNL     1      -8.439   4.604 -33.066  1.00  0.00     0.037 A 
HETATM   10  C   UNL     1      -8.222   6.060 -32.735  1.00  0.00     0.070 C 
HETATM   11  H   UNL     1     -10.433   4.784 -32.547  1.00  0.00     0.184 HD
ENDROOT
BRANCH   1  12
HETATM   12  C   UNL     1      -6.073   4.241 -33.638  1.00  0.00     0.256 C 
HETATM   13  N   UNL     1      -5.530   4.603 -32.424  1.00  0.00    -0.323 N 
HETATM   14  H   UNL     1      -6.115   4.504 -31.608  1.00  0.00     0.169 HD
HETATM   15  O   UNL     1      -5.537   4.248 -34.738  1.00  0.00    -0.267 OA
BRANCH  13  16
HETATM   16  C   UNL     1      -4.210   5.060 -32.177  1.00  0.00     0.041 A 
HETATM   17  C   UNL     1      -3.230   4.127 -31.774  1.00  0.00    -0.035 A 
HETATM   18  C   UNL     1      -1.907   4.562 -31.559  1.00  0.00     0.015 A 
HETATM   19  C   UNL     1      -3.539   2.669 -31.562  1.00  0.00     0.050 C 
HETATM   20  C   UNL     1      -1.547   5.904 -31.717  1.00  0.00    -0.061 A 
HETATM   21  C   UNL     1      -0.128   6.350 -31.525  1.00  0.00     0.048 C 
HETATM   22  C   UNL     1      -2.523   6.817 -32.112  1.00  0.00     0.009 A 
HETATM   23  C   UNL     1      -3.839   6.400 -32.333  1.00  0.00     0.030 A 
ENDBRANCH  13  16
ENDBRANCH   1  12
BRANCH   2  24
HETATM   24  C   UNL     1      -6.851   1.302 -33.131  1.00  0.00    -0.025 A 
HETATM   25  C   UNL     1      -5.848   0.583 -33.809  1.00  0.00     0.046 A 
HETATM   26  C   UNL     1      -5.055  -0.348 -33.133  1.00  0.00     0.068 A 
HETATM   27  C   UNL     1      -5.219  -0.524 -31.759  1.00  0.00     0.037 A 
HETATM   28  C   UNL     1      -6.186   0.199 -31.065  1.00  0.00     0.003 A 
HETATM   29  C   UNL     1      -7.000   1.103 -31.746  1.00  0.00     0.010 A 
BRANCH  26  30
HETATM   30  O   UNL     1      -4.083  -1.125 -33.702  1.00  0.00    -0.356 OA
HETATM   31  C   UNL     1      -4.480  -2.440 -34.081  1.00  0.00     0.210 C 
ENDBRANCH  26  30
ENDBRANCH   2  24
TORSDOF 4
ENDMDL
MODEL 6
REMARK VINA RESULT:      -8.1      2.950      7.642
REMARK  4 active torsions:
REMARK  status: ('A' for Active; 'I' for Inactive)
REMARK    1  A    between atoms: C_6  and  N_7 
REMARK       I    between atoms: N_7  and  C_8 
REMARK    2  A    between atoms: C_8  and  C_9 
REMARK    3  A    between atoms: C_10  and  C_11 
REMARK    4  A    between atoms: C_13  and  O_14 
ROOT
HETATM    1  C   UNL     1      -5.505  -0.180 -31.756  1.00  0.00     0.062 A 
HETATM    2  C   UNL     1      -6.586  -0.897 -32.556  1.00  0.00     0.202 A 
HETATM    3  N   UNL     1      -5.996  -1.753 -33.595  1.00  0.00    -0.084 N 
HETATM    4  C   UNL     1      -4.649  -1.881 -33.812  1.00  0.00     0.725 A 
HETATM    5  N   UNL     1      -3.788  -1.174 -33.059  1.00  0.00    -0.192 N 
HETATM    6  N   UNL     1      -6.692  -2.647 -34.332  1.00  0.00    -0.149 NA
HETATM    7  C   UNL     1      -5.707  -3.190 -35.057  1.00  0.00     0.275 A 
HETATM    8  N   UNL     1      -4.441  -2.759 -34.758  1.00  0.00    -0.054 NA
HETATM    9  C   UNL     1      -4.186  -0.330 -32.029  1.00  0.00     0.037 A 
HETATM   10  C   UNL     1      -3.073   0.354 -31.276  1.00  0.00     0.070 C 
HETATM   11  H   UNL     1      -2.792  -1.272 -33.233  1.00  0.00     0.184 HD
ENDROOT
BRANCH   1  12
HETATM   12  C   UNL     1      -5.943   0.788 -30.719  1.00  0.00     0.256 C 
HETATM   13  N   UNL     1      -5.917   2.095 -31.156  1.00  0.00    -0.323 N 
HETATM   14  H   UNL     1      -5.622   2.257 -32.108  1.00  0.00     0.169 HD
HETATM   15  O   UNL     1      -6.295   0.364 -29.626  1.00  0.00    -0.267 OA
BRANCH  13  16
HETATM   16  C   UNL     1      -6.304   3.250 -30.432  1.00  0.00     0.041 A 
HETATM   17  C   UNL     1      -7.680   3.524 -30.271  1.00  0.00    -0.035 A 
HETATM   18  C   UNL     1      -8.079   4.650 -29.524  1.00  0.00     0.015 A 
HETATM   19  C   UNL     1      -8.754   2.655 -30.870  1.00  0.00     0.050 C 
HETATM   20  C   UNL     1      -7.140   5.515 -28.953  1.00  0.00    -0.061 A 
HETATM   21  C   UNL     1      -7.574   6.688 -28.126  1.00  0.00     0.048 C 
HETATM   22  C   UNL     1      -5.785   5.237 -29.121  1.00  0.00     0.009 A 
HETATM   23  C   UNL     1      -5.373   4.122 -29.856  1.00  0.00     0.030 A 
ENDBRANCH  13  16
ENDBRANCH   1  12
BRANCH   2  24
HETATM   24  C   UNL     1      -7.655   0.009 -33.160  1.00  0.00    -0.025 A 
HETATM   25  C   UNL     1      -9.028  -0.183 -32.915  1.00  0.00     0.046 A 
HETATM   26  C   UNL     1      -9.983   0.648 -33.508  1.00  0.00     0.068 A 
HETATM   27  C   UNL     1      -9.568   1.716 -34.304  1.00  0.00     0.037 A 
HETATM   28  C   UNL     1      -8.213   1.939 -34.535  1.00  0.00     0.003 A 
HETATM   29  C   UNL     1      -7.263   1.089 -33.971  1.00  0.00     0.010 A 
BRANCH  26  30
HETATM   30  O   UNL     1     -11.339   0.526 -33.368  1.00  0.00    -0.356 OA
HETATM   31  C   UNL     1     -12.127   1.449 -34.114  1.00  0.00     0.210 C 
ENDBRANCH  26  30
ENDBRANCH   2  24
TORSDOF 4
ENDMDL
MODEL 7
REMARK VINA RESULT:      -8.0      2.603      4.243
REMARK  4 active torsions:
REMARK  status: ('A' for Active; 'I' for Inactive)
REMARK    1  A    between atoms: C_6  and  N_7 
REMARK       I    between atoms: N_7  and  C_8 
REMARK    2  A    between atoms: C_8  and  C_9 
REMARK    3  A    between atoms: C_10  and  C_11 
REMARK    4  A    between atoms: C_13  and  O_14 
ROOT
HETATM    1  C   UNL     1      -6.434   2.140 -31.246  1.00  0.00     0.062 A 
HETATM    2  C   UNL     1      -6.818   3.439 -31.944  1.00  0.00     0.202 A 
HETATM    3  N   UNL     1      -6.416   4.607 -31.148  1.00  0.00    -0.084 N 
HETATM    4  C   UNL     1      -5.784   4.529 -29.935  1.00  0.00     0.725 A 
HETATM    5  N   UNL     1      -5.521   3.322 -29.402  1.00  0.00    -0.192 N 
HETATM    6  N   UNL     1      -6.454   5.883 -31.592  1.00  0.00    -0.149 NA
HETATM    7  C   UNL     1      -5.939   6.527 -30.539  1.00  0.00     0.275 A 
HETATM    8  N   UNL     1      -5.503   5.734 -29.510  1.00  0.00    -0.054 NA
HETATM    9  C   UNL     1      -5.827   2.124 -30.035  1.00  0.00     0.037 A 
HETATM   10  C   UNL     1      -5.427   0.871 -29.294  1.00  0.00     0.070 C 
HETATM   11  H   UNL     1      -5.057   3.277 -28.499  1.00  0.00     0.184 HD
ENDROOT
BRANCH   1  12
HETATM   12  C   UNL     1      -6.846   0.866 -31.888  1.00  0.00     0.256 C 
HETATM   13  N   UNL     1      -5.882   0.349 -32.726  1.00  0.00    -0.323 N 
HETATM   14  H   UNL     1      -5.019   0.864 -32.810  1.00  0.00     0.169 HD
HETATM   15  O   UNL     1      -7.942   0.394 -31.615  1.00  0.00    -0.267 OA
BRANCH  13  16
HETATM   16  C   UNL     1      -5.944  -0.863 -33.459  1.00  0.00     0.041 A 
HETATM   17  C   UNL     1      -4.826  -1.726 -33.445  1.00  0.00    -0.035 A 
HETATM   18  C   UNL     1      -4.887  -2.950 -34.141  1.00  0.00     0.015 A 
HETATM   19  C   UNL     1      -3.556  -1.393 -32.708  1.00  0.00     0.050 C 
HETATM   20  C   UNL     1      -6.025  -3.320 -34.864  1.00  0.00    -0.061 A 
HETATM   21  C   UNL     1      -6.096  -4.643 -35.568  1.00  0.00     0.048 C 
HETATM   22  C   UNL     1      -7.121  -2.460 -34.874  1.00  0.00     0.009 A 
HETATM   23  C   UNL     1      -7.078  -1.244 -34.185  1.00  0.00     0.030 A 
ENDBRANCH  13  16
ENDBRANCH   1  12
BRANCH   2  24
HETATM   24  C   UNL     1      -8.285   3.552 -32.347  1.00  0.00    -0.025 A 
HETATM   25  C   UNL     1      -8.696   3.574 -33.693  1.00  0.00     0.046 A 
HETATM   26  C   UNL     1     -10.046   3.707 -34.027  1.00  0.00     0.068 A 
HETATM   27  C   UNL     1     -11.004   3.760 -33.015  1.00  0.00     0.037 A 
HETATM   28  C   UNL     1     -10.620   3.711 -31.677  1.00  0.00     0.003 A 
HETATM   29  C   UNL     1      -9.270   3.613 -31.344  1.00  0.00     0.010 A 
BRANCH  26  30
HETATM   30  O   UNL     1     -10.547   3.778 -35.299  1.00  0.00    -0.356 OA
HETATM   31  C   UNL     1     -11.967   3.752 -35.411  1.00  0.00     0.210 C 
ENDBRANCH  26  30
ENDBRANCH   2  24
TORSDOF 4
ENDMDL
MODEL 8
REMARK VINA RESULT:      -7.8      2.351      6.072
REMARK  4 active torsions:
REMARK  status: ('A' for Active; 'I' for Inactive)
REMARK    1  A    between atoms: C_6  and  N_7 
REMARK       I    between atoms: N_7  and  C_8 
REMARK    2  A    between atoms: C_8  and  C_9 
REMARK    3  A    between atoms: C_10  and  C_11 
REMARK    4  A    between atoms: C_13  and  O_14 
ROOT
HETATM    1  C   UNL     1      -7.933   4.139 -33.367  1.00  0.00     0.062 A 
HETATM    2  C   UNL     1      -8.337   2.794 -33.959  1.00  0.00     0.202 A 
HETATM    3  N   UNL     1      -9.762   2.521 -33.729  1.00  0.00    -0.084 N 
HETATM    4  C   UNL     1     -10.609   3.368 -33.064  1.00  0.00     0.725 A 
HETATM    5  N   UNL     1     -10.131   4.519 -32.559  1.00  0.00    -0.192 N 
HETATM    6  N   UNL     1     -10.443   1.501 -34.296  1.00  0.00    -0.149 NA
HETATM    7  C   UNL     1     -11.674   1.734 -33.825  1.00  0.00     0.275 A 
HETATM    8  N   UNL     1     -11.820   2.874 -33.079  1.00  0.00    -0.054 NA
HETATM    9  C   UNL     1      -8.811   4.928 -32.701  1.00  0.00     0.037 A 
HETATM   10  C   UNL     1      -8.470   6.265 -32.092  1.00  0.00     0.070 C 
HETATM   11  H   UNL     1     -10.768   5.136 -32.062  1.00  0.00     0.184 HD
ENDROOT
BRANCH   1  12
HETATM   12  C   UNL     1      -6.501   4.525 -33.446  1.00  0.00     0.256 C 
HETATM   13  N   UNL     1      -5.886   4.568 -32.213  1.00  0.00    -0.323 N 
HETATM   14  H   UNL     1      -6.448   4.331 -31.408  1.00  0.00     0.169 HD
HETATM   15  O   UNL     1      -6.006   4.740 -34.544  1.00  0.00    -0.267 OA
BRANCH  13  16
HETATM   16  C   UNL     1      -4.527   4.865 -31.942  1.00  0.00     0.041 A 
HETATM   17  C   UNL     1      -3.575   3.824 -32.009  1.00  0.00    -0.035 A 
HETATM   18  C   UNL     1      -2.216   4.111 -31.776  1.00  0.00     0.015 A 
HETATM   19  C   UNL     1      -3.954   2.400 -32.324  1.00  0.00     0.050 C 
HETATM   20  C   UNL     1      -1.790   5.405 -31.460  1.00  0.00    -0.061 A 
HETATM   21  C   UNL     1      -0.336   5.710 -31.253  1.00  0.00     0.048 C 
HETATM   22  C   UNL     1      -2.737   6.424 -31.393  1.00  0.00     0.009 A 
HETATM   23  C   UNL     1      -4.089   6.156 -31.625  1.00  0.00     0.030 A 
ENDBRANCH  13  16
ENDBRANCH   1  12
BRANCH   2  24
HETATM   24  C   UNL     1      -7.489   1.607 -33.510  1.00  0.00    -0.025 A 
HETATM   25  C   UNL     1      -7.432   1.190 -32.167  1.00  0.00     0.046 A 
HETATM   26  C   UNL     1      -6.623   0.117 -31.786  1.00  0.00     0.068 A 
HETATM   27  C   UNL     1      -5.910  -0.588 -32.756  1.00  0.00     0.037 A 
HETATM   28  C   UNL     1      -5.977  -0.209 -34.095  1.00  0.00     0.003 A 
HETATM   29  C   UNL     1      -6.757   0.883 -34.469  1.00  0.00     0.010 A 
BRANCH  26  30
HETATM   30  O   UNL     1      -6.464  -0.344 -30.507  1.00  0.00    -0.356 OA
HETATM   31  C   UNL     1      -5.838   0.554 -29.595  1.00  0.00     0.210 C 
ENDBRANCH  26  30
ENDBRANCH   2  24
TORSDOF 4
ENDMDL
MODEL 9
REMARK VINA RESULT:      -7.7      2.594      5.920
REMARK  4 active torsions:
REMARK  status: ('A' for Active; 'I' for Inactive)
REMARK    1  A    between atoms: C_6  and  N_7 
REMARK       I    between atoms: N_7  and  C_8 
REMARK    2  A    between atoms: C_8  and  C_9 
REMARK    3  A    between atoms: C_10  and  C_11 
REMARK    4  A    between atoms: C_13  and  O_14 
ROOT
HETATM    1  C   UNL     1      -5.983  -0.234 -33.851  1.00  0.00     0.062 A 
HETATM    2  C   UNL     1      -4.920   0.590 -33.135  1.00  0.00     0.202 A 
HETATM    3  N   UNL     1      -3.911  -0.276 -32.509  1.00  0.00    -0.084 N 
HETATM    4  C   UNL     1      -3.934  -1.645 -32.563  1.00  0.00     0.725 A 
HETATM    5  N   UNL     1      -4.941  -2.265 -33.202  1.00  0.00    -0.192 N 
HETATM    6  N   UNL     1      -2.755   0.168 -31.968  1.00  0.00    -0.149 NA
HETATM    7  C   UNL     1      -2.189  -0.990 -31.609  1.00  0.00     0.275 A 
HETATM    8  N   UNL     1      -2.871  -2.123 -31.968  1.00  0.00    -0.054 NA
HETATM    9  C   UNL     1      -5.965  -1.590 -33.854  1.00  0.00     0.037 A 
HETATM   10  C   UNL     1      -6.989  -2.458 -34.542  1.00  0.00     0.070 C 
HETATM   11  H   UNL     1      -4.950  -3.281 -33.231  1.00  0.00     0.184 HD
ENDROOT
BRANCH   1  12
HETATM   12  C   UNL     1      -7.121   0.494 -34.467  1.00  0.00     0.256 C 
HETATM   13  N   UNL     1      -8.119   0.796 -33.565  1.00  0.00    -0.323 N 
HETATM   14  H   UNL     1      -7.977   0.511 -32.607  1.00  0.00     0.169 HD
HETATM   15  O   UNL     1      -7.070   0.771 -35.658  1.00  0.00    -0.267 OA
BRANCH  13  16
HETATM   16  C   UNL     1      -9.317   1.511 -33.819  1.00  0.00     0.041 A 
HETATM   17  C   UNL     1     -10.551   0.913 -33.485  1.00  0.00    -0.035 A 
HETATM   18  C   UNL     1     -11.747   1.626 -33.699  1.00  0.00     0.015 A 
HETATM   19  C   UNL     1     -10.649  -0.472 -32.900  1.00  0.00     0.050 C 
HETATM   20  C   UNL     1     -11.739   2.909 -34.256  1.00  0.00    -0.061 A 
HETATM   21  C   UNL     1     -13.014   3.677 -34.443  1.00  0.00     0.048 C 
HETATM   22  C   UNL     1     -10.516   3.489 -34.585  1.00  0.00     0.009 A 
HETATM   23  C   UNL     1      -9.320   2.795 -34.374  1.00  0.00     0.030 A 
ENDBRANCH  13  16
ENDBRANCH   1  12
BRANCH   2  24
HETATM   24  C   UNL     1      -5.454   1.599 -32.123  1.00  0.00    -0.025 A 
HETATM   25  C   UNL     1      -5.473   2.983 -32.381  1.00  0.00     0.046 A 
HETATM   26  C   UNL     1      -5.942   3.883 -31.420  1.00  0.00     0.068 A 
HETATM   27  C   UNL     1      -6.451   3.400 -30.214  1.00  0.00     0.037 A 
HETATM   28  C   UNL     1      -6.468   2.032 -29.952  1.00  0.00     0.003 A 
HETATM   29  C   UNL     1      -5.968   1.138 -30.897  1.00  0.00     0.010 A 
BRANCH  26  30
HETATM   30  O   UNL     1      -5.968   5.245 -31.552  1.00  0.00    -0.356 OA
HETATM   31  C   UNL     1      -5.641   5.752 -32.843  1.00  0.00     0.210 C 
ENDBRANCH  26  30
ENDBRANCH   2  24
TORSDOF 4
ENDMDL
MODEL 10
REMARK VINA RESULT:      -7.5      3.165      6.048
REMARK  4 active torsions:
REMARK  status: ('A' for Active; 'I' for Inactive)
REMARK    1  A    between atoms: C_6  and  N_7 
REMARK       I    between atoms: N_7  and  C_8 
REMARK    2  A    between atoms: C_8  and  C_9 
REMARK    3  A    between atoms: C_10  and  C_11 
REMARK    4  A    between atoms: C_13  and  O_14 
ROOT
HETATM    1  C   UNL     1      -8.954   4.248 -33.131  1.00  0.00     0.062 A 
HETATM    2  C   UNL     1     -10.178   4.658 -33.941  1.00  0.00     0.202 A 
HETATM    3  N   UNL     1     -10.406   6.108 -33.858  1.00  0.00    -0.084 N 
HETATM    4  C   UNL     1      -9.619   6.970 -33.141  1.00  0.00     0.725 A 
HETATM    5  N   UNL     1      -8.579   6.487 -32.439  1.00  0.00    -0.192 N 
HETATM    6  N   UNL     1     -11.298   6.783 -34.616  1.00  0.00    -0.149 NA
HETATM    7  C   UNL     1     -11.070   8.037 -34.208  1.00  0.00     0.275 A 
HETATM    8  N   UNL     1     -10.041   8.195 -33.317  1.00  0.00    -0.054 NA
HETATM    9  C   UNL     1      -8.224   5.144 -32.423  1.00  0.00     0.037 A 
HETATM   10  C   UNL     1      -7.006   4.798 -31.602  1.00  0.00     0.070 C 
HETATM   11  H   UNL     1      -8.005   7.135 -31.906  1.00  0.00     0.184 HD
ENDROOT
BRANCH   1  12
HETATM   12  C   UNL     1      -8.637   2.800 -33.047  1.00  0.00     0.256 C 
HETATM   13  N   UNL     1      -7.729   2.391 -34.001  1.00  0.00    -0.323 N 
HETATM   14  H   UNL     1      -7.375   3.095 -34.632  1.00  0.00     0.169 HD
HETATM   15  O   UNL     1      -9.164   2.129 -32.170  1.00  0.00    -0.267 OA
BRANCH  13  16
HETATM   16  C   UNL     1      -7.192   1.091 -34.172  1.00  0.00     0.041 A 
HETATM   17  C   UNL     1      -5.961   0.775 -33.556  1.00  0.00    -0.035 A 
HETATM   18  C   UNL     1      -5.433  -0.524 -33.689  1.00  0.00     0.015 A 
HETATM   19  C   UNL     1      -5.178   1.779 -32.751  1.00  0.00     0.050 C 
HETATM   20  C   UNL     1      -6.092  -1.505 -34.436  1.00  0.00    -0.061 A 
HETATM   21  C   UNL     1      -5.543  -2.897 -34.539  1.00  0.00     0.048 C 
HETATM   22  C   UNL     1      -7.304  -1.182 -35.043  1.00  0.00     0.009 A 
HETATM   23  C   UNL     1      -7.844   0.101 -34.917  1.00  0.00     0.030 A 
ENDBRANCH  13  16
ENDBRANCH   1  12
BRANCH   2  24
HETATM   24  C   UNL     1     -11.460   3.900 -33.609  1.00  0.00    -0.025 A 
HETATM   25  C   UNL     1     -12.024   2.956 -34.488  1.00  0.00     0.046 A 
HETATM   26  C   UNL     1     -13.215   2.301 -34.166  1.00  0.00     0.068 A 
HETATM   27  C   UNL     1     -13.822   2.541 -32.933  1.00  0.00     0.037 A 
HETATM   28  C   UNL     1     -13.264   3.450 -32.037  1.00  0.00     0.003 A 
HETATM   29  C   UNL     1     -12.094   4.129 -32.374  1.00  0.00     0.010 A 
BRANCH  26  30
HETATM   30  O   UNL     1     -13.867   1.399 -34.962  1.00  0.00    -0.356 OA
HETATM   31  C   UNL     1     -14.961   0.713 -34.361  1.00  0.00     0.210 C 
ENDBRANCH  26  30
ENDBRANCH   2  24
TORSDOF 4
ENDMDL
