MODEL 1
REMARK VINA RESULT:      -8.6      0.000      0.000
REMARK  4 active torsions:
REMARK  status: ('A' for Active; 'I' for Inactive)
REMARK    1  A    between atoms: N_7  and  N_8 
REMARK       I    between atoms: N_8  and  C_9 
REMARK    2  A    between atoms: C_9  and  C_10 
REMARK    3  A    between atoms: C_10  and  N_11 
REMARK    4  A    between atoms: N_11  and  C_12 
ROOT
HETATM    1  N   UNL     1      -8.004   0.494 -35.012  1.00  0.00    -0.245 N 
HETATM    2  C   UNL     1      -9.012   0.924 -34.165  1.00  0.00     0.250 C 
HETATM    3  O   UNL     1      -9.637   0.207 -33.384  1.00  0.00    -0.270 OA
HETATM    4  H   UNL     1      -7.421   1.171 -35.509  1.00  0.00     0.192 HD
ENDROOT
BRANCH   1   5
HETATM    5  N   UNL     1      -7.695  -0.835 -35.092  1.00  0.00    -0.166 NA
HETATM    6  C   UNL     1      -6.561  -1.201 -34.586  1.00  0.00     0.157 A 
HETATM    7  C   UNL     1      -6.033  -2.559 -34.576  1.00  0.00     0.027 A 
HETATM    8  C   UNL     1      -5.504  -0.336 -33.893  1.00  0.00     0.277 A 
HETATM    9  C   UNL     1      -6.555  -3.732 -35.081  1.00  0.00     0.016 A 
HETATM   10  C   UNL     1      -4.798  -2.501 -33.934  1.00  0.00     0.048 A 
HETATM   11  C   UNL     1      -5.784  -4.886 -34.920  1.00  0.00     0.001 A 
HETATM   12  C   UNL     1      -4.534  -4.836 -34.268  1.00  0.00     0.002 A 
HETATM   13  C   UNL     1      -4.027  -3.631 -33.764  1.00  0.00     0.030 A 
HETATM   14  N   UNL     1      -4.495  -1.201 -33.531  1.00  0.00    -0.321 N 
HETATM   15  H   UNL     1      -3.656  -0.910 -33.052  1.00  0.00     0.169 HD
HETATM   16  O   UNL     1      -5.589   0.865 -33.736  1.00  0.00    -0.266 OA
ENDBRANCH   1   5
BRANCH   2  17
HETATM   17  C   UNL     1      -9.285   2.426 -34.261  1.00  0.00     0.197 C 
BRANCH  17  18
HETATM   18  N   UNL     1     -10.485   2.700 -35.061  1.00  0.00    -0.284 NA
HETATM   19  H   UNL     1     -10.426   2.210 -35.955  1.00  0.00     0.128 HD
BRANCH  18  20
HETATM   20  C   UNL     1     -11.758   2.603 -34.496  1.00  0.00     0.008 A 
HETATM   21  C   UNL     1     -12.721   1.678 -34.915  1.00  0.00     0.025 A 
HETATM   22  C   UNL     1     -13.951   1.559 -34.253  1.00  0.00     0.021 A 
HETATM   23  C   UNL     1     -14.216   2.347 -33.139  1.00  0.00     0.011 A 
HETATM   24 BR   UNL     1     -15.867   2.176 -32.235  1.00  0.00    -0.051 Br
HETATM   25  C   UNL     1     -13.261   3.245 -32.677  1.00  0.00     0.021 A 
HETATM   26  C   UNL     1     -12.038   3.357 -33.345  1.00  0.00     0.025 A 
ENDBRANCH  18  20
ENDBRANCH  17  18
ENDBRANCH   2  17
TORSDOF 4
ENDMDL
MODEL 2
REMARK VINA RESULT:      -8.4      5.979      8.622
REMARK  4 active torsions:
REMARK  status: ('A' for Active; 'I' for Inactive)
REMARK    1  A    between atoms: N_7  and  N_8 
REMARK       I    between atoms: N_8  and  C_9 
REMARK    2  A    between atoms: C_9  and  C_10 
REMARK    3  A    between atoms: C_10  and  N_11 
REMARK    4  A    between atoms: N_11  and  C_12 
ROOT
HETATM    1  N   UNL     1      -3.868   2.353 -31.843  1.00  0.00    -0.245 N 
HETATM    2  C   UNL     1      -5.020   2.230 -31.084  1.00  0.00     0.250 C 
HETATM    3  O   UNL     1      -5.200   2.740 -29.978  1.00  0.00    -0.270 OA
HETATM    4  H   UNL     1      -3.854   2.041 -32.817  1.00  0.00     0.192 HD
ENDROOT
BRANCH   1   5
HETATM    5  N   UNL     1      -2.780   3.009 -31.338  1.00  0.00    -0.166 NA
HETATM    6  C   UNL     1      -2.485   4.147 -31.878  1.00  0.00     0.157 A 
HETATM    7  C   UNL     1      -1.365   5.001 -31.504  1.00  0.00     0.027 A 
HETATM    8  C   UNL     1      -3.203   4.876 -33.019  1.00  0.00     0.277 A 
HETATM    9  C   UNL     1      -0.380   4.829 -30.553  1.00  0.00     0.016 A 
HETATM   10  C   UNL     1      -1.424   6.121 -32.331  1.00  0.00     0.048 A 
HETATM   11  C   UNL     1       0.577   5.841 -30.446  1.00  0.00     0.001 A 
HETATM   12  C   UNL     1       0.523   6.979 -31.278  1.00  0.00     0.002 A 
HETATM   13  C   UNL     1      -0.489   7.130 -32.235  1.00  0.00     0.030 A 
HETATM   14  N   UNL     1      -2.502   6.046 -33.211  1.00  0.00    -0.321 N 
HETATM   15  H   UNL     1      -2.747   6.735 -33.906  1.00  0.00     0.169 HD
HETATM   16  O   UNL     1      -4.178   4.451 -33.603  1.00  0.00    -0.266 OA
ENDBRANCH   1   5
BRANCH   2  17
HETATM   17  C   UNL     1      -6.108   1.395 -31.764  1.00  0.00     0.197 C 
BRANCH  17  18
HETATM   18  N   UNL     1      -5.794   1.162 -33.178  1.00  0.00    -0.284 NA
HETATM   19  H   UNL     1      -4.948   1.673 -33.436  1.00  0.00     0.128 HD
BRANCH  18  20
HETATM   20  C   UNL     1      -5.806  -0.129 -33.709  1.00  0.00     0.008 A 
HETATM   21  C   UNL     1      -4.731  -1.019 -33.604  1.00  0.00     0.025 A 
HETATM   22  C   UNL     1      -4.828  -2.336 -34.073  1.00  0.00     0.021 A 
HETATM   23  C   UNL     1      -6.021  -2.787 -34.627  1.00  0.00     0.011 A 
HETATM   24 BR   UNL     1      -6.158  -4.568 -35.244  1.00  0.00    -0.051 Br
HETATM   25  C   UNL     1      -7.117  -1.937 -34.707  1.00  0.00     0.021 A 
HETATM   26  C   UNL     1      -7.010  -0.625 -34.236  1.00  0.00     0.025 A 
ENDBRANCH  18  20
ENDBRANCH  17  18
ENDBRANCH   2  17
TORSDOF 4
ENDMDL
MODEL 3
REMARK VINA RESULT:      -8.3      4.796      6.233
REMARK  4 active torsions:
REMARK  status: ('A' for Active; 'I' for Inactive)
REMARK    1  A    between atoms: N_7  and  N_8 
REMARK       I    between atoms: N_8  and  C_9 
REMARK    2  A    between atoms: C_9  and  C_10 
REMARK    3  A    between atoms: C_10  and  N_11 
REMARK    4  A    between atoms: N_11  and  C_12 
ROOT
HETATM    1  N   UNL     1      -6.623   1.366 -33.367  1.00  0.00    -0.245 N 
HETATM    2  C   UNL     1      -7.556   2.355 -33.636  1.00  0.00     0.250 C 
HETATM    3  O   UNL     1      -8.641   2.177 -34.189  1.00  0.00    -0.270 OA
HETATM    4  H   UNL     1      -5.823   1.560 -32.761  1.00  0.00     0.192 HD
ENDROOT
BRANCH   1   5
HETATM    5  N   UNL     1      -6.834   0.088 -33.803  1.00  0.00    -0.166 NA
HETATM    6  C   UNL     1      -5.838  -0.732 -33.705  1.00  0.00     0.157 A 
HETATM    7  C   UNL     1      -5.841  -2.129 -34.120  1.00  0.00     0.027 A 
HETATM    8  C   UNL     1      -4.434  -0.465 -33.150  1.00  0.00     0.277 A 
HETATM    9  C   UNL     1      -6.832  -2.891 -34.704  1.00  0.00     0.016 A 
HETATM   10  C   UNL     1      -4.576  -2.634 -33.831  1.00  0.00     0.048 A 
HETATM   11  C   UNL     1      -6.513  -4.220 -35.000  1.00  0.00     0.001 A 
HETATM   12  C   UNL     1      -5.234  -4.739 -34.708  1.00  0.00     0.002 A 
HETATM   13  C   UNL     1      -4.247  -3.943 -34.114  1.00  0.00     0.030 A 
HETATM   14  N   UNL     1      -3.759  -1.660 -33.259  1.00  0.00    -0.321 N 
HETATM   15  H   UNL     1      -2.801  -1.787 -32.970  1.00  0.00     0.169 HD
HETATM   16  O   UNL     1      -4.052   0.607 -32.727  1.00  0.00    -0.266 OA
ENDBRANCH   1   5
BRANCH   2  17
HETATM   17  C   UNL     1      -7.125   3.742 -33.152  1.00  0.00     0.197 C 
BRANCH  17  18
HETATM   18  N   UNL     1      -6.476   4.503 -34.226  1.00  0.00    -0.284 NA
HETATM   19  H   UNL     1      -7.163   5.097 -34.695  1.00  0.00     0.128 HD
BRANCH  18  20
HETATM   20  C   UNL     1      -5.274   5.175 -33.999  1.00  0.00     0.008 A 
HETATM   21  C   UNL     1      -4.987   5.870 -32.818  1.00  0.00     0.025 A 
HETATM   22  C   UNL     1      -3.729   6.449 -32.603  1.00  0.00     0.021 A 
HETATM   23  C   UNL     1      -2.730   6.310 -33.560  1.00  0.00     0.011 A 
HETATM   24 BR   UNL     1      -1.028   7.077 -33.264  1.00  0.00    -0.051 Br
HETATM   25  C   UNL     1      -2.975   5.591 -34.723  1.00  0.00     0.021 A 
HETATM   26  C   UNL     1      -4.234   5.017 -34.929  1.00  0.00     0.025 A 
ENDBRANCH  18  20
ENDBRANCH  17  18
ENDBRANCH   2  17
TORSDOF 4
ENDMDL
MODEL 4
REMARK VINA RESULT:      -8.2      4.677      6.226
REMARK  4 active torsions:
REMARK  status: ('A' for Active; 'I' for Inactive)
REMARK    1  A    between atoms: N_7  and  N_8 
REMARK       I    between atoms: N_8  and  C_9 
REMARK    2  A    between atoms: C_9  and  C_10 
REMARK    3  A    between atoms: C_10  and  N_11 
REMARK    4  A    between atoms: N_11  and  C_12 
ROOT
HETATM    1  N   UNL     1      -6.768   1.239 -33.286  1.00  0.00    -0.245 N 
HETATM    2  C   UNL     1      -7.414   1.691 -32.146  1.00  0.00     0.250 C 
HETATM    3  O   UNL     1      -8.123   1.003 -31.411  1.00  0.00    -0.270 OA
HETATM    4  H   UNL     1      -6.068   1.823 -33.750  1.00  0.00     0.192 HD
ENDROOT
BRANCH   1   5
HETATM    5  N   UNL     1      -6.967  -0.040 -33.725  1.00  0.00    -0.166 NA
HETATM    6  C   UNL     1      -5.944  -0.832 -33.692  1.00  0.00     0.157 A 
HETATM    7  C   UNL     1      -5.931  -2.223 -34.124  1.00  0.00     0.027 A 
HETATM    8  C   UNL     1      -4.519  -0.529 -33.214  1.00  0.00     0.277 A 
HETATM    9  C   UNL     1      -6.930  -3.008 -34.660  1.00  0.00     0.016 A 
HETATM   10  C   UNL     1      -4.637  -2.694 -33.912  1.00  0.00     0.048 A 
HETATM   11  C   UNL     1      -6.591  -4.324 -34.990  1.00  0.00     0.001 A 
HETATM   12  C   UNL     1      -5.284  -4.809 -34.776  1.00  0.00     0.002 A 
HETATM   13  C   UNL     1      -4.287  -3.990 -34.229  1.00  0.00     0.030 A 
HETATM   14  N   UNL     1      -3.817  -1.703 -33.375  1.00  0.00    -0.321 N 
HETATM   15  H   UNL     1      -2.841  -1.805 -33.142  1.00  0.00     0.169 HD
HETATM   16  O   UNL     1      -4.145   0.548 -32.801  1.00  0.00    -0.266 OA
ENDBRANCH   1   5
BRANCH   2  17
HETATM   17  C   UNL     1      -7.149   3.167 -31.844  1.00  0.00     0.197 C 
BRANCH  17  18
HETATM   18  N   UNL     1      -5.834   3.356 -31.221  1.00  0.00    -0.284 NA
HETATM   19  H   UNL     1      -5.561   2.508 -30.720  1.00  0.00     0.128 HD
BRANCH  18  20
HETATM   20  C   UNL     1      -4.771   3.898 -31.947  1.00  0.00     0.008 A 
HETATM   21  C   UNL     1      -3.429   3.750 -31.579  1.00  0.00     0.025 A 
HETATM   22  C   UNL     1      -2.395   4.234 -32.392  1.00  0.00     0.021 A 
HETATM   23  C   UNL     1      -2.696   4.847 -33.603  1.00  0.00     0.011 A 
HETATM   24 BR   UNL     1      -1.302   5.486 -34.707  1.00  0.00    -0.051 Br
HETATM   25  C   UNL     1      -4.018   4.972 -34.011  1.00  0.00     0.021 A 
HETATM   26  C   UNL     1      -5.042   4.486 -33.193  1.00  0.00     0.025 A 
ENDBRANCH  18  20
ENDBRANCH  17  18
ENDBRANCH   2  17
TORSDOF 4
ENDMDL
MODEL 5
REMARK VINA RESULT:      -8.0      6.644      8.734
REMARK  4 active torsions:
REMARK  status: ('A' for Active; 'I' for Inactive)
REMARK    1  A    between atoms: N_7  and  N_8 
REMARK       I    between atoms: N_8  and  C_9 
REMARK    2  A    between atoms: C_9  and  C_10 
REMARK    3  A    between atoms: C_10  and  N_11 
REMARK    4  A    between atoms: N_11  and  C_12 
ROOT
HETATM    1  N   UNL     1      -4.416   2.059 -31.750  1.00  0.00    -0.245 N 
HETATM    2  C   UNL     1      -4.245   3.324 -32.287  1.00  0.00     0.250 C 
HETATM    3  O   UNL     1      -4.568   3.662 -33.426  1.00  0.00    -0.270 OA
HETATM    4  H   UNL     1      -4.277   1.898 -30.749  1.00  0.00     0.192 HD
ENDROOT
BRANCH   1   5
HETATM    5  N   UNL     1      -4.898   1.043 -32.527  1.00  0.00    -0.166 NA
HETATM    6  C   UNL     1      -4.283  -0.093 -32.447  1.00  0.00     0.157 A 
HETATM    7  C   UNL     1      -4.621  -1.297 -33.194  1.00  0.00     0.027 A 
HETATM    8  C   UNL     1      -3.075  -0.463 -31.581  1.00  0.00     0.277 A 
HETATM    9  C   UNL     1      -5.605  -1.528 -34.132  1.00  0.00     0.016 A 
HETATM   10  C   UNL     1      -3.712  -2.278 -32.801  1.00  0.00     0.048 A 
HETATM   11  C   UNL     1      -5.661  -2.810 -34.687  1.00  0.00     0.001 A 
HETATM   12  C   UNL     1      -4.746  -3.809 -34.292  1.00  0.00     0.002 A 
HETATM   13  C   UNL     1      -3.756  -3.548 -33.336  1.00  0.00     0.030 A 
HETATM   14  N   UNL     1      -2.814  -1.788 -31.854  1.00  0.00    -0.321 N 
HETATM   15  H   UNL     1      -2.064  -2.309 -31.426  1.00  0.00     0.169 HD
HETATM   16  O   UNL     1      -2.499   0.302 -30.835  1.00  0.00    -0.266 OA
ENDBRANCH   1   5
BRANCH   2  17
HETATM   17  C   UNL     1      -3.618   4.319 -31.308  1.00  0.00     0.197 C 
BRANCH  17  18
HETATM   18  N   UNL     1      -2.279   4.728 -31.748  1.00  0.00    -0.284 NA
HETATM   19  H   UNL     1      -2.308   5.020 -32.726  1.00  0.00     0.128 HD
BRANCH  18  20
HETATM   20  C   UNL     1      -1.504   5.589 -30.969  1.00  0.00     0.008 A 
HETATM   21  C   UNL     1      -1.890   6.894 -30.641  1.00  0.00     0.025 A 
HETATM   22  C   UNL     1      -1.118   7.686 -29.779  1.00  0.00     0.021 A 
HETATM   23  C   UNL     1       0.038   7.165 -29.209  1.00  0.00     0.011 A 
HETATM   24 BR   UNL     1       1.070   8.225 -28.035  1.00  0.00    -0.051 Br
HETATM   25  C   UNL     1       0.422   5.859 -29.486  1.00  0.00     0.021 A 
HETATM   26  C   UNL     1      -0.354   5.077 -30.347  1.00  0.00     0.025 A 
ENDBRANCH  18  20
ENDBRANCH  17  18
ENDBRANCH   2  17
TORSDOF 4
ENDMDL
MODEL 6
REMARK VINA RESULT:      -7.9      7.281      9.638
REMARK  4 active torsions:
REMARK  status: ('A' for Active; 'I' for Inactive)
REMARK    1  A    between atoms: N_7  and  N_8 
REMARK       I    between atoms: N_8  and  C_9 
REMARK    2  A    between atoms: C_9  and  C_10 
REMARK    3  A    between atoms: C_10  and  N_11 
REMARK    4  A    between atoms: N_11  and  C_12 
ROOT
HETATM    1  N   UNL     1      -3.291   2.609 -31.537  1.00  0.00    -0.245 N 
HETATM    2  C   UNL     1      -2.701   3.681 -32.187  1.00  0.00     0.250 C 
HETATM    3  O   UNL     1      -2.455   3.734 -33.392  1.00  0.00    -0.270 OA
HETATM    4  H   UNL     1      -3.614   2.703 -30.572  1.00  0.00     0.192 HD
ENDROOT
BRANCH   1   5
HETATM    5  N   UNL     1      -3.565   1.458 -32.222  1.00  0.00    -0.166 NA
HETATM    6  C   UNL     1      -4.813   1.182 -32.421  1.00  0.00     0.157 A 
HETATM    7  C   UNL     1      -5.324   0.006 -33.112  1.00  0.00     0.027 A 
HETATM    8  C   UNL     1      -6.047   1.985 -31.994  1.00  0.00     0.277 A 
HETATM    9  C   UNL     1      -4.662  -1.061 -33.684  1.00  0.00     0.016 A 
HETATM   10  C   UNL     1      -6.714   0.110 -33.103  1.00  0.00     0.048 A 
HETATM   11  C   UNL     1      -5.452  -2.055 -34.268  1.00  0.00     0.001 A 
HETATM   12  C   UNL     1      -6.860  -1.955 -34.265  1.00  0.00     0.002 A 
HETATM   13  C   UNL     1      -7.507  -0.860 -33.677  1.00  0.00     0.030 A 
HETATM   14  N   UNL     1      -7.131   1.271 -32.454  1.00  0.00    -0.321 N 
HETATM   15  H   UNL     1      -8.088   1.561 -32.317  1.00  0.00     0.169 HD
HETATM   16  O   UNL     1      -6.011   3.025 -31.369  1.00  0.00    -0.266 OA
ENDBRANCH   1   5
BRANCH   2  17
HETATM   17  C   UNL     1      -2.387   4.855 -31.257  1.00  0.00     0.197 C 
BRANCH  17  18
HETATM   18  N   UNL     1      -1.028   4.755 -30.713  1.00  0.00    -0.284 NA
HETATM   19  H   UNL     1      -0.386   4.430 -31.438  1.00  0.00     0.128 HD
BRANCH  18  20
HETATM   20  C   UNL     1      -0.482   5.795 -29.959  1.00  0.00     0.008 A 
HETATM   21  C   UNL     1      -0.913   7.124 -30.048  1.00  0.00     0.025 A 
HETATM   22  C   UNL     1      -0.396   8.114 -29.202  1.00  0.00     0.021 A 
HETATM   23  C   UNL     1       0.542   7.776 -28.232  1.00  0.00     0.011 A 
HETATM   24 BR   UNL     1       1.228   9.108 -27.081  1.00  0.00    -0.051 Br
HETATM   25  C   UNL     1       0.957   6.458 -28.096  1.00  0.00     0.021 A 
HETATM   26  C   UNL     1       0.435   5.477 -28.944  1.00  0.00     0.025 A 
ENDBRANCH  18  20
ENDBRANCH  17  18
ENDBRANCH   2  17
TORSDOF 4
ENDMDL
MODEL 7
REMARK VINA RESULT:      -7.8      4.994      7.640
REMARK  4 active torsions:
REMARK  status: ('A' for Active; 'I' for Inactive)
REMARK    1  A    between atoms: N_7  and  N_8 
REMARK       I    between atoms: N_8  and  C_9 
REMARK    2  A    between atoms: C_9  and  C_10 
REMARK    3  A    between atoms: C_10  and  N_11 
REMARK    4  A    between atoms: N_11  and  C_12 
ROOT
HETATM    1  N   UNL     1      -3.782   1.660 -31.468  1.00  0.00    -0.245 N 
HETATM    2  C   UNL     1      -3.392   0.338 -31.333  1.00  0.00     0.250 C 
HETATM    3  O   UNL     1      -2.256  -0.042 -31.051  1.00  0.00    -0.270 OA
HETATM    4  H   UNL     1      -4.773   1.903 -31.540  1.00  0.00     0.192 HD
ENDROOT
BRANCH   1   5
HETATM    5  N   UNL     1      -2.856   2.661 -31.377  1.00  0.00    -0.166 NA
HETATM    6  C   UNL     1      -3.051   3.705 -32.117  1.00  0.00     0.157 A 
HETATM    7  C   UNL     1      -2.185   4.874 -32.184  1.00  0.00     0.027 A 
HETATM    8  C   UNL     1      -4.201   3.979 -33.092  1.00  0.00     0.277 A 
HETATM    9  C   UNL     1      -1.001   5.156 -31.534  1.00  0.00     0.016 A 
HETATM   10  C   UNL     1      -2.770   5.751 -33.095  1.00  0.00     0.048 A 
HETATM   11  C   UNL     1      -0.395   6.380 -31.830  1.00  0.00     0.001 A 
HETATM   12  C   UNL     1      -0.982   7.274 -32.749  1.00  0.00     0.002 A 
HETATM   13  C   UNL     1      -2.186   6.964 -33.395  1.00  0.00     0.030 A 
HETATM   14  N   UNL     1      -3.950   5.226 -33.620  1.00  0.00    -0.321 N 
HETATM   15  H   UNL     1      -4.545   5.675 -34.299  1.00  0.00     0.169 HD
HETATM   16  O   UNL     1      -5.111   3.210 -33.320  1.00  0.00    -0.266 OA
ENDBRANCH   1   5
BRANCH   2  17
HETATM   17  C   UNL     1      -4.535  -0.656 -31.548  1.00  0.00     0.197 C 
BRANCH  17  18
HETATM   18  N   UNL     1      -5.061  -0.577 -32.916  1.00  0.00    -0.284 NA
HETATM   19  H   UNL     1      -4.800  -1.416 -33.438  1.00  0.00     0.128 HD
BRANCH  18  20
HETATM   20  C   UNL     1      -6.386  -0.207 -33.152  1.00  0.00     0.008 A 
HETATM   21  C   UNL     1      -7.276   0.169 -32.139  1.00  0.00     0.025 A 
HETATM   22  C   UNL     1      -8.569   0.621 -32.437  1.00  0.00     0.021 A 
HETATM   23  C   UNL     1      -8.974   0.731 -33.763  1.00  0.00     0.011 A 
HETATM   24 BR   UNL     1     -10.711   1.356 -34.167  1.00  0.00    -0.051 Br
HETATM   25  C   UNL     1      -8.098   0.403 -34.789  1.00  0.00     0.021 A 
HETATM   26  C   UNL     1      -6.810  -0.048 -34.481  1.00  0.00     0.025 A 
ENDBRANCH  18  20
ENDBRANCH  17  18
ENDBRANCH   2  17
TORSDOF 4
ENDMDL
MODEL 8
REMARK VINA RESULT:      -7.8      3.580      8.056
REMARK  4 active torsions:
REMARK  status: ('A' for Active; 'I' for Inactive)
REMARK    1  A    between atoms: N_7  and  N_8 
REMARK       I    between atoms: N_8  and  C_9 
REMARK    2  A    between atoms: C_9  and  C_10 
REMARK    3  A    between atoms: C_10  and  N_11 
REMARK    4  A    between atoms: N_11  and  C_12 
ROOT
HETATM    1  N   UNL     1      -7.351   2.571 -32.699  1.00  0.00    -0.245 N 
HETATM    2  C   UNL     1      -6.143   2.728 -33.360  1.00  0.00     0.250 C 
HETATM    3  O   UNL     1      -6.005   3.223 -34.479  1.00  0.00    -0.270 OA
HETATM    4  H   UNL     1      -7.370   2.307 -31.711  1.00  0.00     0.192 HD
ENDROOT
BRANCH   1   5
HETATM    5  N   UNL     1      -8.522   2.894 -33.325  1.00  0.00    -0.166 NA
HETATM    6  C   UNL     1      -9.467   2.011 -33.284  1.00  0.00     0.157 A 
HETATM    7  C   UNL     1     -10.783   2.144 -33.894  1.00  0.00     0.027 A 
HETATM    8  C   UNL     1      -9.455   0.633 -32.614  1.00  0.00     0.277 A 
HETATM    9  C   UNL     1     -11.330   3.168 -34.639  1.00  0.00     0.016 A 
HETATM   10  C   UNL     1     -11.477   0.971 -33.604  1.00  0.00     0.048 A 
HETATM   11  C   UNL     1     -12.636   2.984 -35.102  1.00  0.00     0.001 A 
HETATM   12  C   UNL     1     -13.347   1.800 -34.810  1.00  0.00     0.002 A 
HETATM   13  C   UNL     1     -12.767   0.776 -34.051  1.00  0.00     0.030 A 
HETATM   14  N   UNL     1     -10.699   0.094 -32.851  1.00  0.00    -0.321 N 
HETATM   15  H   UNL     1     -10.984  -0.818 -32.526  1.00  0.00     0.169 HD
HETATM   16  O   UNL     1      -8.506   0.163 -32.020  1.00  0.00    -0.266 OA
ENDBRANCH   1   5
BRANCH   2  17
HETATM   17  C   UNL     1      -4.941   2.240 -32.549  1.00  0.00     0.197 C 
BRANCH  17  18
HETATM   18  N   UNL     1      -5.246   0.991 -31.842  1.00  0.00    -0.284 NA
HETATM   19  H   UNL     1      -6.242   0.954 -31.616  1.00  0.00     0.128 HD
BRANCH  18  20
HETATM   20  C   UNL     1      -4.772  -0.233 -32.317  1.00  0.00     0.008 A 
HETATM   21  C   UNL     1      -3.794  -0.991 -31.663  1.00  0.00     0.025 A 
HETATM   22  C   UNL     1      -3.420  -2.257 -32.133  1.00  0.00     0.021 A 
HETATM   23  C   UNL     1      -4.048  -2.794 -33.252  1.00  0.00     0.011 A 
HETATM   24 BR   UNL     1      -3.557  -4.508 -33.876  1.00  0.00    -0.051 Br
HETATM   25  C   UNL     1      -5.051  -2.080 -33.896  1.00  0.00     0.021 A 
HETATM   26  C   UNL     1      -5.417  -0.817 -33.420  1.00  0.00     0.025 A 
ENDBRANCH  18  20
ENDBRANCH  17  18
ENDBRANCH   2  17
TORSDOF 4
ENDMDL
MODEL 9
REMARK VINA RESULT:      -7.7      6.484      9.045
REMARK  4 active torsions:
REMARK  status: ('A' for Active; 'I' for Inactive)
REMARK    1  A    between atoms: N_7  and  N_8 
REMARK       I    between atoms: N_8  and  C_9 
REMARK    2  A    between atoms: C_9  and  C_10 
REMARK    3  A    between atoms: C_10  and  N_11 
REMARK    4  A    between atoms: N_11  and  C_12 
ROOT
HETATM    1  N   UNL     1      -3.945   3.794 -32.829  1.00  0.00    -0.245 N 
HETATM    2  C   UNL     1      -4.165   2.449 -32.575  1.00  0.00     0.250 C 
HETATM    3  O   UNL     1      -3.364   1.688 -32.032  1.00  0.00    -0.270 OA
HETATM    4  H   UNL     1      -4.714   4.397 -33.130  1.00  0.00     0.192 HD
ENDROOT
BRANCH   1   5
HETATM    5  N   UNL     1      -2.728   4.353 -32.555  1.00  0.00    -0.166 NA
HETATM    6  C   UNL     1      -2.674   5.165 -31.548  1.00  0.00     0.157 A 
HETATM    7  C   UNL     1      -1.487   5.877 -31.093  1.00  0.00     0.027 A 
HETATM    8  C   UNL     1      -3.803   5.587 -30.603  1.00  0.00     0.277 A 
HETATM    9  C   UNL     1      -0.199   5.888 -31.587  1.00  0.00     0.016 A 
HETATM   10  C   UNL     1      -1.875   6.631 -29.987  1.00  0.00     0.048 A 
HETATM   11  C   UNL     1       0.725   6.700 -30.923  1.00  0.00     0.001 A 
HETATM   12  C   UNL     1       0.340   7.464 -29.801  1.00  0.00     0.002 A 
HETATM   13  C   UNL     1      -0.975   7.435 -29.320  1.00  0.00     0.030 A 
HETATM   14  N   UNL     1      -3.228   6.454 -29.701  1.00  0.00    -0.321 N 
HETATM   15  H   UNL     1      -3.736   6.898 -28.952  1.00  0.00     0.169 HD
HETATM   16  O   UNL     1      -4.953   5.209 -30.689  1.00  0.00    -0.266 OA
ENDBRANCH   1   5
BRANCH   2  17
HETATM   17  C   UNL     1      -5.549   1.968 -33.018  1.00  0.00     0.197 C 
BRANCH  17  18
HETATM   18  N   UNL     1      -5.946   0.752 -32.299  1.00  0.00    -0.284 NA
HETATM   19  H   UNL     1      -6.764   0.944 -31.717  1.00  0.00     0.128 HD
BRANCH  18  20
HETATM   20  C   UNL     1      -6.055  -0.469 -32.966  1.00  0.00     0.008 A 
HETATM   21  C   UNL     1      -7.252  -0.950 -33.508  1.00  0.00     0.025 A 
HETATM   22  C   UNL     1      -7.289  -2.139 -34.249  1.00  0.00     0.021 A 
HETATM   23  C   UNL     1      -6.114  -2.845 -34.484  1.00  0.00     0.011 A 
HETATM   24 BR   UNL     1      -6.160  -4.439 -35.497  1.00  0.00    -0.051 Br
HETATM   25  C   UNL     1      -4.906  -2.369 -33.993  1.00  0.00     0.021 A 
HETATM   26  C   UNL     1      -4.879  -1.182 -33.253  1.00  0.00     0.025 A 
ENDBRANCH  18  20
ENDBRANCH  17  18
ENDBRANCH   2  17
TORSDOF 4
ENDMDL
MODEL 10
REMARK VINA RESULT:      -7.7      5.380      7.341
REMARK  4 active torsions:
REMARK  status: ('A' for Active; 'I' for Inactive)
REMARK    1  A    between atoms: N_7  and  N_8 
REMARK       I    between atoms: N_8  and  C_9 
REMARK    2  A    between atoms: C_9  and  C_10 
REMARK    3  A    between atoms: C_10  and  N_11 
REMARK    4  A    between atoms: N_11  and  C_12 
ROOT
HETATM    1  N   UNL     1      -5.149   1.479 -32.975  1.00  0.00    -0.245 N 
HETATM    2  C   UNL     1      -5.141   2.042 -31.710  1.00  0.00     0.250 C 
HETATM    3  O   UNL     1      -4.696   1.505 -30.696  1.00  0.00    -0.270 OA
HETATM    4  H   UNL     1      -5.382   2.046 -33.794  1.00  0.00     0.192 HD
ENDROOT
BRANCH   1   5
HETATM    5  N   UNL     1      -4.722   0.193 -33.157  1.00  0.00    -0.166 NA
HETATM    6  C   UNL     1      -5.554  -0.624 -33.717  1.00  0.00     0.157 A 
HETATM    7  C   UNL     1      -5.309  -2.034 -33.991  1.00  0.00     0.027 A 
HETATM    8  C   UNL     1      -6.974  -0.342 -34.220  1.00  0.00     0.277 A 
HETATM    9  C   UNL     1      -4.208  -2.823 -33.730  1.00  0.00     0.016 A 
HETATM   10  C   UNL     1      -6.460  -2.528 -34.601  1.00  0.00     0.048 A 
HETATM   11  C   UNL     1      -4.289  -4.166 -34.109  1.00  0.00     0.001 A 
HETATM   12  C   UNL     1      -5.451  -4.672 -34.730  1.00  0.00     0.002 A 
HETATM   13  C   UNL     1      -6.555  -3.849 -34.984  1.00  0.00     0.030 A 
HETATM   14  N   UNL     1      -7.428  -1.534 -34.738  1.00  0.00    -0.321 N 
HETATM   15  H   UNL     1      -8.343  -1.653 -35.145  1.00  0.00     0.169 HD
HETATM   16  O   UNL     1      -7.534   0.732 -34.138  1.00  0.00    -0.266 OA
ENDBRANCH   1   5
BRANCH   2  17
HETATM   17  C   UNL     1      -5.730   3.454 -31.671  1.00  0.00     0.197 C 
BRANCH  17  18
HETATM   18  N   UNL     1      -4.976   4.370 -32.534  1.00  0.00    -0.284 NA
HETATM   19  H   UNL     1      -5.573   5.148 -32.822  1.00  0.00     0.128 HD
BRANCH  18  20
HETATM   20  C   UNL     1      -3.698   4.801 -32.173  1.00  0.00     0.008 A 
HETATM   21  C   UNL     1      -2.549   4.527 -32.925  1.00  0.00     0.025 A 
HETATM   22  C   UNL     1      -1.303   5.061 -32.568  1.00  0.00     0.021 A 
HETATM   23  C   UNL     1      -1.200   5.905 -31.468  1.00  0.00     0.011 A 
HETATM   24 BR   UNL     1       0.476   6.638 -30.997  1.00  0.00    -0.051 Br
HETATM   25  C   UNL     1      -2.331   6.225 -30.728  1.00  0.00     0.021 A 
HETATM   26  C   UNL     1      -3.570   5.687 -31.091  1.00  0.00     0.025 A 
ENDBRANCH  18  20
ENDBRANCH  17  18
ENDBRANCH   2  17
TORSDOF 4
ENDMDL
