MODEL 1
REMARK VINA RESULT:      -7.8      0.000      0.000
REMARK  8 active torsions:
REMARK  status: ('A' for Active; 'I' for Inactive)
REMARK    1  A    between atoms: O_2  and  C_3 
REMARK    2  A    between atoms: C_4  and  N_5 
REMARK    3  A    between atoms: N_5  and  C_6 
REMARK    4  A    between atoms: C_6  and  C_7 
REMARK       I    between atoms: C_7  and  N_8 
REMARK    5  A    between atoms: N_8  and  N_9 
REMARK    6  A    between atoms: N_9  and  C_10 
REMARK    7  A    between atoms: C_10  and  C_11 
REMARK       I    between atoms: C_11  and  N_12 
REMARK    8  A    between atoms: N_12  and  C_13 
ROOT
HETATM    1  C   UNL     1      -3.705  -0.290 -31.297  1.00  0.00     0.245 C 
HETATM    2  N   UNL     1      -5.025  -0.019 -30.945  1.00  0.00    -0.290 N 
HETATM    3  O   UNL     1      -2.761   0.476 -31.099  1.00  0.00    -0.271 OA
HETATM    4  H   UNL     1      -5.763  -0.592 -31.353  1.00  0.00     0.183 HD
ENDROOT
BRANCH   2   5
HETATM    5  N   UNL     1      -5.351   1.207 -30.315  1.00  0.00    -0.229 NA
HETATM    6  H   UNL     1      -5.946   1.015 -29.503  1.00  0.00     0.147 HD
BRANCH   5   7
HETATM    7  C   UNL     1      -6.081   2.096 -31.243  1.00  0.00     0.213 C 
BRANCH   7   8
HETATM    8  C   UNL     1      -5.286   3.385 -31.459  1.00  0.00     0.236 C 
HETATM    9  N   UNL     1      -4.102   3.176 -32.149  1.00  0.00    -0.326 N 
HETATM   10  H   UNL     1      -3.905   2.201 -32.368  1.00  0.00     0.169 HD
HETATM   11  O   UNL     1      -5.721   4.465 -31.064  1.00  0.00    -0.272 OA
BRANCH   9  12
HETATM   12  C   UNL     1      -3.147   4.139 -32.533  1.00  0.00     0.036 A 
HETATM   13  C   UNL     1      -2.022   4.468 -31.770  1.00  0.00     0.056 A 
HETATM   14  C   UNL     1      -1.118   5.433 -32.226  1.00  0.00     0.074 A 
HETATM   15 CL   UNL     1       0.263   5.821 -31.272  1.00  0.00    -0.081 Cl
HETATM   16  C   UNL     1      -1.336   6.072 -33.443  1.00  0.00     0.138 A 
HETATM   17  F   UNL     1      -0.479   6.999 -33.897  1.00  0.00    -0.204 F 
HETATM   18  C   UNL     1      -2.449   5.757 -34.212  1.00  0.00     0.046 A 
HETATM   19  C   UNL     1      -3.354   4.793 -33.757  1.00  0.00     0.032 A 
ENDBRANCH   9  12
ENDBRANCH   7   8
ENDBRANCH   5   7
ENDBRANCH   2   5
BRANCH   1  20
HETATM   20  C   UNL     1      -3.529  -1.621 -32.041  1.00  0.00     0.196 C 
BRANCH  20  21
HETATM   21  N   UNL     1      -3.798  -1.412 -33.476  1.00  0.00    -0.282 NA
HETATM   22  H   UNL     1      -2.907  -1.415 -33.977  1.00  0.00     0.128 HD
BRANCH  21  23
HETATM   23  C   UNL     1      -4.608  -2.461 -33.994  1.00  0.00     0.042 A 
HETATM   24  C   UNL     1      -5.930  -2.238 -34.437  1.00  0.00     0.089 A 
HETATM   25  C   UNL     1      -6.705  -3.322 -34.868  1.00  0.00     0.038 A 
HETATM   26  C   UNL     1      -6.183  -4.618 -34.854  1.00  0.00     0.003 A 
HETATM   27  C   UNL     1      -4.888  -4.844 -34.402  1.00  0.00     0.002 A 
HETATM   28  C   UNL     1      -4.108  -3.774 -33.970  1.00  0.00     0.026 A 
BRANCH  24  29
HETATM   29  O   UNL     1      -6.385  -0.940 -34.404  1.00  0.00    -0.354 OA
HETATM   30  C   UNL     1      -7.474  -0.683 -33.523  1.00  0.00     0.210 C 
ENDBRANCH  24  29
ENDBRANCH  21  23
ENDBRANCH  20  21
ENDBRANCH   1  20
TORSDOF 8
ENDMDL
MODEL 2
REMARK VINA RESULT:      -7.6      3.963      8.119
REMARK  8 active torsions:
REMARK  status: ('A' for Active; 'I' for Inactive)
REMARK    1  A    between atoms: O_2  and  C_3 
REMARK    2  A    between atoms: C_4  and  N_5 
REMARK    3  A    between atoms: N_5  and  C_6 
REMARK    4  A    between atoms: C_6  and  C_7 
REMARK       I    between atoms: C_7  and  N_8 
REMARK    5  A    between atoms: N_8  and  N_9 
REMARK    6  A    between atoms: N_9  and  C_10 
REMARK    7  A    between atoms: C_10  and  C_11 
REMARK       I    between atoms: C_11  and  N_12 
REMARK    8  A    between atoms: N_12  and  C_13 
ROOT
HETATM    1  C   UNL     1      -4.807   2.505 -31.366  1.00  0.00     0.245 C 
HETATM    2  N   UNL     1      -5.736   2.742 -32.377  1.00  0.00    -0.290 N 
HETATM    3  O   UNL     1      -5.096   2.369 -30.176  1.00  0.00    -0.271 OA
HETATM    4  H   UNL     1      -5.395   3.073 -33.279  1.00  0.00     0.183 HD
ENDROOT
BRANCH   2   5
HETATM    5  N   UNL     1      -7.114   2.842 -32.065  1.00  0.00    -0.229 NA
HETATM    6  H   UNL     1      -7.278   2.411 -31.149  1.00  0.00     0.147 HD
BRANCH   5   7
HETATM    7  C   UNL     1      -7.933   2.144 -33.076  1.00  0.00     0.213 C 
BRANCH   7   8
HETATM    8  C   UNL     1      -7.076   1.119 -33.822  1.00  0.00     0.236 C 
HETATM    9  N   UNL     1      -6.899  -0.054 -33.106  1.00  0.00    -0.326 N 
HETATM   10  H   UNL     1      -7.315  -0.051 -32.176  1.00  0.00     0.169 HD
HETATM   11  O   UNL     1      -6.644   1.361 -34.947  1.00  0.00    -0.272 OA
BRANCH   9  12
HETATM   12  C   UNL     1      -6.187  -1.205 -33.500  1.00  0.00     0.036 A 
HETATM   13  C   UNL     1      -6.729  -2.224 -34.291  1.00  0.00     0.056 A 
HETATM   14  C   UNL     1      -5.952  -3.333 -34.642  1.00  0.00     0.074 A 
HETATM   15 CL   UNL     1      -6.639  -4.574 -35.620  1.00  0.00    -0.081 Cl
HETATM   16  C   UNL     1      -4.636  -3.428 -34.204  1.00  0.00     0.138 A 
HETATM   17  F   UNL     1      -3.875  -4.484 -34.532  1.00  0.00    -0.204 F 
HETATM   18  C   UNL     1      -4.083  -2.426 -33.416  1.00  0.00     0.046 A 
HETATM   19  C   UNL     1      -4.858  -1.316 -33.064  1.00  0.00     0.032 A 
ENDBRANCH   9  12
ENDBRANCH   7   8
ENDBRANCH   5   7
ENDBRANCH   2   5
BRANCH   1  20
HETATM   20  C   UNL     1      -3.353   2.505 -31.854  1.00  0.00     0.196 C 
BRANCH  20  21
HETATM   21  N   UNL     1      -2.621   3.602 -31.194  1.00  0.00    -0.282 NA
HETATM   22  H   UNL     1      -1.852   3.199 -30.654  1.00  0.00     0.128 HD
BRANCH  21  23
HETATM   23  C   UNL     1      -2.073   4.494 -32.159  1.00  0.00     0.042 A 
HETATM   24  C   UNL     1      -1.313   5.624 -31.788  1.00  0.00     0.089 A 
HETATM   25  C   UNL     1      -0.863   6.507 -32.779  1.00  0.00     0.038 A 
HETATM   26  C   UNL     1      -1.167   6.281 -34.123  1.00  0.00     0.003 A 
HETATM   27  C   UNL     1      -1.931   5.178 -34.491  1.00  0.00     0.002 A 
HETATM   28  C   UNL     1      -2.385   4.294 -33.515  1.00  0.00     0.026 A 
BRANCH  24  29
HETATM   29  O   UNL     1      -1.070   5.795 -30.445  1.00  0.00    -0.354 OA
HETATM   30  C   UNL     1       0.262   6.160 -30.095  1.00  0.00     0.210 C 
ENDBRANCH  24  29
ENDBRANCH  21  23
ENDBRANCH  20  21
ENDBRANCH   1  20
TORSDOF 8
ENDMDL
MODEL 3
REMARK VINA RESULT:      -7.6      3.006      4.983
REMARK  8 active torsions:
REMARK  status: ('A' for Active; 'I' for Inactive)
REMARK    1  A    between atoms: O_2  and  C_3 
REMARK    2  A    between atoms: C_4  and  N_5 
REMARK    3  A    between atoms: N_5  and  C_6 
REMARK    4  A    between atoms: C_6  and  C_7 
REMARK       I    between atoms: C_7  and  N_8 
REMARK    5  A    between atoms: N_8  and  N_9 
REMARK    6  A    between atoms: N_9  and  C_10 
REMARK    7  A    between atoms: C_10  and  C_11 
REMARK       I    between atoms: C_11  and  N_12 
REMARK    8  A    between atoms: N_12  and  C_13 
ROOT
HETATM    1  C   UNL     1      -5.241   4.900 -33.938  1.00  0.00     0.245 C 
HETATM    2  N   UNL     1      -4.407   4.851 -35.053  1.00  0.00    -0.290 N 
HETATM    3  O   UNL     1      -5.151   5.739 -33.040  1.00  0.00    -0.271 OA
HETATM    4  H   UNL     1      -4.397   3.998 -35.612  1.00  0.00     0.183 HD
ENDROOT
BRANCH   2   5
HETATM    5  N   UNL     1      -3.373   5.807 -35.207  1.00  0.00    -0.229 NA
HETATM    6  H   UNL     1      -3.376   6.145 -36.174  1.00  0.00     0.147 HD
BRANCH   5   7
HETATM    7  C   UNL     1      -2.056   5.207 -34.912  1.00  0.00     0.213 C 
BRANCH   7   8
HETATM    8  C   UNL     1      -1.360   6.002 -33.805  1.00  0.00     0.236 C 
HETATM    9  N   UNL     1      -1.378   5.348 -32.583  1.00  0.00    -0.326 N 
HETATM   10  H   UNL     1      -1.889   4.466 -32.581  1.00  0.00     0.169 HD
HETATM   11  O   UNL     1      -0.834   7.087 -34.045  1.00  0.00    -0.272 OA
BRANCH   9  12
HETATM   12  C   UNL     1      -0.816   5.781 -31.365  1.00  0.00     0.036 A 
HETATM   13  C   UNL     1      -1.158   6.981 -30.732  1.00  0.00     0.056 A 
HETATM   14  C   UNL     1      -0.556   7.335 -29.520  1.00  0.00     0.074 A 
HETATM   15 CL   UNL     1      -0.994   8.816 -28.756  1.00  0.00    -0.081 Cl
HETATM   16  C   UNL     1       0.387   6.494 -28.939  1.00  0.00     0.138 A 
HETATM   17  F   UNL     1       0.973   6.817 -27.776  1.00  0.00    -0.204 F 
HETATM   18  C   UNL     1       0.738   5.300 -29.555  1.00  0.00     0.046 A 
HETATM   19  C   UNL     1       0.138   4.944 -30.767  1.00  0.00     0.032 A 
ENDBRANCH   9  12
ENDBRANCH   7   8
ENDBRANCH   5   7
ENDBRANCH   2   5
BRANCH   1  20
HETATM   20  C   UNL     1      -6.255   3.750 -33.877  1.00  0.00     0.196 C 
BRANCH  20  21
HETATM   21  N   UNL     1      -5.664   2.623 -33.132  1.00  0.00    -0.282 NA
HETATM   22  H   UNL     1      -5.973   2.680 -32.160  1.00  0.00     0.128 HD
BRANCH  21  23
HETATM   23  C   UNL     1      -6.100   1.380 -33.671  1.00  0.00     0.042 A 
HETATM   24  C   UNL     1      -5.496   0.155 -33.314  1.00  0.00     0.089 A 
HETATM   25  C   UNL     1      -5.919  -1.028 -33.933  1.00  0.00     0.038 A 
HETATM   26  C   UNL     1      -6.925  -1.003 -34.902  1.00  0.00     0.003 A 
HETATM   27  C   UNL     1      -7.510   0.204 -35.269  1.00  0.00     0.002 A 
HETATM   28  C   UNL     1      -7.097   1.388 -34.661  1.00  0.00     0.026 A 
BRANCH  24  29
HETATM   29  O   UNL     1      -4.498   0.207 -32.368  1.00  0.00    -0.354 OA
HETATM   30  C   UNL     1      -3.225  -0.284 -32.777  1.00  0.00     0.210 C 
ENDBRANCH  24  29
ENDBRANCH  21  23
ENDBRANCH  20  21
ENDBRANCH   1  20
TORSDOF 8
ENDMDL
MODEL 4
REMARK VINA RESULT:      -7.6      1.435      2.321
REMARK  8 active torsions:
REMARK  status: ('A' for Active; 'I' for Inactive)
REMARK    1  A    between atoms: O_2  and  C_3 
REMARK    2  A    between atoms: C_4  and  N_5 
REMARK    3  A    between atoms: N_5  and  C_6 
REMARK    4  A    between atoms: C_6  and  C_7 
REMARK       I    between atoms: C_7  and  N_8 
REMARK    5  A    between atoms: N_8  and  N_9 
REMARK    6  A    between atoms: N_9  and  C_10 
REMARK    7  A    between atoms: C_10  and  C_11 
REMARK       I    between atoms: C_11  and  N_12 
REMARK    8  A    between atoms: N_12  and  C_13 
ROOT
HETATM    1  C   UNL     1      -7.269   0.648 -32.461  1.00  0.00     0.245 C 
HETATM    2  N   UNL     1      -7.193   0.574 -31.072  1.00  0.00    -0.290 N 
HETATM    3  O   UNL     1      -7.222   1.697 -33.105  1.00  0.00    -0.271 OA
HETATM    4  H   UNL     1      -7.475  -0.294 -30.617  1.00  0.00     0.183 HD
ENDROOT
BRANCH   2   5
HETATM    5  N   UNL     1      -7.053   1.758 -30.306  1.00  0.00    -0.229 NA
HETATM    6  H   UNL     1      -7.425   2.546 -30.845  1.00  0.00     0.147 HD
BRANCH   5   7
HETATM    7  C   UNL     1      -5.633   2.017 -29.995  1.00  0.00     0.213 C 
BRANCH   7   8
HETATM    8  C   UNL     1      -5.148   3.245 -30.769  1.00  0.00     0.236 C 
HETATM    9  N   UNL     1      -3.776   3.246 -30.967  1.00  0.00    -0.326 N 
HETATM   10  H   UNL     1      -3.284   2.466 -30.532  1.00  0.00     0.169 HD
HETATM   11  O   UNL     1      -5.944   4.091 -31.170  1.00  0.00    -0.272 OA
BRANCH   9  12
HETATM   12  C   UNL     1      -3.004   4.206 -31.652  1.00  0.00     0.036 A 
HETATM   13  C   UNL     1      -2.586   5.416 -31.087  1.00  0.00     0.056 A 
HETATM   14  C   UNL     1      -1.817   6.314 -31.835  1.00  0.00     0.074 A 
HETATM   15 CL   UNL     1      -1.310   7.797 -31.119  1.00  0.00    -0.081 Cl
HETATM   16  C   UNL     1      -1.466   6.008 -33.145  1.00  0.00     0.138 A 
HETATM   17  F   UNL     1      -0.727   6.856 -33.877  1.00  0.00    -0.204 F 
HETATM   18  C   UNL     1      -1.875   4.811 -33.721  1.00  0.00     0.046 A 
HETATM   19  C   UNL     1      -2.643   3.912 -32.975  1.00  0.00     0.032 A 
ENDBRANCH   9  12
ENDBRANCH   7   8
ENDBRANCH   5   7
ENDBRANCH   2   5
BRANCH   1  20
HETATM   20  C   UNL     1      -7.499  -0.710 -33.137  1.00  0.00     0.196 C 
BRANCH  20  21
HETATM   21  N   UNL     1      -6.553  -0.859 -34.258  1.00  0.00    -0.282 NA
HETATM   22  H   UNL     1      -5.785  -0.198 -34.124  1.00  0.00     0.128 HD
BRANCH  21  23
HETATM   23  C   UNL     1      -6.012  -2.175 -34.290  1.00  0.00     0.042 A 
HETATM   24  C   UNL     1      -4.665  -2.440 -33.964  1.00  0.00     0.089 A 
HETATM   25  C   UNL     1      -4.171  -3.746 -34.084  1.00  0.00     0.038 A 
HETATM   26  C   UNL     1      -4.997  -4.780 -34.532  1.00  0.00     0.003 A 
HETATM   27  C   UNL     1      -6.320  -4.519 -34.872  1.00  0.00     0.002 A 
HETATM   28  C   UNL     1      -6.823  -3.224 -34.757  1.00  0.00     0.026 A 
BRANCH  24  29
HETATM   29  O   UNL     1      -3.904  -1.371 -33.550  1.00  0.00    -0.354 OA
HETATM   30  C   UNL     1      -3.661  -1.284 -32.149  1.00  0.00     0.210 C 
ENDBRANCH  24  29
ENDBRANCH  21  23
ENDBRANCH  20  21
ENDBRANCH   1  20
TORSDOF 8
ENDMDL
MODEL 5
REMARK VINA RESULT:      -7.4      4.090      5.523
REMARK  8 active torsions:
REMARK  status: ('A' for Active; 'I' for Inactive)
REMARK    1  A    between atoms: O_2  and  C_3 
REMARK    2  A    between atoms: C_4  and  N_5 
REMARK    3  A    between atoms: N_5  and  C_6 
REMARK    4  A    between atoms: C_6  and  C_7 
REMARK       I    between atoms: C_7  and  N_8 
REMARK    5  A    between atoms: N_8  and  N_9 
REMARK    6  A    between atoms: N_9  and  C_10 
REMARK    7  A    between atoms: C_10  and  C_11 
REMARK       I    between atoms: C_11  and  N_12 
REMARK    8  A    between atoms: N_12  and  C_13 
ROOT
HETATM    1  C   UNL     1      -4.441   0.419 -31.110  1.00  0.00     0.245 C 
HETATM    2  N   UNL     1      -3.794   1.634 -31.322  1.00  0.00    -0.290 N 
HETATM    3  O   UNL     1      -5.409   0.269 -30.362  1.00  0.00    -0.271 OA
HETATM    4  H   UNL     1      -2.873   1.622 -31.761  1.00  0.00     0.183 HD
ENDROOT
BRANCH   2   5
HETATM    5  N   UNL     1      -4.241   2.801 -30.656  1.00  0.00    -0.229 NA
HETATM    6  H   UNL     1      -4.975   2.541 -29.989  1.00  0.00     0.147 HD
BRANCH   5   7
HETATM    7  C   UNL     1      -4.792   3.776 -31.619  1.00  0.00     0.213 C 
BRANCH   7   8
HETATM    8  C   UNL     1      -5.848   3.100 -32.496  1.00  0.00     0.236 C 
HETATM    9  N   UNL     1      -7.014   2.810 -31.805  1.00  0.00    -0.326 N 
HETATM   10  H   UNL     1      -6.987   3.038 -30.812  1.00  0.00     0.169 HD
HETATM   11  O   UNL     1      -5.634   2.890 -33.688  1.00  0.00    -0.272 OA
BRANCH   9  12
HETATM   12  C   UNL     1      -8.187   2.211 -32.307  1.00  0.00     0.036 A 
HETATM   13  C   UNL     1      -9.042   2.823 -33.229  1.00  0.00     0.056 A 
HETATM   14  C   UNL     1     -10.186   2.157 -33.681  1.00  0.00     0.074 A 
HETATM   15 CL   UNL     1     -11.223   2.928 -34.820  1.00  0.00    -0.081 Cl
HETATM   16  C   UNL     1     -10.479   0.880 -33.213  1.00  0.00     0.138 A 
HETATM   17  F   UNL     1     -11.570   0.225 -33.637  1.00  0.00    -0.204 F 
HETATM   18  C   UNL     1      -9.641   0.259 -32.296  1.00  0.00     0.046 A 
HETATM   19  C   UNL     1      -8.497   0.923 -31.843  1.00  0.00     0.032 A 
ENDBRANCH   9  12
ENDBRANCH   7   8
ENDBRANCH   5   7
ENDBRANCH   2   5
BRANCH   1  20
HETATM   20  C   UNL     1      -3.787  -0.762 -31.839  1.00  0.00     0.196 C 
BRANCH  20  21
HETATM   21  N   UNL     1      -3.941  -0.576 -33.294  1.00  0.00    -0.282 NA
HETATM   22  H   UNL     1      -3.012  -0.571 -33.720  1.00  0.00     0.128 HD
BRANCH  21  23
HETATM   23  C   UNL     1      -4.690  -1.646 -33.862  1.00  0.00     0.042 A 
HETATM   24  C   UNL     1      -6.014  -1.471 -34.321  1.00  0.00     0.089 A 
HETATM   25  C   UNL     1      -6.727  -2.577 -34.802  1.00  0.00     0.038 A 
HETATM   26  C   UNL     1      -6.142  -3.846 -34.822  1.00  0.00     0.003 A 
HETATM   27  C   UNL     1      -4.845  -4.024 -34.354  1.00  0.00     0.002 A 
HETATM   28  C   UNL     1      -4.126  -2.932 -33.872  1.00  0.00     0.026 A 
BRANCH  24  29
HETATM   29  O   UNL     1      -6.533  -0.199 -34.253  1.00  0.00    -0.354 OA
HETATM   30  C   UNL     1      -7.272   0.234 -35.390  1.00  0.00     0.210 C 
ENDBRANCH  24  29
ENDBRANCH  21  23
ENDBRANCH  20  21
ENDBRANCH   1  20
TORSDOF 8
ENDMDL
MODEL 6
REMARK VINA RESULT:      -7.1      4.356      6.934
REMARK  8 active torsions:
REMARK  status: ('A' for Active; 'I' for Inactive)
REMARK    1  A    between atoms: O_2  and  C_3 
REMARK    2  A    between atoms: C_4  and  N_5 
REMARK    3  A    between atoms: N_5  and  C_6 
REMARK    4  A    between atoms: C_6  and  C_7 
REMARK       I    between atoms: C_7  and  N_8 
REMARK    5  A    between atoms: N_8  and  N_9 
REMARK    6  A    between atoms: N_9  and  C_10 
REMARK    7  A    between atoms: C_10  and  C_11 
REMARK       I    between atoms: C_11  and  N_12 
REMARK    8  A    between atoms: N_12  and  C_13 
ROOT
HETATM    1  C   UNL     1      -6.184   4.258 -31.900  1.00  0.00     0.245 C 
HETATM    2  N   UNL     1      -5.886   3.191 -31.055  1.00  0.00    -0.290 N 
HETATM    3  O   UNL     1      -5.407   5.180 -32.156  1.00  0.00    -0.271 OA
HETATM    4  H   UNL     1      -6.654   2.612 -30.718  1.00  0.00     0.183 HD
ENDROOT
BRANCH   2   5
HETATM    5  N   UNL     1      -4.619   3.121 -30.424  1.00  0.00    -0.229 NA
HETATM    6  H   UNL     1      -4.214   4.061 -30.387  1.00  0.00     0.147 HD
BRANCH   5   7
HETATM    7  C   UNL     1      -3.707   2.235 -31.176  1.00  0.00     0.213 C 
BRANCH   7   8
HETATM    8  C   UNL     1      -4.410   0.913 -31.491  1.00  0.00     0.236 C 
HETATM    9  N   UNL     1      -4.306   0.555 -32.826  1.00  0.00    -0.326 N 
HETATM   10  H   UNL     1      -3.827   1.238 -33.413  1.00  0.00     0.169 HD
HETATM   11  O   UNL     1      -4.965   0.269 -30.603  1.00  0.00    -0.272 OA
BRANCH   9  12
HETATM   12  C   UNL     1      -4.815  -0.601 -33.451  1.00  0.00     0.036 A 
HETATM   13  C   UNL     1      -4.151  -1.832 -33.473  1.00  0.00     0.056 A 
HETATM   14  C   UNL     1      -4.728  -2.934 -34.112  1.00  0.00     0.074 A 
HETATM   15 CL   UNL     1      -3.894  -4.442 -34.123  1.00  0.00    -0.081 Cl
HETATM   16  C   UNL     1      -5.968  -2.810 -34.731  1.00  0.00     0.138 A 
HETATM   17  F   UNL     1      -6.538  -3.856 -35.347  1.00  0.00    -0.204 F 
HETATM   18  C   UNL     1      -6.640  -1.594 -34.720  1.00  0.00     0.046 A 
HETATM   19  C   UNL     1      -6.064  -0.491 -34.081  1.00  0.00     0.032 A 
ENDBRANCH   9  12
ENDBRANCH   7   8
ENDBRANCH   5   7
ENDBRANCH   2   5
BRANCH   1  20
HETATM   20  C   UNL     1      -7.620   4.232 -32.440  1.00  0.00     0.196 C 
BRANCH  20  21
HETATM   21  N   UNL     1      -8.484   3.518 -31.481  1.00  0.00    -0.282 NA
HETATM   22  H   UNL     1      -9.145   4.186 -31.080  1.00  0.00     0.128 HD
BRANCH  21  23
HETATM   23  C   UNL     1      -9.223   2.492 -32.137  1.00  0.00     0.042 A 
HETATM   24  C   UNL     1     -10.451   2.751 -32.782  1.00  0.00     0.089 A 
HETATM   25  C   UNL     1     -11.169   1.688 -33.347  1.00  0.00     0.038 A 
HETATM   26  C   UNL     1     -10.684   0.380 -33.267  1.00  0.00     0.003 A 
HETATM   27  C   UNL     1      -9.483   0.120 -32.616  1.00  0.00     0.002 A 
HETATM   28  C   UNL     1      -8.760   1.169 -32.050  1.00  0.00     0.026 A 
BRANCH  24  29
HETATM   29  O   UNL     1     -10.878   4.058 -32.805  1.00  0.00    -0.354 OA
HETATM   30  C   UNL     1     -11.363   4.534 -34.057  1.00  0.00     0.210 C 
ENDBRANCH  24  29
ENDBRANCH  21  23
ENDBRANCH  20  21
ENDBRANCH   1  20
TORSDOF 8
ENDMDL
MODEL 7
REMARK VINA RESULT:      -7.1      3.992      8.119
REMARK  8 active torsions:
REMARK  status: ('A' for Active; 'I' for Inactive)
REMARK    1  A    between atoms: O_2  and  C_3 
REMARK    2  A    between atoms: C_4  and  N_5 
REMARK    3  A    between atoms: N_5  and  C_6 
REMARK    4  A    between atoms: C_6  and  C_7 
REMARK       I    between atoms: C_7  and  N_8 
REMARK    5  A    between atoms: N_8  and  N_9 
REMARK    6  A    between atoms: N_9  and  C_10 
REMARK    7  A    between atoms: C_10  and  C_11 
REMARK       I    between atoms: C_11  and  N_12 
REMARK    8  A    between atoms: N_12  and  C_13 
ROOT
HETATM    1  C   UNL     1      -5.697   4.555 -30.212  1.00  0.00     0.245 C 
HETATM    2  N   UNL     1      -6.015   3.702 -31.266  1.00  0.00    -0.290 N 
HETATM    3  O   UNL     1      -6.317   4.608 -29.149  1.00  0.00    -0.271 OA
HETATM    4  H   UNL     1      -5.605   3.890 -32.181  1.00  0.00     0.183 HD
ENDROOT
BRANCH   2   5
HETATM    5  N   UNL     1      -7.118   2.820 -31.155  1.00  0.00    -0.229 NA
HETATM    6  H   UNL     1      -6.916   2.128 -30.427  1.00  0.00     0.147 HD
BRANCH   5   7
HETATM    7  C   UNL     1      -7.358   2.117 -32.431  1.00  0.00     0.213 C 
BRANCH   7   8
HETATM    8  C   UNL     1      -6.879   0.667 -32.323  1.00  0.00     0.236 C 
HETATM    9  N   UNL     1      -6.344   0.189 -33.509  1.00  0.00    -0.326 N 
HETATM   10  H   UNL     1      -6.389   0.844 -34.289  1.00  0.00     0.169 HD
HETATM   11  O   UNL     1      -6.963   0.055 -31.261  1.00  0.00    -0.272 OA
BRANCH   9  12
HETATM   12  C   UNL     1      -5.796  -1.086 -33.756  1.00  0.00     0.036 A 
HETATM   13  C   UNL     1      -6.463  -2.099 -34.452  1.00  0.00     0.056 A 
HETATM   14  C   UNL     1      -5.846  -3.337 -34.658  1.00  0.00     0.074 A 
HETATM   15 CL   UNL     1      -6.684  -4.570 -35.521  1.00  0.00    -0.081 Cl
HETATM   16  C   UNL     1      -4.564  -3.566 -34.170  1.00  0.00     0.138 A 
HETATM   17  F   UNL     1      -3.955  -4.746 -34.360  1.00  0.00    -0.204 F 
HETATM   18  C   UNL     1      -3.888  -2.570 -33.475  1.00  0.00     0.046 A 
HETATM   19  C   UNL     1      -4.504  -1.332 -33.268  1.00  0.00     0.032 A 
ENDBRANCH   9  12
ENDBRANCH   7   8
ENDBRANCH   5   7
ENDBRANCH   2   5
BRANCH   1  20
HETATM   20  C   UNL     1      -4.529   5.503 -30.518  1.00  0.00     0.196 C 
BRANCH  20  21
HETATM   21  N   UNL     1      -3.361   4.709 -30.942  1.00  0.00    -0.282 NA
HETATM   22  H   UNL     1      -3.692   3.814 -31.308  1.00  0.00     0.128 HD
BRANCH  21  23
HETATM   23  C   UNL     1      -2.645   5.379 -31.974  1.00  0.00     0.042 A 
HETATM   24  C   UNL     1      -2.904   5.142 -33.341  1.00  0.00     0.089 A 
HETATM   25  C   UNL     1      -2.117   5.776 -34.312  1.00  0.00     0.038 A 
HETATM   26  C   UNL     1      -1.077   6.630 -33.936  1.00  0.00     0.003 A 
HETATM   27  C   UNL     1      -0.808   6.852 -32.590  1.00  0.00     0.002 A 
HETATM   28  C   UNL     1      -1.583   6.226 -31.616  1.00  0.00     0.026 A 
BRANCH  24  29
HETATM   29  O   UNL     1      -3.929   4.274 -33.638  1.00  0.00    -0.354 OA
HETATM   30  C   UNL     1      -4.975   4.798 -34.450  1.00  0.00     0.210 C 
ENDBRANCH  24  29
ENDBRANCH  21  23
ENDBRANCH  20  21
ENDBRANCH   1  20
TORSDOF 8
ENDMDL
MODEL 8
REMARK VINA RESULT:      -7.0      4.245      8.359
REMARK  8 active torsions:
REMARK  status: ('A' for Active; 'I' for Inactive)
REMARK    1  A    between atoms: O_2  and  C_3 
REMARK    2  A    between atoms: C_4  and  N_5 
REMARK    3  A    between atoms: N_5  and  C_6 
REMARK    4  A    between atoms: C_6  and  C_7 
REMARK       I    between atoms: C_7  and  N_8 
REMARK    5  A    between atoms: N_8  and  N_9 
REMARK    6  A    between atoms: N_9  and  C_10 
REMARK    7  A    between atoms: C_10  and  C_11 
REMARK       I    between atoms: C_11  and  N_12 
REMARK    8  A    between atoms: N_12  and  C_13 
ROOT
HETATM    1  C   UNL     1      -7.264   4.268 -33.818  1.00  0.00     0.245 C 
HETATM    2  N   UNL     1      -7.786   2.987 -33.645  1.00  0.00    -0.290 N 
HETATM    3  O   UNL     1      -7.888   5.213 -34.303  1.00  0.00    -0.271 OA
HETATM    4  H   UNL     1      -7.138   2.221 -33.462  1.00  0.00     0.183 HD
ENDROOT
BRANCH   2   5
HETATM    5  N   UNL     1      -9.117   2.706 -34.041  1.00  0.00    -0.229 NA
HETATM    6  H   UNL     1      -9.713   3.499 -33.785  1.00  0.00     0.147 HD
BRANCH   5   7
HETATM    7  C   UNL     1      -9.619   1.491 -33.367  1.00  0.00     0.213 C 
BRANCH   7   8
HETATM    8  C   UNL     1      -8.450   0.559 -33.038  1.00  0.00     0.236 C 
HETATM    9  N   UNL     1      -8.005  -0.153 -34.141  1.00  0.00    -0.326 N 
HETATM   10  H   UNL     1      -8.543   0.003 -34.992  1.00  0.00     0.169 HD
HETATM   11  O   UNL     1      -7.983   0.515 -31.902  1.00  0.00    -0.272 OA
BRANCH   9  12
HETATM   12  C   UNL     1      -6.943  -1.077 -34.198  1.00  0.00     0.036 A 
HETATM   13  C   UNL     1      -7.077  -2.390 -34.662  1.00  0.00     0.056 A 
HETATM   14  C   UNL     1      -5.969  -3.244 -34.691  1.00  0.00     0.074 A 
HETATM   15 CL   UNL     1      -6.156  -4.857 -35.270  1.00  0.00    -0.081 Cl
HETATM   16  C   UNL     1      -4.728  -2.791 -34.257  1.00  0.00     0.138 A 
HETATM   17  F   UNL     1      -3.655  -3.595 -34.280  1.00  0.00    -0.204 F 
HETATM   18  C   UNL     1      -4.579  -1.490 -33.792  1.00  0.00     0.046 A 
HETATM   19  C   UNL     1      -5.685  -0.635 -33.762  1.00  0.00     0.032 A 
ENDBRANCH   9  12
ENDBRANCH   7   8
ENDBRANCH   5   7
ENDBRANCH   2   5
BRANCH   1  20
HETATM   20  C   UNL     1      -5.789   4.389 -33.416  1.00  0.00     0.196 C 
BRANCH  20  21
HETATM   21  N   UNL     1      -5.323   5.761 -33.692  1.00  0.00    -0.282 NA
HETATM   22  H   UNL     1      -5.628   6.367 -32.927  1.00  0.00     0.128 HD
BRANCH  21  23
HETATM   23  C   UNL     1      -3.902   5.806 -33.763  1.00  0.00     0.042 A 
HETATM   24  C   UNL     1      -3.132   6.584 -32.871  1.00  0.00     0.089 A 
HETATM   25  C   UNL     1      -1.742   6.646 -33.036  1.00  0.00     0.038 A 
HETATM   26  C   UNL     1      -1.118   5.955 -34.077  1.00  0.00     0.003 A 
HETATM   27  C   UNL     1      -1.876   5.202 -34.968  1.00  0.00     0.002 A 
HETATM   28  C   UNL     1      -3.259   5.132 -34.815  1.00  0.00     0.026 A 
BRANCH  24  29
HETATM   29  O   UNL     1      -3.815   7.254 -31.883  1.00  0.00    -0.354 OA
HETATM   30  C   UNL     1      -3.748   6.682 -30.581  1.00  0.00     0.210 C 
ENDBRANCH  24  29
ENDBRANCH  21  23
ENDBRANCH  20  21
ENDBRANCH   1  20
TORSDOF 8
ENDMDL
MODEL 9
REMARK VINA RESULT:      -7.0      4.006      6.644
REMARK  8 active torsions:
REMARK  status: ('A' for Active; 'I' for Inactive)
REMARK    1  A    between atoms: O_2  and  C_3 
REMARK    2  A    between atoms: C_4  and  N_5 
REMARK    3  A    between atoms: N_5  and  C_6 
REMARK    4  A    between atoms: C_6  and  C_7 
REMARK       I    between atoms: C_7  and  N_8 
REMARK    5  A    between atoms: N_8  and  N_9 
REMARK    6  A    between atoms: N_9  and  C_10 
REMARK    7  A    between atoms: C_10  and  C_11 
REMARK       I    between atoms: C_11  and  N_12 
REMARK    8  A    between atoms: N_12  and  C_13 
ROOT
HETATM    1  C   UNL     1      -6.162   4.396 -31.687  1.00  0.00     0.245 C 
HETATM    2  N   UNL     1      -5.480   3.187 -31.566  1.00  0.00    -0.290 N 
HETATM    3  O   UNL     1      -5.840   5.436 -31.111  1.00  0.00    -0.271 OA
HETATM    4  H   UNL     1      -5.945   2.336 -31.881  1.00  0.00     0.183 HD
ENDROOT
BRANCH   2   5
HETATM    5  N   UNL     1      -4.336   3.099 -30.736  1.00  0.00    -0.229 NA
HETATM    6  H   UNL     1      -3.984   4.045 -30.556  1.00  0.00     0.147 HD
BRANCH   5   7
HETATM    7  C   UNL     1      -3.273   2.309 -31.389  1.00  0.00     0.213 C 
BRANCH   7   8
HETATM    8  C   UNL     1      -3.750   0.870 -31.598  1.00  0.00     0.236 C 
HETATM    9  N   UNL     1      -4.092   0.605 -32.915  1.00  0.00    -0.326 N 
HETATM   10  H   UNL     1      -4.028   1.408 -33.540  1.00  0.00     0.169 HD
HETATM   11  O   UNL     1      -3.776   0.074 -30.662  1.00  0.00    -0.272 OA
BRANCH   9  12
HETATM   12  C   UNL     1      -4.548  -0.612 -33.459  1.00  0.00     0.036 A 
HETATM   13  C   UNL     1      -3.875  -1.830 -33.317  1.00  0.00     0.056 A 
HETATM   14  C   UNL     1      -4.399  -2.996 -33.885  1.00  0.00     0.074 A 
HETATM   15 CL   UNL     1      -3.554  -4.486 -33.694  1.00  0.00    -0.081 Cl
HETATM   16  C   UNL     1      -5.593  -2.949 -34.595  1.00  0.00     0.138 A 
HETATM   17  F   UNL     1      -6.112  -4.058 -35.145  1.00  0.00    -0.204 F 
HETATM   18  C   UNL     1      -6.274  -1.748 -34.747  1.00  0.00     0.046 A 
HETATM   19  C   UNL     1      -5.752  -0.581 -34.180  1.00  0.00     0.032 A 
ENDBRANCH   9  12
ENDBRANCH   7   8
ENDBRANCH   5   7
ENDBRANCH   2   5
BRANCH   1  20
HETATM   20  C   UNL     1      -7.423   4.306 -32.557  1.00  0.00     0.196 C 
BRANCH  20  21
HETATM   21  N   UNL     1      -7.294   3.163 -33.479  1.00  0.00    -0.282 NA
HETATM   22  H   UNL     1      -6.439   2.654 -33.247  1.00  0.00     0.128 HD
BRANCH  21  23
HETATM   23  C   UNL     1      -8.398   2.275 -33.339  1.00  0.00     0.042 A 
HETATM   24  C   UNL     1      -8.356   1.158 -32.477  1.00  0.00     0.089 A 
HETATM   25  C   UNL     1      -9.446   0.278 -32.436  1.00  0.00     0.038 A 
HETATM   26  C   UNL     1     -10.564   0.494 -33.245  1.00  0.00     0.003 A 
HETATM   27  C   UNL     1     -10.602   1.584 -34.108  1.00  0.00     0.002 A 
HETATM   28  C   UNL     1      -9.524   2.465 -34.158  1.00  0.00     0.026 A 
BRANCH  24  29
HETATM   29  O   UNL     1      -7.215   0.996 -31.726  1.00  0.00    -0.354 OA
HETATM   30  C   UNL     1      -7.227  -0.087 -30.801  1.00  0.00     0.210 C 
ENDBRANCH  24  29
ENDBRANCH  21  23
ENDBRANCH  20  21
ENDBRANCH   1  20
TORSDOF 8
ENDMDL
MODEL 10
REMARK VINA RESULT:      -7.0      1.934      2.883
REMARK  8 active torsions:
REMARK  status: ('A' for Active; 'I' for Inactive)
REMARK    1  A    between atoms: O_2  and  C_3 
REMARK    2  A    between atoms: C_4  and  N_5 
REMARK    3  A    between atoms: N_5  and  C_6 
REMARK    4  A    between atoms: C_6  and  C_7 
REMARK       I    between atoms: C_7  and  N_8 
REMARK    5  A    between atoms: N_8  and  N_9 
REMARK    6  A    between atoms: N_9  and  C_10 
REMARK    7  A    between atoms: C_10  and  C_11 
REMARK       I    between atoms: C_11  and  N_12 
REMARK    8  A    between atoms: N_12  and  C_13 
ROOT
HETATM    1  C   UNL     1      -7.311   1.616 -32.053  1.00  0.00     0.245 C 
HETATM    2  N   UNL     1      -6.852   2.527 -33.002  1.00  0.00    -0.290 N 
HETATM    3  O   UNL     1      -8.073   1.902 -31.128  1.00  0.00    -0.271 OA
HETATM    4  H   UNL     1      -6.053   2.263 -33.578  1.00  0.00     0.183 HD
ENDROOT
BRANCH   2   5
HETATM    5  N   UNL     1      -7.258   3.882 -32.938  1.00  0.00    -0.229 NA
HETATM    6  H   UNL     1      -8.251   3.942 -33.185  1.00  0.00     0.147 HD
BRANCH   5   7
HETATM    7  C   UNL     1      -6.479   4.709 -33.882  1.00  0.00     0.213 C 
BRANCH   7   8
HETATM    8  C   UNL     1      -5.390   5.473 -33.125  1.00  0.00     0.236 C 
HETATM    9  N   UNL     1      -4.111   5.055 -33.459  1.00  0.00    -0.326 N 
HETATM   10  H   UNL     1      -4.077   4.274 -34.114  1.00  0.00     0.169 HD
HETATM   11  O   UNL     1      -5.683   6.371 -32.339  1.00  0.00    -0.272 OA
BRANCH   9  12
HETATM   12  C   UNL     1      -2.886   5.552 -32.971  1.00  0.00     0.036 A 
HETATM   13  C   UNL     1      -2.177   4.975 -31.912  1.00  0.00     0.056 A 
HETATM   14  C   UNL     1      -0.964   5.530 -31.491  1.00  0.00     0.074 A 
HETATM   15 CL   UNL     1      -0.106   4.801 -30.187  1.00  0.00    -0.081 Cl
HETATM   16  C   UNL     1      -0.457   6.660 -32.124  1.00  0.00     0.138 A 
HETATM   17  F   UNL     1       0.705   7.204 -31.735  1.00  0.00    -0.204 F 
HETATM   18  C   UNL     1      -1.150   7.246 -33.176  1.00  0.00     0.046 A 
HETATM   19  C   UNL     1      -2.363   6.693 -33.599  1.00  0.00     0.032 A 
ENDBRANCH   9  12
ENDBRANCH   7   8
ENDBRANCH   5   7
ENDBRANCH   2   5
BRANCH   1  20
HETATM   20  C   UNL     1      -6.717   0.211 -32.212  1.00  0.00     0.196 C 
BRANCH  20  21
HETATM   21  N   UNL     1      -6.082   0.100 -33.538  1.00  0.00    -0.282 NA
HETATM   22  H   UNL     1      -5.181   0.581 -33.507  1.00  0.00     0.128 HD
BRANCH  21  23
HETATM   23  C   UNL     1      -5.854  -1.264 -33.875  1.00  0.00     0.042 A 
HETATM   24  C   UNL     1      -4.573  -1.851 -33.793  1.00  0.00     0.089 A 
HETATM   25  C   UNL     1      -4.395  -3.177 -34.209  1.00  0.00     0.038 A 
HETATM   26  C   UNL     1      -5.471  -3.915 -34.709  1.00  0.00     0.003 A 
HETATM   27  C   UNL     1      -6.730  -3.334 -34.808  1.00  0.00     0.002 A 
HETATM   28  C   UNL     1      -6.919  -2.016 -34.399  1.00  0.00     0.026 A 
BRANCH  24  29
HETATM   29  O   UNL     1      -3.556  -1.060 -33.311  1.00  0.00    -0.354 OA
HETATM   30  C   UNL     1      -3.115  -1.349 -31.988  1.00  0.00     0.210 C 
ENDBRANCH  24  29
ENDBRANCH  21  23
ENDBRANCH  20  21
ENDBRANCH   1  20
TORSDOF 8
ENDMDL
