MODEL 1
REMARK VINA RESULT:      -8.9      0.000      0.000
REMARK  5 active torsions:
REMARK  status: ('A' for Active; 'I' for Inactive)
REMARK    1  A    between atoms: C_5  and  O_6 
REMARK    2  A    between atoms: O_6  and  C_7 
REMARK    3  A    between atoms: C_7  and  C_8 
REMARK       I    between atoms: C_8  and  N_9 
REMARK    4  A    between atoms: N_9  and  N_10 
REMARK    5  A    between atoms: C_11  and  C_12 
ROOT
HETATM    1  C   UNL     1      -9.291   2.310 -34.254  1.00  0.00     0.261 C 
HETATM    2  N   UNL     1      -9.036   1.124 -34.933  1.00  0.00    -0.246 N 
HETATM    3  O   UNL     1      -8.464   2.994 -33.653  1.00  0.00    -0.269 OA
HETATM    4  H   UNL     1      -9.848   0.551 -35.160  1.00  0.00     0.192 HD
ENDROOT
BRANCH   2   5
HETATM    5  N   UNL     1      -7.841   0.440 -34.945  1.00  0.00    -0.184 NA
HETATM    6  C   UNL     1      -7.414  -0.076 -33.837  1.00  0.00     0.152 C 
BRANCH   6   7
HETATM    7  C   UNL     1      -6.189  -0.851 -33.824  1.00  0.00     0.011 A 
HETATM    8  C   UNL     1      -6.048  -2.233 -34.178  1.00  0.00     0.004 A 
HETATM    9  C   UNL     1      -4.705  -2.573 -34.017  1.00  0.00     0.043 A 
HETATM   10  C   UNL     1      -6.943  -3.227 -34.632  1.00  0.00     0.014 A 
HETATM   11  C   UNL     1      -4.212  -3.856 -34.279  1.00  0.00     0.030 A 
HETATM   12  N   UNL     1      -4.052  -1.442 -33.584  1.00  0.00    -0.364 N 
HETATM   13  C   UNL     1      -5.119  -4.823 -34.726  1.00  0.00     0.002 A 
HETATM   14  C   UNL     1      -6.465  -4.514 -34.903  1.00  0.00     0.001 A 
HETATM   15  H   UNL     1      -3.061  -1.393 -33.388  1.00  0.00     0.165 HD
HETATM   16  C   UNL     1      -4.931  -0.400 -33.471  1.00  0.00     0.102 A 
ENDBRANCH   6   7
ENDBRANCH   2   5
BRANCH   1  17
HETATM   17  C   UNL     1     -10.744   2.766 -34.367  1.00  0.00     0.280 C 
BRANCH  17  18
HETATM   18  O   UNL     1     -11.438   2.663 -33.120  1.00  0.00    -0.342 OA
BRANCH  18  19
HETATM   19  C   UNL     1     -12.688   2.140 -33.350  1.00  0.00     0.075 A 
HETATM   20  C   UNL     1     -13.810   2.622 -32.655  1.00  0.00    -0.023 A 
HETATM   21  C   UNL     1     -15.051   1.982 -32.860  1.00  0.00    -0.053 A 
HETATM   22  C   UNL     1     -13.674   3.757 -31.676  1.00  0.00     0.052 C 
HETATM   23  C   UNL     1     -16.290   2.395 -32.110  1.00  0.00     0.049 C 
HETATM   24  C   UNL     1     -15.151   0.950 -33.809  1.00  0.00     0.007 A 
HETATM   25  C   UNL     1     -14.036   0.534 -34.536  1.00  0.00     0.003 A 
HETATM   26  C   UNL     1     -12.802   1.130 -34.307  1.00  0.00     0.037 A 
ENDBRANCH  18  19
ENDBRANCH  17  18
ENDBRANCH   1  17
TORSDOF 5
ENDMDL
MODEL 2
REMARK VINA RESULT:      -8.6      6.100      9.697
REMARK  5 active torsions:
REMARK  status: ('A' for Active; 'I' for Inactive)
REMARK    1  A    between atoms: C_5  and  O_6 
REMARK    2  A    between atoms: O_6  and  C_7 
REMARK    3  A    between atoms: C_7  and  C_8 
REMARK       I    between atoms: C_8  and  N_9 
REMARK    4  A    between atoms: N_9  and  N_10 
REMARK    5  A    between atoms: C_11  and  C_12 
ROOT
HETATM    1  C   UNL     1      -3.367   0.243 -31.292  1.00  0.00     0.261 C 
HETATM    2  N   UNL     1      -4.239   1.316 -31.433  1.00  0.00    -0.246 N 
HETATM    3  O   UNL     1      -2.236   0.286 -30.809  1.00  0.00    -0.269 OA
HETATM    4  H   UNL     1      -5.023   1.180 -32.069  1.00  0.00     0.192 HD
ENDROOT
BRANCH   2   5
HETATM    5  N   UNL     1      -3.945   2.637 -31.174  1.00  0.00    -0.184 NA
HETATM    6  C   UNL     1      -3.286   3.308 -32.064  1.00  0.00     0.152 C 
BRANCH   6   7
HETATM    7  C   UNL     1      -3.008   4.715 -31.852  1.00  0.00     0.011 A 
HETATM    8  C   UNL     1      -1.764   5.285 -31.425  1.00  0.00     0.004 A 
HETATM    9  C   UNL     1      -1.941   6.666 -31.346  1.00  0.00     0.043 A 
HETATM   10  C   UNL     1      -0.496   4.750 -31.107  1.00  0.00     0.014 A 
HETATM   11  C   UNL     1      -0.918   7.540 -30.958  1.00  0.00     0.030 A 
HETATM   12  N   UNL     1      -3.241   6.928 -31.713  1.00  0.00    -0.364 N 
HETATM   13  C   UNL     1       0.327   6.984 -30.647  1.00  0.00     0.002 A 
HETATM   14  C   UNL     1       0.538   5.610 -30.721  1.00  0.00     0.001 A 
HETATM   15  H   UNL     1      -3.649   7.852 -31.752  1.00  0.00     0.165 HD
HETATM   16  C   UNL     1      -3.889   5.765 -32.026  1.00  0.00     0.102 A 
ENDBRANCH   6   7
ENDBRANCH   2   5
BRANCH   1  17
HETATM   17  C   UNL     1      -3.969  -1.083 -31.746  1.00  0.00     0.280 C 
BRANCH  17  18
HETATM   18  O   UNL     1      -4.263  -1.089 -33.147  1.00  0.00    -0.342 OA
BRANCH  18  19
HETATM   19  C   UNL     1      -4.421  -2.389 -33.562  1.00  0.00     0.075 A 
HETATM   20  C   UNL     1      -5.477  -2.750 -34.416  1.00  0.00    -0.023 A 
HETATM   21  C   UNL     1      -5.647  -4.116 -34.731  1.00  0.00    -0.053 A 
HETATM   22  C   UNL     1      -6.431  -1.709 -34.935  1.00  0.00     0.052 C 
HETATM   23  C   UNL     1      -6.787  -4.596 -35.589  1.00  0.00     0.049 C 
HETATM   24  C   UNL     1      -4.714  -5.057 -34.261  1.00  0.00     0.007 A 
HETATM   25  C   UNL     1      -3.636  -4.665 -33.469  1.00  0.00     0.003 A 
HETATM   26  C   UNL     1      -3.488  -3.328 -33.119  1.00  0.00     0.037 A 
ENDBRANCH  18  19
ENDBRANCH  17  18
ENDBRANCH   1  17
TORSDOF 5
ENDMDL
MODEL 3
REMARK VINA RESULT:      -8.5      2.230      8.507
REMARK  5 active torsions:
REMARK  status: ('A' for Active; 'I' for Inactive)
REMARK    1  A    between atoms: C_5  and  O_6 
REMARK    2  A    between atoms: O_6  and  C_7 
REMARK    3  A    between atoms: C_7  and  C_8 
REMARK       I    between atoms: C_8  and  N_9 
REMARK    4  A    between atoms: N_9  and  N_10 
REMARK    5  A    between atoms: C_11  and  C_12 
ROOT
HETATM    1  C   UNL     1      -6.408   0.487 -31.673  1.00  0.00     0.261 C 
HETATM    2  N   UNL     1      -7.556  -0.015 -32.274  1.00  0.00    -0.246 N 
HETATM    3  O   UNL     1      -6.293   1.587 -31.134  1.00  0.00    -0.269 OA
HETATM    4  H   UNL     1      -7.428  -0.818 -32.888  1.00  0.00     0.192 HD
ENDROOT
BRANCH   2   5
HETATM    5  N   UNL     1      -8.727   0.678 -32.486  1.00  0.00    -0.184 NA
HETATM    6  C   UNL     1      -9.034   1.015 -33.698  1.00  0.00     0.152 C 
BRANCH   6   7
HETATM    7  C   UNL     1     -10.286   1.695 -33.966  1.00  0.00     0.011 A 
HETATM    8  C   UNL     1     -11.600   1.129 -33.882  1.00  0.00     0.004 A 
HETATM    9  C   UNL     1     -12.510   2.128 -34.227  1.00  0.00     0.043 A 
HETATM   10  C   UNL     1     -12.101  -0.144 -33.532  1.00  0.00     0.014 A 
HETATM   11  C   UNL     1     -13.894   1.919 -34.248  1.00  0.00     0.030 A 
HETATM   12  N   UNL     1     -11.779   3.261 -34.508  1.00  0.00    -0.364 N 
HETATM   13  C   UNL     1     -14.364   0.648 -33.899  1.00  0.00     0.002 A 
HETATM   14  C   UNL     1     -13.482  -0.369 -33.544  1.00  0.00     0.001 A 
HETATM   15  H   UNL     1     -12.180   4.146 -34.784  1.00  0.00     0.165 HD
HETATM   16  C   UNL     1     -10.443   3.014 -34.348  1.00  0.00     0.102 A 
ENDBRANCH   6   7
ENDBRANCH   2   5
BRANCH   1  17
HETATM   17  C   UNL     1      -5.249  -0.506 -31.669  1.00  0.00     0.280 C 
BRANCH  17  18
HETATM   18  O   UNL     1      -4.614  -0.597 -32.949  1.00  0.00    -0.342 OA
BRANCH  18  19
HETATM   19  C   UNL     1      -4.519  -1.921 -33.304  1.00  0.00     0.075 A 
HETATM   20  C   UNL     1      -5.375  -2.470 -34.273  1.00  0.00    -0.023 A 
HETATM   21  C   UNL     1      -5.297  -3.857 -34.526  1.00  0.00    -0.053 A 
HETATM   22  C   UNL     1      -6.385  -1.607 -34.979  1.00  0.00     0.052 C 
HETATM   23  C   UNL     1      -6.219  -4.537 -35.504  1.00  0.00     0.049 C 
HETATM   24  C   UNL     1      -4.316  -4.627 -33.877  1.00  0.00     0.007 A 
HETATM   25  C   UNL     1      -3.433  -4.045 -32.968  1.00  0.00     0.003 A 
HETATM   26  C   UNL     1      -3.534  -2.689 -32.681  1.00  0.00     0.037 A 
ENDBRANCH  18  19
ENDBRANCH  17  18
ENDBRANCH   1  17
TORSDOF 5
ENDMDL
MODEL 4
REMARK VINA RESULT:      -8.5      0.592      1.635
REMARK  5 active torsions:
REMARK  status: ('A' for Active; 'I' for Inactive)
REMARK    1  A    between atoms: C_5  and  O_6 
REMARK    2  A    between atoms: O_6  and  C_7 
REMARK    3  A    between atoms: C_7  and  C_8 
REMARK       I    between atoms: C_8  and  N_9 
REMARK    4  A    between atoms: N_9  and  N_10 
REMARK    5  A    between atoms: C_11  and  C_12 
ROOT
HETATM    1  C   UNL     1      -9.446   2.300 -34.393  1.00  0.00     0.261 C 
HETATM    2  N   UNL     1      -9.163   1.046 -34.922  1.00  0.00    -0.246 N 
HETATM    3  O   UNL     1      -8.627   3.098 -33.940  1.00  0.00    -0.269 OA
HETATM    4  H   UNL     1      -9.953   0.410 -35.021  1.00  0.00     0.192 HD
ENDROOT
BRANCH   2   5
HETATM    5  N   UNL     1      -7.934   0.425 -34.916  1.00  0.00    -0.184 NA
HETATM    6  C   UNL     1      -7.552  -0.175 -33.834  1.00  0.00     0.152 C 
BRANCH   6   7
HETATM    7  C   UNL     1      -6.290  -0.889 -33.809  1.00  0.00     0.011 A 
HETATM    8  C   UNL     1      -6.077  -2.261 -34.165  1.00  0.00     0.004 A 
HETATM    9  C   UNL     1      -4.721  -2.535 -33.990  1.00  0.00     0.043 A 
HETATM   10  C   UNL     1      -6.917  -3.297 -34.630  1.00  0.00     0.014 A 
HETATM   11  C   UNL     1      -4.161  -3.792 -34.249  1.00  0.00     0.030 A 
HETATM   12  N   UNL     1      -4.128  -1.374 -33.548  1.00  0.00    -0.364 N 
HETATM   13  C   UNL     1      -5.015  -4.800 -34.708  1.00  0.00     0.002 A 
HETATM   14  C   UNL     1      -6.373  -4.558 -34.898  1.00  0.00     0.001 A 
HETATM   15  H   UNL     1      -3.144  -1.276 -33.341  1.00  0.00     0.165 HD
HETATM   16  C   UNL     1      -5.060  -0.377 -33.443  1.00  0.00     0.102 A 
ENDBRANCH   6   7
ENDBRANCH   2   5
BRANCH   1  17
HETATM   17  C   UNL     1     -10.925   2.667 -34.477  1.00  0.00     0.280 C 
BRANCH  17  18
HETATM   18  O   UNL     1     -11.756   1.706 -33.819  1.00  0.00    -0.342 OA
BRANCH  18  19
HETATM   19  C   UNL     1     -12.692   2.371 -33.065  1.00  0.00     0.075 A 
HETATM   20  C   UNL     1     -14.029   1.938 -33.029  1.00  0.00    -0.023 A 
HETATM   21  C   UNL     1     -14.966   2.717 -32.316  1.00  0.00    -0.053 A 
HETATM   22  C   UNL     1     -14.454   0.705 -33.780  1.00  0.00     0.052 C 
HETATM   23  C   UNL     1     -16.428   2.358 -32.277  1.00  0.00     0.049 C 
HETATM   24  C   UNL     1     -14.528   3.840 -31.594  1.00  0.00     0.007 A 
HETATM   25  C   UNL     1     -13.184   4.212 -31.591  1.00  0.00     0.003 A 
HETATM   26  C   UNL     1     -12.264   3.475 -32.327  1.00  0.00     0.037 A 
ENDBRANCH  18  19
ENDBRANCH  17  18
ENDBRANCH   1  17
TORSDOF 5
ENDMDL
MODEL 5
REMARK VINA RESULT:      -8.3      4.889      8.847
REMARK  5 active torsions:
REMARK  status: ('A' for Active; 'I' for Inactive)
REMARK    1  A    between atoms: C_5  and  O_6 
REMARK    2  A    between atoms: O_6  and  C_7 
REMARK    3  A    between atoms: C_7  and  C_8 
REMARK       I    between atoms: C_8  and  N_9 
REMARK    4  A    between atoms: N_9  and  N_10 
REMARK    5  A    between atoms: C_11  and  C_12 
ROOT
HETATM    1  C   UNL     1      -6.760   0.879 -32.591  1.00  0.00     0.261 C 
HETATM    2  N   UNL     1      -5.794   1.593 -33.290  1.00  0.00    -0.246 N 
HETATM    3  O   UNL     1      -7.454   1.307 -31.670  1.00  0.00    -0.269 OA
HETATM    4  H   UNL     1      -5.138   1.042 -33.841  1.00  0.00     0.192 HD
ENDROOT
BRANCH   2   5
HETATM    5  N   UNL     1      -5.354   2.864 -32.992  1.00  0.00    -0.184 NA
HETATM    6  C   UNL     1      -4.304   2.994 -32.247  1.00  0.00     0.152 C 
BRANCH   6   7
HETATM    7  C   UNL     1      -3.779   4.315 -31.960  1.00  0.00     0.011 A 
HETATM    8  C   UNL     1      -2.827   5.045 -32.745  1.00  0.00     0.004 A 
HETATM    9  C   UNL     1      -2.600   6.262 -32.103  1.00  0.00     0.043 A 
HETATM   10  C   UNL     1      -2.143   4.784 -33.952  1.00  0.00     0.014 A 
HETATM   11  C   UNL     1      -1.719   7.229 -32.602  1.00  0.00     0.030 A 
HETATM   12  N   UNL     1      -3.385   6.276 -30.973  1.00  0.00    -0.364 N 
HETATM   13  C   UNL     1      -1.053   6.945 -33.799  1.00  0.00     0.002 A 
HETATM   14  C   UNL     1      -1.261   5.742 -34.467  1.00  0.00     0.001 A 
HETATM   15  H   UNL     1      -3.427   7.041 -30.314  1.00  0.00     0.165 HD
HETATM   16  C   UNL     1      -4.103   5.114 -30.880  1.00  0.00     0.102 A 
ENDBRANCH   6   7
ENDBRANCH   2   5
BRANCH   1  17
HETATM   17  C   UNL     1      -6.957  -0.540 -33.119  1.00  0.00     0.280 C 
BRANCH  17  18
HETATM   18  O   UNL     1      -6.165  -0.795 -34.283  1.00  0.00    -0.342 OA
BRANCH  18  19
HETATM   19  C   UNL     1      -5.929  -2.147 -34.371  1.00  0.00     0.075 A 
HETATM   20  C   UNL     1      -4.735  -2.704 -33.882  1.00  0.00    -0.023 A 
HETATM   21  C   UNL     1      -4.505  -4.081 -34.088  1.00  0.00    -0.053 A 
HETATM   22  C   UNL     1      -3.708  -1.837 -33.206  1.00  0.00     0.052 C 
HETATM   23  C   UNL     1      -3.227  -4.746 -33.651  1.00  0.00     0.049 C 
HETATM   24  C   UNL     1      -5.503  -4.869 -34.689  1.00  0.00     0.007 A 
HETATM   25  C   UNL     1      -6.708  -4.304 -35.106  1.00  0.00     0.003 A 
HETATM   26  C   UNL     1      -6.923  -2.941 -34.946  1.00  0.00     0.037 A 
ENDBRANCH  18  19
ENDBRANCH  17  18
ENDBRANCH   1  17
TORSDOF 5
ENDMDL
MODEL 6
REMARK VINA RESULT:      -8.2      6.928     10.055
REMARK  5 active torsions:
REMARK  status: ('A' for Active; 'I' for Inactive)
REMARK    1  A    between atoms: C_5  and  O_6 
REMARK    2  A    between atoms: O_6  and  C_7 
REMARK    3  A    between atoms: C_7  and  C_8 
REMARK       I    between atoms: C_8  and  N_9 
REMARK    4  A    between atoms: N_9  and  N_10 
REMARK    5  A    between atoms: C_11  and  C_12 
ROOT
HETATM    1  C   UNL     1      -2.585   4.722 -32.009  1.00  0.00     0.261 C 
HETATM    2  N   UNL     1      -3.137   3.675 -31.280  1.00  0.00    -0.246 N 
HETATM    3  O   UNL     1      -1.988   4.624 -33.080  1.00  0.00    -0.269 OA
HETATM    4  H   UNL     1      -3.370   3.876 -30.309  1.00  0.00     0.192 HD
ENDROOT
BRANCH   2   5
HETATM    5  N   UNL     1      -3.003   2.334 -31.563  1.00  0.00    -0.184 NA
HETATM    6  C   UNL     1      -4.068   1.653 -31.842  1.00  0.00     0.152 C 
BRANCH   6   7
HETATM    7  C   UNL     1      -3.960   0.252 -32.201  1.00  0.00     0.011 A 
HETATM    8  C   UNL     1      -4.782  -0.455 -33.138  1.00  0.00     0.004 A 
HETATM    9  C   UNL     1      -4.336  -1.776 -33.173  1.00  0.00     0.043 A 
HETATM   10  C   UNL     1      -5.862  -0.089 -33.971  1.00  0.00     0.014 A 
HETATM   11  C   UNL     1      -4.919  -2.752 -33.992  1.00  0.00     0.030 A 
HETATM   12  N   UNL     1      -3.281  -1.870 -32.294  1.00  0.00    -0.364 N 
HETATM   13  C   UNL     1      -5.989  -2.363 -34.805  1.00  0.00     0.002 A 
HETATM   14  C   UNL     1      -6.454  -1.050 -34.797  1.00  0.00     0.001 A 
HETATM   15  H   UNL     1      -2.757  -2.716 -32.117  1.00  0.00     0.165 HD
HETATM   16  C   UNL     1      -3.042  -0.657 -31.710  1.00  0.00     0.102 A 
ENDBRANCH   6   7
ENDBRANCH   2   5
BRANCH   1  17
HETATM   17  C   UNL     1      -2.841   6.090 -31.383  1.00  0.00     0.280 C 
BRANCH  17  18
HETATM   18  O   UNL     1      -1.828   7.039 -31.731  1.00  0.00    -0.342 OA
BRANCH  18  19
HETATM   19  C   UNL     1      -1.470   7.739 -30.604  1.00  0.00     0.075 A 
HETATM   20  C   UNL     1      -0.321   7.391 -29.874  1.00  0.00    -0.023 A 
HETATM   21  C   UNL     1      -0.057   8.081 -28.671  1.00  0.00    -0.053 A 
HETATM   22  C   UNL     1       0.571   6.272 -30.339  1.00  0.00     0.052 C 
HETATM   23  C   UNL     1       1.118   7.730 -27.797  1.00  0.00     0.049 C 
HETATM   24  C   UNL     1      -0.889   9.147 -28.286  1.00  0.00     0.007 A 
HETATM   25  C   UNL     1      -1.986   9.517 -29.062  1.00  0.00     0.003 A 
HETATM   26  C   UNL     1      -2.278   8.813 -30.224  1.00  0.00     0.037 A 
ENDBRANCH  18  19
ENDBRANCH  17  18
ENDBRANCH   1  17
TORSDOF 5
ENDMDL
MODEL 7
REMARK VINA RESULT:      -8.2      5.394      9.279
REMARK  5 active torsions:
REMARK  status: ('A' for Active; 'I' for Inactive)
REMARK    1  A    between atoms: C_5  and  O_6 
REMARK    2  A    between atoms: O_6  and  C_7 
REMARK    3  A    between atoms: C_7  and  C_8 
REMARK       I    between atoms: C_8  and  N_9 
REMARK    4  A    between atoms: N_9  and  N_10 
REMARK    5  A    between atoms: C_11  and  C_12 
ROOT
HETATM    1  C   UNL     1      -5.840   2.246 -33.308  1.00  0.00     0.261 C 
HETATM    2  N   UNL     1      -4.575   2.388 -32.749  1.00  0.00    -0.246 N 
HETATM    3  O   UNL     1      -6.493   3.131 -33.859  1.00  0.00    -0.269 OA
HETATM    4  H   UNL     1      -4.277   1.647 -32.117  1.00  0.00     0.192 HD
ENDROOT
BRANCH   2   5
HETATM    5  N   UNL     1      -3.885   3.570 -32.600  1.00  0.00    -0.184 NA
HETATM    6  C   UNL     1      -2.693   3.656 -33.099  1.00  0.00     0.152 C 
BRANCH   6   7
HETATM    7  C   UNL     1      -1.959   4.903 -33.012  1.00  0.00     0.011 A 
HETATM    8  C   UNL     1      -1.138   5.336 -31.920  1.00  0.00     0.004 A 
HETATM    9  C   UNL     1      -0.629   6.592 -32.250  1.00  0.00     0.043 A 
HETATM   10  C   UNL     1      -0.771   4.767 -30.680  1.00  0.00     0.014 A 
HETATM   11  C   UNL     1       0.221   7.312 -31.402  1.00  0.00     0.030 A 
HETATM   12  N   UNL     1      -1.119   6.912 -33.495  1.00  0.00    -0.364 N 
HETATM   13  C   UNL     1       0.567   6.726 -30.179  1.00  0.00     0.002 A 
HETATM   14  C   UNL     1       0.081   5.472 -29.823  1.00  0.00     0.001 A 
HETATM   15  H   UNL     1      -0.911   7.768 -33.990  1.00  0.00     0.165 HD
HETATM   16  C   UNL     1      -1.913   5.902 -33.966  1.00  0.00     0.102 A 
ENDBRANCH   6   7
ENDBRANCH   2   5
BRANCH   1  17
HETATM   17  C   UNL     1      -6.367   0.815 -33.245  1.00  0.00     0.280 C 
BRANCH  17  18
HETATM   18  O   UNL     1      -5.412  -0.085 -32.675  1.00  0.00    -0.342 OA
BRANCH  18  19
HETATM   19  C   UNL     1      -5.482  -1.286 -33.340  1.00  0.00     0.075 A 
HETATM   20  C   UNL     1      -4.479  -2.257 -33.182  1.00  0.00    -0.023 A 
HETATM   21  C   UNL     1      -4.552  -3.429 -33.965  1.00  0.00    -0.053 A 
HETATM   22  C   UNL     1      -3.328  -2.022 -32.241  1.00  0.00     0.052 C 
HETATM   23  C   UNL     1      -3.487  -4.492 -33.903  1.00  0.00     0.049 C 
HETATM   24  C   UNL     1      -5.661  -3.634 -34.805  1.00  0.00     0.007 A 
HETATM   25  C   UNL     1      -6.678  -2.685 -34.895  1.00  0.00     0.003 A 
HETATM   26  C   UNL     1      -6.590  -1.508 -34.161  1.00  0.00     0.037 A 
ENDBRANCH  18  19
ENDBRANCH  17  18
ENDBRANCH   1  17
TORSDOF 5
ENDMDL
MODEL 8
REMARK VINA RESULT:      -8.0      5.960      9.292
REMARK  5 active torsions:
REMARK  status: ('A' for Active; 'I' for Inactive)
REMARK    1  A    between atoms: C_5  and  O_6 
REMARK    2  A    between atoms: O_6  and  C_7 
REMARK    3  A    between atoms: C_7  and  C_8 
REMARK       I    between atoms: C_8  and  N_9 
REMARK    4  A    between atoms: N_9  and  N_10 
REMARK    5  A    between atoms: C_11  and  C_12 
ROOT
HETATM    1  C   UNL     1      -3.447   3.550 -32.408  1.00  0.00     0.261 C 
HETATM    2  N   UNL     1      -3.899   2.314 -31.962  1.00  0.00    -0.246 N 
HETATM    3  O   UNL     1      -3.892   4.184 -33.364  1.00  0.00    -0.269 OA
HETATM    4  H   UNL     1      -3.279   1.808 -31.332  1.00  0.00     0.192 HD
ENDROOT
BRANCH   2   5
HETATM    5  N   UNL     1      -4.838   1.523 -32.587  1.00  0.00    -0.184 NA
HETATM    6  C   UNL     1      -4.489   0.336 -32.969  1.00  0.00     0.152 C 
BRANCH   6   7
HETATM    7  C   UNL     1      -5.466  -0.545 -33.578  1.00  0.00     0.011 A 
HETATM    8  C   UNL     1      -5.281  -1.928 -33.906  1.00  0.00     0.004 A 
HETATM    9  C   UNL     1      -6.468  -2.386 -34.477  1.00  0.00     0.043 A 
HETATM   10  C   UNL     1      -4.211  -2.839 -33.760  1.00  0.00     0.014 A 
HETATM   11  C   UNL     1      -6.639  -3.705 -34.916  1.00  0.00     0.030 A 
HETATM   12  N   UNL     1      -7.344  -1.325 -34.494  1.00  0.00    -0.364 N 
HETATM   13  C   UNL     1      -5.563  -4.585 -34.761  1.00  0.00     0.002 A 
HETATM   14  C   UNL     1      -4.366  -4.161 -34.190  1.00  0.00     0.001 A 
HETATM   15  H   UNL     1      -8.289  -1.368 -34.850  1.00  0.00     0.165 HD
HETATM   16  C   UNL     1      -6.755  -0.216 -33.950  1.00  0.00     0.102 A 
ENDBRANCH   6   7
ENDBRANCH   2   5
BRANCH   1  17
HETATM   17  C   UNL     1      -2.335   4.132 -31.539  1.00  0.00     0.280 C 
BRANCH  17  18
HETATM   18  O   UNL     1      -1.980   5.460 -31.937  1.00  0.00    -0.342 OA
BRANCH  18  19
HETATM   19  C   UNL     1      -1.874   6.246 -30.815  1.00  0.00     0.075 A 
HETATM   20  C   UNL     1      -0.624   6.723 -30.384  1.00  0.00    -0.023 A 
HETATM   21  C   UNL     1      -0.564   7.444 -29.172  1.00  0.00    -0.053 A 
HETATM   22  C   UNL     1       0.622   6.421 -31.172  1.00  0.00     0.052 C 
HETATM   23  C   UNL     1       0.742   7.937 -28.607  1.00  0.00     0.049 C 
HETATM   24  C   UNL     1      -1.752   7.741 -28.482  1.00  0.00     0.007 A 
HETATM   25  C   UNL     1      -2.988   7.314 -28.965  1.00  0.00     0.003 A 
HETATM   26  C   UNL     1      -3.050   6.566 -30.135  1.00  0.00     0.037 A 
ENDBRANCH  18  19
ENDBRANCH  17  18
ENDBRANCH   1  17
TORSDOF 5
ENDMDL
MODEL 9
REMARK VINA RESULT:      -8.0      2.597      8.738
REMARK  5 active torsions:
REMARK  status: ('A' for Active; 'I' for Inactive)
REMARK    1  A    between atoms: C_5  and  O_6 
REMARK    2  A    between atoms: O_6  and  C_7 
REMARK    3  A    between atoms: C_7  and  C_8 
REMARK       I    between atoms: C_8  and  N_9 
REMARK    4  A    between atoms: N_9  and  N_10 
REMARK    5  A    between atoms: C_11  and  C_12 
ROOT
HETATM    1  C   UNL     1      -6.458   0.267 -31.534  1.00  0.00     0.261 C 
HETATM    2  N   UNL     1      -7.491  -0.151 -32.366  1.00  0.00    -0.246 N 
HETATM    3  O   UNL     1      -6.525   1.152 -30.683  1.00  0.00    -0.269 OA
HETATM    4  H   UNL     1      -7.220  -0.704 -33.177  1.00  0.00     0.192 HD
ENDROOT
BRANCH   2   5
HETATM    5  N   UNL     1      -8.732   0.437 -32.471  1.00  0.00    -0.184 NA
HETATM    6  C   UNL     1      -9.185   0.714 -33.652  1.00  0.00     0.152 C 
BRANCH   6   7
HETATM    7  C   UNL     1     -10.511   1.281 -33.804  1.00  0.00     0.011 A 
HETATM    8  C   UNL     1     -10.830   2.586 -34.304  1.00  0.00     0.004 A 
HETATM    9  C   UNL     1     -12.218   2.719 -34.274  1.00  0.00     0.043 A 
HETATM   10  C   UNL     1     -10.062   3.667 -34.789  1.00  0.00     0.014 A 
HETATM   11  C   UNL     1     -12.878   3.879 -34.699  1.00  0.00     0.030 A 
HETATM   12  N   UNL     1     -12.726   1.539 -33.780  1.00  0.00    -0.364 N 
HETATM   13  C   UNL     1     -12.093   4.935 -35.173  1.00  0.00     0.002 A 
HETATM   14  C   UNL     1     -10.705   4.832 -35.220  1.00  0.00     0.001 A 
HETATM   15  H   UNL     1     -13.711   1.349 -33.652  1.00  0.00     0.165 HD
HETATM   16  C   UNL     1     -11.711   0.666 -33.500  1.00  0.00     0.102 A 
ENDBRANCH   6   7
ENDBRANCH   2   5
BRANCH   1  17
HETATM   17  C   UNL     1      -5.176  -0.541 -31.718  1.00  0.00     0.280 C 
BRANCH  17  18
HETATM   18  O   UNL     1      -4.785  -0.625 -33.092  1.00  0.00    -0.342 OA
BRANCH  18  19
HETATM   19  C   UNL     1      -4.659  -1.949 -33.438  1.00  0.00     0.075 A 
HETATM   20  C   UNL     1      -5.523  -2.535 -34.378  1.00  0.00    -0.023 A 
HETATM   21  C   UNL     1      -5.410  -3.921 -34.621  1.00  0.00    -0.053 A 
HETATM   22  C   UNL     1      -6.578  -1.709 -35.065  1.00  0.00     0.052 C 
HETATM   23  C   UNL     1      -6.336  -4.639 -35.567  1.00  0.00     0.049 C 
HETATM   24  C   UNL     1      -4.389  -4.654 -33.991  1.00  0.00     0.007 A 
HETATM   25  C   UNL     1      -3.501  -4.036 -33.111  1.00  0.00     0.003 A 
HETATM   26  C   UNL     1      -3.635  -2.681 -32.834  1.00  0.00     0.037 A 
ENDBRANCH  18  19
ENDBRANCH  17  18
ENDBRANCH   1  17
TORSDOF 5
ENDMDL
MODEL 10
REMARK VINA RESULT:      -7.8      1.069      2.133
REMARK  5 active torsions:
REMARK  status: ('A' for Active; 'I' for Inactive)
REMARK    1  A    between atoms: C_5  and  O_6 
REMARK    2  A    between atoms: O_6  and  C_7 
REMARK    3  A    between atoms: C_7  and  C_8 
REMARK       I    between atoms: C_8  and  N_9 
REMARK    4  A    between atoms: N_9  and  N_10 
REMARK    5  A    between atoms: C_11  and  C_12 
ROOT
HETATM    1  C   UNL     1      -9.323   2.155 -34.088  1.00  0.00     0.261 C 
HETATM    2  N   UNL     1      -9.305   0.779 -34.290  1.00  0.00    -0.246 N 
HETATM    3  O   UNL     1      -8.399   2.835 -33.645  1.00  0.00    -0.269 OA
HETATM    4  H   UNL     1     -10.211   0.331 -34.418  1.00  0.00     0.192 HD
ENDROOT
BRANCH   2   5
HETATM    5  N   UNL     1      -8.297  -0.080 -33.913  1.00  0.00    -0.184 NA
HETATM    6  C   UNL     1      -7.412  -0.417 -34.795  1.00  0.00     0.152 C 
BRANCH   6   7
HETATM    7  C   UNL     1      -6.304  -1.274 -34.419  1.00  0.00     0.011 A 
HETATM    8  C   UNL     1      -5.331  -1.014 -33.400  1.00  0.00     0.004 A 
HETATM    9  C   UNL     1      -4.448  -2.093 -33.378  1.00  0.00     0.043 A 
HETATM   10  C   UNL     1      -5.125   0.041 -32.483  1.00  0.00     0.014 A 
HETATM   11  C   UNL     1      -3.366  -2.170 -32.492  1.00  0.00     0.030 A 
HETATM   12  N   UNL     1      -4.868  -2.979 -34.344  1.00  0.00    -0.364 N 
HETATM   13  C   UNL     1      -3.184  -1.111 -31.596  1.00  0.00     0.002 A 
HETATM   14  C   UNL     1      -4.051  -0.022 -31.589  1.00  0.00     0.001 A 
HETATM   15  H   UNL     1      -4.415  -3.859 -34.550  1.00  0.00     0.165 HD
HETATM   16  C   UNL     1      -5.986  -2.501 -34.971  1.00  0.00     0.102 A 
ENDBRANCH   6   7
ENDBRANCH   2   5
BRANCH   1  17
HETATM   17  C   UNL     1     -10.625   2.811 -34.540  1.00  0.00     0.280 C 
BRANCH  17  18
HETATM   18  O   UNL     1     -11.460   3.167 -33.434  1.00  0.00    -0.342 OA
BRANCH  18  19
HETATM   19  C   UNL     1     -12.654   2.495 -33.544  1.00  0.00     0.075 A 
HETATM   20  C   UNL     1     -13.756   2.848 -32.747  1.00  0.00    -0.023 A 
HETATM   21  C   UNL     1     -14.924   2.060 -32.834  1.00  0.00    -0.053 A 
HETATM   22  C   UNL     1     -13.667   4.003 -31.787  1.00  0.00     0.052 C 
HETATM   23  C   UNL     1     -16.129   2.331 -31.971  1.00  0.00     0.049 C 
HETATM   24  C   UNL     1     -14.987   1.012 -33.768  1.00  0.00     0.007 A 
HETATM   25  C   UNL     1     -13.902   0.724 -34.596  1.00  0.00     0.003 A 
HETATM   26  C   UNL     1     -12.733   1.467 -34.485  1.00  0.00     0.037 A 
ENDBRANCH  18  19
ENDBRANCH  17  18
ENDBRANCH   1  17
TORSDOF 5
ENDMDL
