MODEL 1
REMARK VINA RESULT:      -9.4      0.000      0.000
REMARK  6 active torsions:
REMARK  status: ('A' for Active; 'I' for Inactive)
REMARK    1  A    between atoms: C_11  and  N_12 
REMARK    2  A    between atoms: N_12  and  C_13 
REMARK    3  A    between atoms: C_13  and  C_14 
REMARK    4  A    between atoms: C_14  and  N_15 
REMARK       I    between atoms: N_15  and  C_16 
REMARK    5  A    between atoms: C_16  and  C_17 
REMARK    6  A    between atoms: C_20  and  O_21 
ROOT
HETATM    1  N   UNL     1      -6.382   2.315 -33.053  1.00  0.00    -0.277 NA
HETATM    2  H   UNL     1      -7.320   2.190 -32.674  1.00  0.00     0.129 HD
ENDROOT
BRANCH   1   3
HETATM    3  C   UNL     1      -5.681   1.112 -33.137  1.00  0.00     0.086 C 
HETATM    4  N   UNL     1      -6.180   0.111 -33.880  1.00  0.00    -0.346 N 
HETATM    5  C   UNL     1      -5.647  -1.117 -33.965  1.00  0.00     0.044 A 
HETATM    6  H   UNL     1      -6.999   0.328 -34.459  1.00  0.00     0.167 HD
HETATM    7  C   UNL     1      -6.291  -2.130 -34.683  1.00  0.00     0.037 A 
HETATM    8  C   UNL     1      -4.437  -1.379 -33.302  1.00  0.00    -0.008 A 
HETATM    9  C   UNL     1      -5.758  -3.429 -34.725  1.00  0.00    -0.054 A 
HETATM   10  C   UNL     1      -4.563  -3.709 -34.031  1.00  0.00    -0.055 A 
HETATM   11  C   UNL     1      -6.506  -4.509 -35.464  1.00  0.00     0.049 C 
HETATM   12  C   UNL     1      -3.958  -5.089 -34.026  1.00  0.00     0.049 C 
HETATM   13  C   UNL     1      -3.901  -2.675 -33.347  1.00  0.00     0.021 A 
HETATM   14  C   UNL     1      -3.810  -0.330 -32.624  1.00  0.00     0.023 C 
HETATM   15  C   UNL     1      -4.410   0.935 -32.560  1.00  0.00    -0.023 C 
HETATM   16  C   UNL     1      -3.701   2.032 -31.812  1.00  0.00     0.052 C 
ENDBRANCH   1   3
BRANCH   1  17
HETATM   17  C   UNL     1      -6.440   3.151 -34.267  1.00  0.00     0.113 C 
BRANCH  17  18
HETATM   18  C   UNL     1      -6.191   4.633 -33.946  1.00  0.00     0.137 C 
BRANCH  18  19
HETATM   19  N   UNL     1      -4.871   4.975 -33.436  1.00  0.00    -0.356 N 
HETATM   20  C   UNL     1      -3.815   5.419 -34.197  1.00  0.00     0.251 C 
HETATM   21  O   UNL     1      -3.810   5.390 -35.428  1.00  0.00    -0.268 OA
HETATM   22  H   UNL     1      -4.759   4.933 -32.429  1.00  0.00     0.162 HD
BRANCH  20  23
HETATM   23  C   UNL     1      -2.613   5.858 -33.434  1.00  0.00     0.032 A 
HETATM   24  C   UNL     1      -1.846   4.898 -32.770  1.00  0.00     0.020 A 
HETATM   25  C   UNL     1      -0.741   5.295 -32.010  1.00  0.00     0.038 A 
HETATM   26  C   UNL     1      -0.385   6.643 -31.914  1.00  0.00     0.068 A 
HETATM   27  C   UNL     1      -1.132   7.598 -32.603  1.00  0.00     0.038 A 
HETATM   28  C   UNL     1      -2.241   7.207 -33.365  1.00  0.00     0.020 A 
BRANCH  26  29
HETATM   29  O   UNL     1       0.705   6.891 -31.128  1.00  0.00    -0.356 OA
HETATM   30  C   UNL     1       0.476   7.051 -29.732  1.00  0.00     0.210 C 
ENDBRANCH  26  29
ENDBRANCH  20  23
ENDBRANCH  18  19
ENDBRANCH  17  18
ENDBRANCH   1  17
TORSDOF 6
ENDMDL
MODEL 2
REMARK VINA RESULT:      -8.9      2.556      3.782
REMARK  6 active torsions:
REMARK  status: ('A' for Active; 'I' for Inactive)
REMARK    1  A    between atoms: C_11  and  N_12 
REMARK    2  A    between atoms: N_12  and  C_13 
REMARK    3  A    between atoms: C_13  and  C_14 
REMARK    4  A    between atoms: C_14  and  N_15 
REMARK       I    between atoms: N_15  and  C_16 
REMARK    5  A    between atoms: C_16  and  C_17 
REMARK    6  A    between atoms: C_20  and  O_21 
ROOT
HETATM    1  N   UNL     1      -9.494   1.925 -30.850  1.00  0.00    -0.277 NA
HETATM    2  H   UNL     1     -10.471   2.025 -31.121  1.00  0.00     0.129 HD
ENDROOT
BRANCH   1   3
HETATM    3  C   UNL     1      -8.815   1.006 -31.650  1.00  0.00     0.086 C 
HETATM    4  N   UNL     1      -7.588   0.599 -31.288  1.00  0.00    -0.346 N 
HETATM    5  C   UNL     1      -6.803  -0.207 -32.018  1.00  0.00     0.044 A 
HETATM    6  H   UNL     1      -7.258   0.891 -30.361  1.00  0.00     0.167 HD
HETATM    7  C   UNL     1      -5.497  -0.498 -31.611  1.00  0.00     0.037 A 
HETATM    8  C   UNL     1      -7.307  -0.743 -33.215  1.00  0.00    -0.008 A 
HETATM    9  C   UNL     1      -4.659  -1.299 -32.406  1.00  0.00    -0.054 A 
HETATM   10  C   UNL     1      -5.145  -1.809 -33.626  1.00  0.00    -0.055 A 
HETATM   11  C   UNL     1      -3.240  -1.547 -31.962  1.00  0.00     0.049 C 
HETATM   12  C   UNL     1      -4.284  -2.657 -34.526  1.00  0.00     0.049 C 
HETATM   13  C   UNL     1      -6.473  -1.547 -34.007  1.00  0.00     0.021 A 
HETATM   14  C   UNL     1      -8.627  -0.454 -33.568  1.00  0.00     0.023 C 
HETATM   15  C   UNL     1      -9.406   0.399 -32.773  1.00  0.00    -0.023 C 
HETATM   16  C   UNL     1     -10.821   0.686 -33.198  1.00  0.00     0.052 C 
ENDBRANCH   1   3
BRANCH   1  17
HETATM   17  C   UNL     1      -8.882   3.256 -30.680  1.00  0.00     0.113 C 
BRANCH  17  18
HETATM   18  C   UNL     1      -8.565   3.911 -32.034  1.00  0.00     0.137 C 
BRANCH  18  19
HETATM   19  N   UNL     1      -7.158   4.126 -32.338  1.00  0.00    -0.356 N 
HETATM   20  C   UNL     1      -6.464   3.522 -33.360  1.00  0.00     0.251 C 
HETATM   21  O   UNL     1      -6.910   2.579 -34.015  1.00  0.00    -0.268 OA
HETATM   22  H   UNL     1      -6.683   4.825 -31.777  1.00  0.00     0.162 HD
BRANCH  20  23
HETATM   23  C   UNL     1      -5.075   4.018 -33.575  1.00  0.00     0.032 A 
HETATM   24  C   UNL     1      -4.065   3.598 -32.706  1.00  0.00     0.020 A 
HETATM   25  C   UNL     1      -2.765   4.089 -32.863  1.00  0.00     0.038 A 
HETATM   26  C   UNL     1      -2.457   4.988 -33.888  1.00  0.00     0.068 A 
HETATM   27  C   UNL     1      -3.459   5.382 -34.774  1.00  0.00     0.038 A 
HETATM   28  C   UNL     1      -4.764   4.895 -34.622  1.00  0.00     0.020 A 
BRANCH  26  29
HETATM   29  O   UNL     1      -1.155   5.398 -33.916  1.00  0.00    -0.356 OA
HETATM   30  C   UNL     1      -0.883   6.730 -33.491  1.00  0.00     0.210 C 
ENDBRANCH  26  29
ENDBRANCH  20  23
ENDBRANCH  18  19
ENDBRANCH  17  18
ENDBRANCH   1  17
TORSDOF 6
ENDMDL
MODEL 3
REMARK VINA RESULT:      -8.8      1.954      3.337
REMARK  6 active torsions:
REMARK  status: ('A' for Active; 'I' for Inactive)
REMARK    1  A    between atoms: C_11  and  N_12 
REMARK    2  A    between atoms: N_12  and  C_13 
REMARK    3  A    between atoms: C_13  and  C_14 
REMARK    4  A    between atoms: C_14  and  N_15 
REMARK       I    between atoms: N_15  and  C_16 
REMARK    5  A    between atoms: C_16  and  C_17 
REMARK    6  A    between atoms: C_20  and  O_21 
ROOT
HETATM    1  N   UNL     1      -5.172   2.805 -32.662  1.00  0.00    -0.277 NA
HETATM    2  H   UNL     1      -4.884   3.427 -33.416  1.00  0.00     0.129 HD
ENDROOT
BRANCH   1   3
HETATM    3  C   UNL     1      -5.679   1.597 -33.140  1.00  0.00     0.086 C 
HETATM    4  N   UNL     1      -4.950   0.478 -33.001  1.00  0.00    -0.346 N 
HETATM    5  C   UNL     1      -5.287  -0.721 -33.499  1.00  0.00     0.044 A 
HETATM    6  H   UNL     1      -4.099   0.547 -32.430  1.00  0.00     0.167 HD
HETATM    7  C   UNL     1      -4.417  -1.812 -33.396  1.00  0.00     0.037 A 
HETATM    8  C   UNL     1      -6.526  -0.864 -34.146  1.00  0.00    -0.008 A 
HETATM    9  C   UNL     1      -4.751  -3.052 -33.964  1.00  0.00    -0.054 A 
HETATM   10  C   UNL     1      -5.976  -3.192 -34.648  1.00  0.00    -0.055 A 
HETATM   11  C   UNL     1      -3.766  -4.190 -33.880  1.00  0.00     0.049 C 
HETATM   12  C   UNL     1      -6.375  -4.494 -35.293  1.00  0.00     0.049 C 
HETATM   13  C   UNL     1      -6.863  -2.103 -34.709  1.00  0.00     0.021 A 
HETATM   14  C   UNL     1      -7.379   0.242 -34.197  1.00  0.00     0.023 C 
HETATM   15  C   UNL     1      -6.978   1.476 -33.668  1.00  0.00    -0.023 C 
HETATM   16  C   UNL     1      -7.927   2.640 -33.753  1.00  0.00     0.052 C 
ENDBRANCH   1   3
BRANCH   1  17
HETATM   17  C   UNL     1      -4.115   2.738 -31.636  1.00  0.00     0.113 C 
BRANCH  17  18
HETATM   18  C   UNL     1      -2.864   3.524 -32.060  1.00  0.00     0.137 C 
BRANCH  18  19
HETATM   19  N   UNL     1      -2.403   4.555 -31.141  1.00  0.00    -0.356 N 
HETATM   20  C   UNL     1      -1.161   5.145 -31.168  1.00  0.00     0.251 C 
HETATM   21  O   UNL     1      -0.228   4.726 -31.853  1.00  0.00    -0.268 OA
HETATM   22  H   UNL     1      -3.086   4.894 -30.473  1.00  0.00     0.162 HD
BRANCH  20  23
HETATM   23  C   UNL     1      -0.973   6.288 -30.230  1.00  0.00     0.032 A 
HETATM   24  C   UNL     1       0.326   6.684 -29.899  1.00  0.00     0.020 A 
HETATM   25  C   UNL     1       0.524   7.724 -28.985  1.00  0.00     0.038 A 
HETATM   26  C   UNL     1      -0.563   8.383 -28.404  1.00  0.00     0.068 A 
HETATM   27  C   UNL     1      -1.858   8.009 -28.759  1.00  0.00     0.038 A 
HETATM   28  C   UNL     1      -2.064   6.967 -29.673  1.00  0.00     0.020 A 
BRANCH  26  29
HETATM   29  O   UNL     1      -0.227   9.367 -27.518  1.00  0.00    -0.356 OA
HETATM   30  C   UNL     1       1.015   9.231 -26.836  1.00  0.00     0.210 C 
ENDBRANCH  26  29
ENDBRANCH  20  23
ENDBRANCH  18  19
ENDBRANCH  17  18
ENDBRANCH   1  17
TORSDOF 6
ENDMDL
MODEL 4
REMARK VINA RESULT:      -8.5      2.790      9.865
REMARK  6 active torsions:
REMARK  status: ('A' for Active; 'I' for Inactive)
REMARK    1  A    between atoms: C_11  and  N_12 
REMARK    2  A    between atoms: N_12  and  C_13 
REMARK    3  A    between atoms: C_13  and  C_14 
REMARK    4  A    between atoms: C_14  and  N_15 
REMARK       I    between atoms: N_15  and  C_16 
REMARK    5  A    between atoms: C_16  and  C_17 
REMARK    6  A    between atoms: C_20  and  O_21 
ROOT
HETATM    1  N   UNL     1      -3.788   5.279 -31.771  1.00  0.00    -0.277 NA
HETATM    2  H   UNL     1      -4.558   5.944 -31.721  1.00  0.00     0.129 HD
ENDROOT
BRANCH   1   3
HETATM    3  C   UNL     1      -2.612   5.790 -31.224  1.00  0.00     0.086 C 
HETATM    4  N   UNL     1      -2.598   6.176 -29.938  1.00  0.00    -0.346 N 
HETATM    5  C   UNL     1      -1.559   6.765 -29.327  1.00  0.00     0.044 A 
HETATM    6  H   UNL     1      -3.429   5.954 -29.379  1.00  0.00     0.167 HD
HETATM    7  C   UNL     1      -1.667   7.227 -28.012  1.00  0.00     0.037 A 
HETATM    8  C   UNL     1      -0.358   6.930 -30.038  1.00  0.00    -0.008 A 
HETATM    9  C   UNL     1      -0.595   7.892 -27.394  1.00  0.00    -0.054 A 
HETATM   10  C   UNL     1       0.600   8.094 -28.114  1.00  0.00    -0.055 A 
HETATM   11  C   UNL     1      -0.766   8.424 -25.994  1.00  0.00     0.049 C 
HETATM   12  C   UNL     1       1.774   8.817 -27.507  1.00  0.00     0.049 C 
HETATM   13  C   UNL     1       0.715   7.589 -29.421  1.00  0.00     0.021 A 
HETATM   14  C   UNL     1      -0.282   6.424 -31.338  1.00  0.00     0.023 C 
HETATM   15  C   UNL     1      -1.398   5.821 -31.935  1.00  0.00    -0.023 C 
HETATM   16  C   UNL     1      -1.269   5.298 -33.340  1.00  0.00     0.052 C 
ENDBRANCH   1   3
BRANCH   1  17
HETATM   17  C   UNL     1      -4.237   3.957 -31.295  1.00  0.00     0.113 C 
BRANCH  17  18
HETATM   18  C   UNL     1      -5.470   3.465 -32.070  1.00  0.00     0.137 C 
BRANCH  18  19
HETATM   19  N   UNL     1      -5.476   2.062 -32.457  1.00  0.00    -0.356 N 
HETATM   20  C   UNL     1      -6.168   1.533 -33.522  1.00  0.00     0.251 C 
HETATM   21  O   UNL     1      -7.019   2.161 -34.153  1.00  0.00    -0.268 OA
HETATM   22  H   UNL     1      -4.869   1.450 -31.923  1.00  0.00     0.162 HD
BRANCH  20  23
HETATM   23  C   UNL     1      -5.894   0.099 -33.819  1.00  0.00     0.032 A 
HETATM   24  C   UNL     1      -6.880  -0.659 -34.456  1.00  0.00     0.020 A 
HETATM   25  C   UNL     1      -6.660  -2.018 -34.702  1.00  0.00     0.038 A 
HETATM   26  C   UNL     1      -5.461  -2.630 -34.326  1.00  0.00     0.068 A 
HETATM   27  C   UNL     1      -4.466  -1.866 -33.718  1.00  0.00     0.038 A 
HETATM   28  C   UNL     1      -4.680  -0.504 -33.468  1.00  0.00     0.020 A 
BRANCH  26  29
HETATM   29  O   UNL     1      -5.387  -3.964 -34.611  1.00  0.00    -0.356 OA
HETATM   30  C   UNL     1      -6.469  -4.535 -35.339  1.00  0.00     0.210 C 
ENDBRANCH  26  29
ENDBRANCH  20  23
ENDBRANCH  18  19
ENDBRANCH  17  18
ENDBRANCH   1  17
TORSDOF 6
ENDMDL
MODEL 5
REMARK VINA RESULT:      -8.4      6.200      9.043
REMARK  6 active torsions:
REMARK  status: ('A' for Active; 'I' for Inactive)
REMARK    1  A    between atoms: C_11  and  N_12 
REMARK    2  A    between atoms: N_12  and  C_13 
REMARK    3  A    between atoms: C_13  and  C_14 
REMARK    4  A    between atoms: C_14  and  N_15 
REMARK       I    between atoms: N_15  and  C_16 
REMARK    5  A    between atoms: C_16  and  C_17 
REMARK    6  A    between atoms: C_20  and  O_21 
ROOT
HETATM    1  N   UNL     1      -8.049   2.217 -33.719  1.00  0.00    -0.277 NA
HETATM    2  H   UNL     1      -7.754   3.073 -33.251  1.00  0.00     0.129 HD
ENDROOT
BRANCH   1   3
HETATM    3  C   UNL     1      -7.059   1.234 -33.696  1.00  0.00     0.086 C 
HETATM    4  N   UNL     1      -7.282   0.063 -34.313  1.00  0.00    -0.346 N 
HETATM    5  C   UNL     1      -6.448  -0.988 -34.283  1.00  0.00     0.044 A 
HETATM    6  H   UNL     1      -8.130  -0.005 -34.887  1.00  0.00     0.167 HD
HETATM    7  C   UNL     1      -6.807  -2.206 -34.870  1.00  0.00     0.037 A 
HETATM    8  C   UNL     1      -5.210  -0.854 -33.633  1.00  0.00    -0.008 A 
HETATM    9  C   UNL     1      -5.954  -3.320 -34.790  1.00  0.00    -0.054 A 
HETATM   10  C   UNL     1      -4.727  -3.203 -34.107  1.00  0.00    -0.055 A 
HETATM   11  C   UNL     1      -6.397  -4.631 -35.388  1.00  0.00     0.049 C 
HETATM   12  C   UNL     1      -3.784  -4.371 -33.974  1.00  0.00     0.049 C 
HETATM   13  C   UNL     1      -4.356  -1.964 -33.557  1.00  0.00     0.021 A 
HETATM   14  C   UNL     1      -4.877   0.390 -33.090  1.00  0.00     0.023 C 
HETATM   15  C   UNL     1      -5.785   1.456 -33.142  1.00  0.00    -0.023 C 
HETATM   16  C   UNL     1      -5.385   2.774 -32.536  1.00  0.00     0.052 C 
ENDBRANCH   1   3
BRANCH   1  17
HETATM   17  C   UNL     1      -9.396   1.832 -33.257  1.00  0.00     0.113 C 
BRANCH  17  18
HETATM   18  C   UNL     1     -10.010   2.906 -32.345  1.00  0.00     0.137 C 
BRANCH  18  19
HETATM   19  N   UNL     1     -11.454   2.857 -32.165  1.00  0.00    -0.356 N 
HETATM   20  C   UNL     1     -12.334   3.851 -32.522  1.00  0.00     0.251 C 
HETATM   21  O   UNL     1     -11.978   4.981 -32.856  1.00  0.00    -0.268 OA
HETATM   22  H   UNL     1     -11.828   1.987 -31.801  1.00  0.00     0.162 HD
BRANCH  20  23
HETATM   23  C   UNL     1     -13.779   3.509 -32.387  1.00  0.00     0.032 A 
HETATM   24  C   UNL     1     -14.197   2.210 -32.689  1.00  0.00     0.020 A 
HETATM   25  C   UNL     1     -15.554   1.883 -32.614  1.00  0.00     0.038 A 
HETATM   26  C   UNL     1     -16.502   2.836 -32.230  1.00  0.00     0.068 A 
HETATM   27  C   UNL     1     -16.080   4.123 -31.899  1.00  0.00     0.038 A 
HETATM   28  C   UNL     1     -14.721   4.458 -31.973  1.00  0.00     0.020 A 
BRANCH  26  29
HETATM   29  O   UNL     1     -17.791   2.385 -32.215  1.00  0.00    -0.356 OA
HETATM   30  C   UNL     1     -18.767   3.186 -32.872  1.00  0.00     0.210 C 
ENDBRANCH  26  29
ENDBRANCH  20  23
ENDBRANCH  18  19
ENDBRANCH  17  18
ENDBRANCH   1  17
TORSDOF 6
ENDMDL
MODEL 6
REMARK VINA RESULT:      -8.2      4.344      7.575
REMARK  6 active torsions:
REMARK  status: ('A' for Active; 'I' for Inactive)
REMARK    1  A    between atoms: C_11  and  N_12 
REMARK    2  A    between atoms: N_12  and  C_13 
REMARK    3  A    between atoms: C_13  and  C_14 
REMARK    4  A    between atoms: C_14  and  N_15 
REMARK       I    between atoms: N_15  and  C_16 
REMARK    5  A    between atoms: C_16  and  C_17 
REMARK    6  A    between atoms: C_20  and  O_21 
ROOT
HETATM    1  N   UNL     1      -5.950   2.327 -32.965  1.00  0.00    -0.277 NA
HETATM    2  H   UNL     1      -5.141   2.893 -33.219  1.00  0.00     0.129 HD
ENDROOT
BRANCH   1   3
HETATM    3  C   UNL     1      -5.764   0.977 -33.263  1.00  0.00     0.086 C 
HETATM    4  N   UNL     1      -4.942   0.242 -32.497  1.00  0.00    -0.346 N 
HETATM    5  C   UNL     1      -4.612  -1.036 -32.736  1.00  0.00     0.044 A 
HETATM    6  H   UNL     1      -4.585   0.686 -31.642  1.00  0.00     0.167 HD
HETATM    7  C   UNL     1      -3.667  -1.694 -31.942  1.00  0.00     0.037 A 
HETATM    8  C   UNL     1      -5.219  -1.703 -33.813  1.00  0.00    -0.008 A 
HETATM    9  C   UNL     1      -3.286  -3.015 -32.228  1.00  0.00    -0.054 A 
HETATM   10  C   UNL     1      -3.862  -3.679 -33.330  1.00  0.00    -0.055 A 
HETATM   11  C   UNL     1      -2.225  -3.675 -31.384  1.00  0.00     0.049 C 
HETATM   12  C   UNL     1      -3.475  -5.089 -33.694  1.00  0.00     0.049 C 
HETATM   13  C   UNL     1      -4.842  -3.024 -34.097  1.00  0.00     0.021 A 
HETATM   14  C   UNL     1      -6.182  -1.019 -34.560  1.00  0.00     0.023 C 
HETATM   15  C   UNL     1      -6.487   0.318 -34.274  1.00  0.00    -0.023 C 
HETATM   16  C   UNL     1      -7.526   1.015 -35.111  1.00  0.00     0.052 C 
ENDBRANCH   1   3
BRANCH   1  17
HETATM   17  C   UNL     1      -6.389   2.665 -31.599  1.00  0.00     0.113 C 
BRANCH  17  18
HETATM   18  C   UNL     1      -7.502   3.725 -31.607  1.00  0.00     0.137 C 
BRANCH  18  19
HETATM   19  N   UNL     1      -8.778   3.323 -32.181  1.00  0.00    -0.356 N 
HETATM   20  C   UNL     1      -9.234   3.675 -33.430  1.00  0.00     0.251 C 
HETATM   21  O   UNL     1      -8.697   4.535 -34.128  1.00  0.00    -0.268 OA
HETATM   22  H   UNL     1      -9.334   2.682 -31.625  1.00  0.00     0.162 HD
BRANCH  20  23
HETATM   23  C   UNL     1     -10.497   3.013 -33.863  1.00  0.00     0.032 A 
HETATM   24  C   UNL     1     -11.168   3.506 -34.986  1.00  0.00     0.020 A 
HETATM   25  C   UNL     1     -12.378   2.928 -35.381  1.00  0.00     0.038 A 
HETATM   26  C   UNL     1     -12.925   1.854 -34.672  1.00  0.00     0.068 A 
HETATM   27  C   UNL     1     -12.240   1.344 -33.571  1.00  0.00     0.038 A 
HETATM   28  C   UNL     1     -11.027   1.918 -33.169  1.00  0.00     0.020 A 
BRANCH  26  29
HETATM   29  O   UNL     1     -14.118   1.398 -35.157  1.00  0.00    -0.356 OA
HETATM   30  C   UNL     1     -14.921   0.618 -34.278  1.00  0.00     0.210 C 
ENDBRANCH  26  29
ENDBRANCH  20  23
ENDBRANCH  18  19
ENDBRANCH  17  18
ENDBRANCH   1  17
TORSDOF 6
ENDMDL
MODEL 7
REMARK VINA RESULT:      -8.1     15.910     18.364
REMARK  6 active torsions:
REMARK  status: ('A' for Active; 'I' for Inactive)
REMARK    1  A    between atoms: C_11  and  N_12 
REMARK    2  A    between atoms: N_12  and  C_13 
REMARK    3  A    between atoms: C_13  and  C_14 
REMARK    4  A    between atoms: C_14  and  N_15 
REMARK       I    between atoms: N_15  and  C_16 
REMARK    5  A    between atoms: C_16  and  C_17 
REMARK    6  A    between atoms: C_20  and  O_21 
ROOT
HETATM    1  N   UNL     1      -1.651 -13.827 -37.168  1.00  0.00    -0.277 NA
HETATM    2  H   UNL     1      -0.758 -13.766 -36.680  1.00  0.00     0.129 HD
ENDROOT
BRANCH   1   3
HETATM    3  C   UNL     1      -1.543 -14.500 -38.384  1.00  0.00     0.086 C 
HETATM    4  N   UNL     1      -2.325 -14.130 -39.411  1.00  0.00    -0.346 N 
HETATM    5  C   UNL     1      -2.379 -14.757 -40.596  1.00  0.00     0.044 A 
HETATM    6  H   UNL     1      -2.880 -13.276 -39.287  1.00  0.00     0.167 HD
HETATM    7  C   UNL     1      -3.298 -14.365 -41.575  1.00  0.00     0.037 A 
HETATM    8  C   UNL     1      -1.507 -15.832 -40.835  1.00  0.00    -0.008 A 
HETATM    9  C   UNL     1      -3.388 -15.058 -42.794  1.00  0.00    -0.054 A 
HETATM   10  C   UNL     1      -2.542 -16.161 -43.026  1.00  0.00    -0.055 A 
HETATM   11  C   UNL     1      -4.426 -14.641 -43.803  1.00  0.00     0.049 C 
HETATM   12  C   UNL     1      -2.609 -16.951 -44.307  1.00  0.00     0.049 C 
HETATM   13  C   UNL     1      -1.592 -16.521 -42.054  1.00  0.00     0.021 A 
HETATM   14  C   UNL     1      -0.582 -16.170 -39.844  1.00  0.00     0.023 C 
HETATM   15  C   UNL     1      -0.569 -15.488 -38.620  1.00  0.00    -0.023 C 
HETATM   16  C   UNL     1       0.441 -15.892 -37.580  1.00  0.00     0.052 C 
ENDBRANCH   1   3
BRANCH   1  17
HETATM   17  C   UNL     1      -2.700 -14.277 -36.235  1.00  0.00     0.113 C 
BRANCH  17  18
HETATM   18  C   UNL     1      -3.660 -13.135 -35.868  1.00  0.00     0.137 C 
BRANCH  18  19
HETATM   19  N   UNL     1      -4.794 -12.927 -36.758  1.00  0.00    -0.356 N 
HETATM   20  C   UNL     1      -4.731 -12.349 -38.004  1.00  0.00     0.251 C 
HETATM   21  O   UNL     1      -3.735 -11.762 -38.427  1.00  0.00    -0.268 OA
HETATM   22  H   UNL     1      -5.682 -13.300 -36.441  1.00  0.00     0.162 HD
BRANCH  20  23
HETATM   23  C   UNL     1      -5.993 -12.389 -38.795  1.00  0.00     0.032 A 
HETATM   24  C   UNL     1      -7.210 -12.519 -38.121  1.00  0.00     0.020 A 
HETATM   25  C   UNL     1      -8.402 -12.605 -38.848  1.00  0.00     0.038 A 
HETATM   26  C   UNL     1      -8.394 -12.553 -40.245  1.00  0.00     0.068 A 
HETATM   27  C   UNL     1      -7.183 -12.392 -40.915  1.00  0.00     0.038 A 
HETATM   28  C   UNL     1      -5.985 -12.306 -40.193  1.00  0.00     0.020 A 
BRANCH  26  29
HETATM   29  O   UNL     1      -9.625 -12.665 -40.827  1.00  0.00    -0.356 OA
HETATM   30  C   UNL     1     -10.671 -11.858 -40.296  1.00  0.00     0.210 C 
ENDBRANCH  26  29
ENDBRANCH  20  23
ENDBRANCH  18  19
ENDBRANCH  17  18
ENDBRANCH   1  17
TORSDOF 6
ENDMDL
MODEL 8
REMARK VINA RESULT:      -8.1      2.459      8.939
REMARK  6 active torsions:
REMARK  status: ('A' for Active; 'I' for Inactive)
REMARK    1  A    between atoms: C_11  and  N_12 
REMARK    2  A    between atoms: N_12  and  C_13 
REMARK    3  A    between atoms: C_13  and  C_14 
REMARK    4  A    between atoms: C_14  and  N_15 
REMARK       I    between atoms: N_15  and  C_16 
REMARK    5  A    between atoms: C_16  and  C_17 
REMARK    6  A    between atoms: C_20  and  O_21 
ROOT
HETATM    1  N   UNL     1      -4.244   5.374 -33.796  1.00  0.00    -0.277 NA
HETATM    2  H   UNL     1      -4.223   5.798 -34.722  1.00  0.00     0.129 HD
ENDROOT
BRANCH   1   3
HETATM    3  C   UNL     1      -3.117   5.698 -33.041  1.00  0.00     0.086 C 
HETATM    4  N   UNL     1      -3.265   6.035 -31.750  1.00  0.00    -0.346 N 
HETATM    5  C   UNL     1      -2.273   6.453 -30.950  1.00  0.00     0.044 A 
HETATM    6  H   UNL     1      -4.199   5.912 -31.343  1.00  0.00     0.167 HD
HETATM    7  C   UNL     1      -2.535   6.882 -29.645  1.00  0.00     0.037 A 
HETATM    8  C   UNL     1      -0.960   6.473 -31.450  1.00  0.00    -0.008 A 
HETATM    9  C   UNL     1      -1.501   7.370 -28.828  1.00  0.00    -0.054 A 
HETATM   10  C   UNL     1      -0.188   7.428 -29.336  1.00  0.00    -0.055 A 
HETATM   11  C   UNL     1      -1.829   7.873 -27.446  1.00  0.00     0.049 C 
HETATM   12  C   UNL     1       0.955   7.960 -28.511  1.00  0.00     0.049 C 
HETATM   13  C   UNL     1       0.074   6.955 -30.634  1.00  0.00     0.021 A 
HETATM   14  C   UNL     1      -0.737   6.005 -32.748  1.00  0.00     0.023 C 
HETATM   15  C   UNL     1      -1.809   5.583 -33.547  1.00  0.00    -0.023 C 
HETATM   16  C   UNL     1      -1.520   5.094 -34.940  1.00  0.00     0.052 C 
ENDBRANCH   1   3
BRANCH   1  17
HETATM   17  C   UNL     1      -5.562   5.595 -33.173  1.00  0.00     0.113 C 
BRANCH  17  18
HETATM   18  C   UNL     1      -6.640   4.690 -33.791  1.00  0.00     0.137 C 
BRANCH  18  19
HETATM   19  N   UNL     1      -6.288   3.289 -33.970  1.00  0.00    -0.356 N 
HETATM   20  C   UNL     1      -6.552   2.282 -33.071  1.00  0.00     0.251 C 
HETATM   21  O   UNL     1      -6.945   2.487 -31.922  1.00  0.00    -0.268 OA
HETATM   22  H   UNL     1      -5.868   3.046 -34.860  1.00  0.00     0.162 HD
BRANCH  20  23
HETATM   23  C   UNL     1      -6.241   0.903 -33.542  1.00  0.00     0.032 A 
HETATM   24  C   UNL     1      -5.045   0.304 -33.136  1.00  0.00     0.020 A 
HETATM   25  C   UNL     1      -4.713  -0.971 -33.604  1.00  0.00     0.038 A 
HETATM   26  C   UNL     1      -5.568  -1.663 -34.467  1.00  0.00     0.068 A 
HETATM   27  C   UNL     1      -6.776  -1.078 -34.846  1.00  0.00     0.038 A 
HETATM   28  C   UNL     1      -7.114   0.200 -34.381  1.00  0.00     0.020 A 
BRANCH  26  29
HETATM   29  O   UNL     1      -5.114  -2.890 -34.858  1.00  0.00    -0.356 OA
HETATM   30  C   UNL     1      -4.207  -3.556 -33.986  1.00  0.00     0.210 C 
ENDBRANCH  26  29
ENDBRANCH  20  23
ENDBRANCH  18  19
ENDBRANCH  17  18
ENDBRANCH   1  17
TORSDOF 6
ENDMDL
MODEL 9
REMARK VINA RESULT:      -7.9      3.200     10.064
REMARK  6 active torsions:
REMARK  status: ('A' for Active; 'I' for Inactive)
REMARK    1  A    between atoms: C_11  and  N_12 
REMARK    2  A    between atoms: N_12  and  C_13 
REMARK    3  A    between atoms: C_13  and  C_14 
REMARK    4  A    between atoms: C_14  and  N_15 
REMARK       I    between atoms: N_15  and  C_16 
REMARK    5  A    between atoms: C_16  and  C_17 
REMARK    6  A    between atoms: C_20  and  O_21 
ROOT
HETATM    1  N   UNL     1      -1.973   3.991 -31.805  1.00  0.00    -0.277 NA
HETATM    2  H   UNL     1      -1.726   3.687 -32.746  1.00  0.00     0.129 HD
ENDROOT
BRANCH   1   3
HETATM    3  C   UNL     1      -1.945   5.380 -31.675  1.00  0.00     0.086 C 
HETATM    4  N   UNL     1      -1.945   5.925 -30.448  1.00  0.00    -0.346 N 
HETATM    5  C   UNL     1      -2.011   7.240 -30.195  1.00  0.00     0.044 A 
HETATM    6  H   UNL     1      -1.837   5.281 -29.655  1.00  0.00     0.167 HD
HETATM    7  C   UNL     1      -2.110   7.715 -28.883  1.00  0.00     0.037 A 
HETATM    8  C   UNL     1      -2.000   8.140 -31.274  1.00  0.00    -0.008 A 
HETATM    9  C   UNL     1      -2.234   9.091 -28.625  1.00  0.00    -0.054 A 
HETATM   10  C   UNL     1      -2.261   9.997 -29.705  1.00  0.00    -0.055 A 
HETATM   11  C   UNL     1      -2.392   9.563 -27.203  1.00  0.00     0.049 C 
HETATM   12  C   UNL     1      -2.411  11.480 -29.487  1.00  0.00     0.049 C 
HETATM   13  C   UNL     1      -2.118   9.514 -31.017  1.00  0.00     0.021 A 
HETATM   14  C   UNL     1      -1.866   7.625 -32.566  1.00  0.00     0.023 C 
HETATM   15  C   UNL     1      -1.806   6.241 -32.778  1.00  0.00    -0.023 C 
HETATM   16  C   UNL     1      -1.670   5.734 -34.188  1.00  0.00     0.052 C 
ENDBRANCH   1   3
BRANCH   1  17
HETATM   17  C   UNL     1      -3.192   3.294 -31.357  1.00  0.00     0.113 C 
BRANCH  17  18
HETATM   18  C   UNL     1      -4.176   3.071 -32.517  1.00  0.00     0.137 C 
BRANCH  18  19
HETATM   19  N   UNL     1      -4.426   1.689 -32.900  1.00  0.00    -0.356 N 
HETATM   20  C   UNL     1      -5.598   1.003 -32.684  1.00  0.00     0.251 C 
HETATM   21  O   UNL     1      -6.503   1.422 -31.963  1.00  0.00    -0.268 OA
HETATM   22  H   UNL     1      -3.686   1.231 -33.421  1.00  0.00     0.162 HD
BRANCH  20  23
HETATM   23  C   UNL     1      -5.675  -0.349 -33.306  1.00  0.00     0.032 A 
HETATM   24  C   UNL     1      -4.553  -1.180 -33.261  1.00  0.00     0.020 A 
HETATM   25  C   UNL     1      -4.591  -2.433 -33.880  1.00  0.00     0.038 A 
HETATM   26  C   UNL     1      -5.743  -2.874 -34.537  1.00  0.00     0.068 A 
HETATM   27  C   UNL     1      -6.873  -2.057 -34.555  1.00  0.00     0.038 A 
HETATM   28  C   UNL     1      -6.841  -0.800 -33.938  1.00  0.00     0.020 A 
BRANCH  26  29
HETATM   29  O   UNL     1      -5.637  -4.109 -35.110  1.00  0.00    -0.356 OA
HETATM   30  C   UNL     1      -4.824  -5.068 -34.442  1.00  0.00     0.210 C 
ENDBRANCH  26  29
ENDBRANCH  20  23
ENDBRANCH  18  19
ENDBRANCH  17  18
ENDBRANCH   1  17
TORSDOF 6
ENDMDL
MODEL 10
REMARK VINA RESULT:      -7.8      2.224      3.213
REMARK  6 active torsions:
REMARK  status: ('A' for Active; 'I' for Inactive)
REMARK    1  A    between atoms: C_11  and  N_12 
REMARK    2  A    between atoms: N_12  and  C_13 
REMARK    3  A    between atoms: C_13  and  C_14 
REMARK    4  A    between atoms: C_14  and  N_15 
REMARK       I    between atoms: N_15  and  C_16 
REMARK    5  A    between atoms: C_16  and  C_17 
REMARK    6  A    between atoms: C_20  and  O_21 
ROOT
HETATM    1  N   UNL     1      -6.960   1.967 -33.104  1.00  0.00    -0.277 NA
HETATM    2  H   UNL     1      -6.181   2.564 -32.830  1.00  0.00     0.129 HD
ENDROOT
BRANCH   1   3
HETATM    3  C   UNL     1      -6.546   0.675 -33.430  1.00  0.00     0.086 C 
HETATM    4  N   UNL     1      -5.645   0.058 -32.649  1.00  0.00    -0.346 N 
HETATM    5  C   UNL     1      -5.104  -1.142 -32.908  1.00  0.00     0.044 A 
HETATM    6  H   UNL     1      -5.396   0.525 -31.769  1.00  0.00     0.167 HD
HETATM    7  C   UNL     1      -4.094  -1.665 -32.093  1.00  0.00     0.037 A 
HETATM    8  C   UNL     1      -5.553  -1.862 -34.027  1.00  0.00    -0.008 A 
HETATM    9  C   UNL     1      -3.493  -2.897 -32.397  1.00  0.00    -0.054 A 
HETATM   10  C   UNL     1      -3.913  -3.608 -33.540  1.00  0.00    -0.055 A 
HETATM   11  C   UNL     1      -2.371  -3.405 -31.527  1.00  0.00     0.049 C 
HETATM   12  C   UNL     1      -3.288  -4.925 -33.924  1.00  0.00     0.049 C 
HETATM   13  C   UNL     1      -4.957  -3.095 -34.329  1.00  0.00     0.021 A 
HETATM   14  C   UNL     1      -6.586  -1.319 -34.795  1.00  0.00     0.023 C 
HETATM   15  C   UNL     1      -7.115  -0.058 -34.487  1.00  0.00    -0.023 C 
HETATM   16  C   UNL     1      -8.221   0.490 -35.348  1.00  0.00     0.052 C 
ENDBRANCH   1   3
BRANCH   1  17
HETATM   17  C   UNL     1      -8.060   2.101 -32.132  1.00  0.00     0.113 C 
BRANCH  17  18
HETATM   18  C   UNL     1      -7.809   3.253 -31.146  1.00  0.00     0.137 C 
BRANCH  18  19
HETATM   19  N   UNL     1      -6.539   3.953 -31.276  1.00  0.00    -0.356 N 
HETATM   20  C   UNL     1      -5.357   3.572 -30.684  1.00  0.00     0.251 C 
HETATM   21  O   UNL     1      -5.285   2.701 -29.817  1.00  0.00    -0.268 OA
HETATM   22  H   UNL     1      -6.531   4.749 -31.904  1.00  0.00     0.162 HD
BRANCH  20  23
HETATM   23  C   UNL     1      -4.154   4.353 -31.090  1.00  0.00     0.032 A 
HETATM   24  C   UNL     1      -4.141   5.734 -30.875  1.00  0.00     0.020 A 
HETATM   25  C   UNL     1      -3.041   6.491 -31.291  1.00  0.00     0.038 A 
HETATM   26  C   UNL     1      -1.946   5.883 -31.912  1.00  0.00     0.068 A 
HETATM   27  C   UNL     1      -1.947   4.501 -32.097  1.00  0.00     0.038 A 
HETATM   28  C   UNL     1      -3.046   3.737 -31.684  1.00  0.00     0.020 A 
BRANCH  26  29
HETATM   29  O   UNL     1      -0.949   6.741 -32.281  1.00  0.00    -0.356 OA
HETATM   30  C   UNL     1       0.236   6.737 -31.492  1.00  0.00     0.210 C 
ENDBRANCH  26  29
ENDBRANCH  20  23
ENDBRANCH  18  19
ENDBRANCH  17  18
ENDBRANCH   1  17
TORSDOF 6
ENDMDL
