MODEL 1
REMARK VINA RESULT:      -8.1      0.000      0.000
REMARK  3 active torsions:
REMARK  status: ('A' for Active; 'I' for Inactive)
REMARK    1  A    between atoms: C_5  and  N_6 
REMARK       I    between atoms: N_6  and  C_7 
REMARK    2  A    between atoms: C_7  and  C_8 
REMARK    3  A    between atoms: C_8  and  C_9 
ROOT
HETATM    1  C   UNL     1      -4.413   3.497 -31.216  1.00  0.00     0.286 C 
HETATM    2  N   UNL     1      -3.029   3.142 -31.783  1.00  0.00    -0.056 N 
HETATM    3  H   UNL     1      -2.507   2.674 -31.031  1.00  0.00     0.278 HD
HETATM    4  H   UNL     1      -3.134   2.385 -32.494  1.00  0.00     0.278 HD
HETATM    5  C   UNL     1      -2.180   4.253 -32.321  1.00  0.00     0.209 C 
HETATM    6  C   UNL     1      -2.258   5.473 -31.375  1.00  0.00     0.115 C 
HETATM    7  N   UNL     1      -3.636   5.858 -31.099  1.00  0.00    -0.353 N 
HETATM    8  C   UNL     1      -4.661   4.976 -30.907  1.00  0.00     0.249 C 
HETATM    9  O   UNL     1      -5.745   5.376 -30.494  1.00  0.00    -0.271 OA
HETATM   10  C   UNL     1      -2.587   4.575 -33.758  1.00  0.00     0.035 C 
HETATM   11  C   UNL     1      -1.782   5.757 -34.297  1.00  0.00     0.002 C 
HETATM   12  C   UNL     1      -1.894   6.978 -33.387  1.00  0.00     0.002 C 
HETATM   13  C   UNL     1      -1.473   6.653 -31.953  1.00  0.00     0.027 C 
HETATM   14  H   UNL     1      -3.839   6.803 -30.776  1.00  0.00     0.163 HD
ENDROOT
BRANCH   1  15
HETATM   15  C   UNL     1      -5.533   2.946 -32.105  1.00  0.00     0.146 C 
BRANCH  15  16
HETATM   16  C   UNL     1      -5.288   1.467 -32.202  1.00  0.00     0.224 C 
HETATM   17  N   UNL     1      -5.428   0.953 -33.467  1.00  0.00    -0.327 N 
HETATM   18  H   UNL     1      -5.433   1.595 -34.255  1.00  0.00     0.169 HD
HETATM   19  O   UNL     1      -5.200   0.850 -31.140  1.00  0.00    -0.273 OA
BRANCH  17  20
HETATM   20  C   UNL     1      -5.624  -0.405 -33.807  1.00  0.00     0.034 A 
HETATM   21  C   UNL     1      -6.857  -0.947 -34.168  1.00  0.00     0.030 A 
HETATM   22  C   UNL     1      -6.957  -2.288 -34.556  1.00  0.00     0.009 A 
HETATM   23  C   UNL     1      -5.827  -3.108 -34.583  1.00  0.00    -0.062 A 
HETATM   24  C   UNL     1      -5.923  -4.538 -35.023  1.00  0.00     0.048 C 
HETATM   25  C   UNL     1      -4.592  -2.566 -34.215  1.00  0.00     0.009 A 
HETATM   26  C   UNL     1      -4.493  -1.229 -33.822  1.00  0.00     0.030 A 
ENDBRANCH  17  20
ENDBRANCH  15  16
ENDBRANCH   1  15
TORSDOF 3
ENDMDL
MODEL 2
REMARK VINA RESULT:      -8.0      1.673      2.469
REMARK  3 active torsions:
REMARK  status: ('A' for Active; 'I' for Inactive)
REMARK    1  A    between atoms: C_5  and  N_6 
REMARK       I    between atoms: N_6  and  C_7 
REMARK    2  A    between atoms: C_7  and  C_8 
REMARK    3  A    between atoms: C_8  and  C_9 
ROOT
HETATM    1  C   UNL     1      -3.714   4.074 -33.057  1.00  0.00     0.286 C 
HETATM    2  N   UNL     1      -3.545   5.414 -33.791  1.00  0.00    -0.056 N 
HETATM    3  H   UNL     1      -3.202   5.198 -34.736  1.00  0.00     0.278 HD
HETATM    4  H   UNL     1      -4.487   5.824 -33.977  1.00  0.00     0.278 HD
HETATM    5  C   UNL     1      -2.636   6.440 -33.187  1.00  0.00     0.209 C 
HETATM    6  C   UNL     1      -1.350   5.758 -32.670  1.00  0.00     0.115 C 
HETATM    7  N   UNL     1      -1.647   4.636 -31.789  1.00  0.00    -0.353 N 
HETATM    8  C   UNL     1      -2.672   3.753 -31.982  1.00  0.00     0.249 C 
HETATM    9  O   UNL     1      -2.737   2.732 -31.304  1.00  0.00    -0.271 OA
HETATM   10  C   UNL     1      -3.378   7.228 -32.108  1.00  0.00     0.035 C 
HETATM   11  C   UNL     1      -2.445   8.229 -31.429  1.00  0.00     0.002 C 
HETATM   12  C   UNL     1      -1.194   7.549 -30.877  1.00  0.00     0.002 C 
HETATM   13  C   UNL     1      -0.448   6.774 -31.964  1.00  0.00     0.027 C 
HETATM   14  H   UNL     1      -0.939   4.309 -31.134  1.00  0.00     0.163 HD
ENDROOT
BRANCH   1  15
HETATM   15  C   UNL     1      -5.127   3.931 -32.484  1.00  0.00     0.146 C 
BRANCH  15  16
HETATM   16  C   UNL     1      -5.742   2.761 -33.200  1.00  0.00     0.224 C 
HETATM   17  N   UNL     1      -5.491   1.545 -32.615  1.00  0.00    -0.327 N 
HETATM   18  H   UNL     1      -5.150   1.527 -31.658  1.00  0.00     0.169 HD
HETATM   19  O   UNL     1      -6.211   2.981 -34.317  1.00  0.00    -0.273 OA
BRANCH  17  20
HETATM   20  C   UNL     1      -5.609   0.277 -33.228  1.00  0.00     0.034 A 
HETATM   21  C   UNL     1      -4.543  -0.608 -33.396  1.00  0.00     0.030 A 
HETATM   22  C   UNL     1      -4.753  -1.875 -33.952  1.00  0.00     0.009 A 
HETATM   23  C   UNL     1      -6.031  -2.274 -34.353  1.00  0.00    -0.062 A 
HETATM   24  C   UNL     1      -6.266  -3.640 -34.926  1.00  0.00     0.048 C 
HETATM   25  C   UNL     1      -7.097  -1.385 -34.191  1.00  0.00     0.009 A 
HETATM   26  C   UNL     1      -6.887  -0.118 -33.641  1.00  0.00     0.030 A 
ENDBRANCH  17  20
ENDBRANCH  15  16
ENDBRANCH   1  15
TORSDOF 3
ENDMDL
MODEL 3
REMARK VINA RESULT:      -7.7      4.038      6.553
REMARK  3 active torsions:
REMARK  status: ('A' for Active; 'I' for Inactive)
REMARK    1  A    between atoms: C_5  and  N_6 
REMARK       I    between atoms: N_6  and  C_7 
REMARK    2  A    between atoms: C_7  and  C_8 
REMARK    3  A    between atoms: C_8  and  C_9 
ROOT
HETATM    1  C   UNL     1      -6.516   1.883 -31.958  1.00  0.00     0.286 C 
HETATM    2  N   UNL     1      -7.062   0.485 -31.633  1.00  0.00    -0.056 N 
HETATM    3  H   UNL     1      -7.102   0.408 -30.608  1.00  0.00     0.278 HD
HETATM    4  H   UNL     1      -8.069   0.438 -31.905  1.00  0.00     0.278 HD
HETATM    5  C   UNL     1      -6.320  -0.704 -32.161  1.00  0.00     0.209 C 
HETATM    6  C   UNL     1      -4.799  -0.488 -31.987  1.00  0.00     0.115 C 
HETATM    7  N   UNL     1      -4.364   0.783 -32.551  1.00  0.00    -0.353 N 
HETATM    8  C   UNL     1      -5.074   1.946 -32.471  1.00  0.00     0.249 C 
HETATM    9  O   UNL     1      -4.553   3.007 -32.803  1.00  0.00    -0.271 OA
HETATM   10  C   UNL     1      -6.730  -0.979 -33.607  1.00  0.00     0.035 C 
HETATM   11  C   UNL     1      -5.927  -2.142 -34.187  1.00  0.00     0.002 C 
HETATM   12  C   UNL     1      -4.423  -1.911 -34.057  1.00  0.00     0.002 C 
HETATM   13  C   UNL     1      -4.017  -1.649 -32.606  1.00  0.00     0.027 C 
HETATM   14  H   UNL     1      -3.385   0.913 -32.800  1.00  0.00     0.163 HD
ENDROOT
BRANCH   1  15
HETATM   15  C   UNL     1      -7.450   2.636 -32.911  1.00  0.00     0.146 C 
BRANCH  15  16
HETATM   16  C   UNL     1      -8.823   2.076 -32.663  1.00  0.00     0.224 C 
HETATM   17  N   UNL     1      -9.415   1.519 -33.769  1.00  0.00    -0.327 N 
HETATM   18  H   UNL     1      -8.831   1.297 -34.572  1.00  0.00     0.169 HD
HETATM   19  O   UNL     1      -9.348   2.355 -31.585  1.00  0.00    -0.273 OA
BRANCH  17  20
HETATM   20  C   UNL     1     -10.791   1.257 -33.945  1.00  0.00     0.034 A 
HETATM   21  C   UNL     1     -11.468   0.203 -33.330  1.00  0.00     0.030 A 
HETATM   22  C   UNL     1     -12.848   0.049 -33.501  1.00  0.00     0.009 A 
HETATM   23  C   UNL     1     -13.572   0.942 -34.295  1.00  0.00    -0.062 A 
HETATM   24  C   UNL     1     -15.055   0.797 -34.461  1.00  0.00     0.048 C 
HETATM   25  C   UNL     1     -12.893   1.994 -34.916  1.00  0.00     0.009 A 
HETATM   26  C   UNL     1     -11.514   2.145 -34.750  1.00  0.00     0.030 A 
ENDBRANCH  17  20
ENDBRANCH  15  16
ENDBRANCH   1  15
TORSDOF 3
ENDMDL
MODEL 4
REMARK VINA RESULT:      -7.6      2.270      8.124
REMARK  3 active torsions:
REMARK  status: ('A' for Active; 'I' for Inactive)
REMARK    1  A    between atoms: C_5  and  N_6 
REMARK       I    between atoms: N_6  and  C_7 
REMARK    2  A    between atoms: C_7  and  C_8 
REMARK    3  A    between atoms: C_8  and  C_9 
ROOT
HETATM    1  C   UNL     1      -4.253   2.355 -31.733  1.00  0.00     0.286 C 
HETATM    2  N   UNL     1      -5.687   2.762 -32.107  1.00  0.00    -0.056 N 
HETATM    3  H   UNL     1      -6.161   3.030 -31.235  1.00  0.00     0.278 HD
HETATM    4  H   UNL     1      -5.660   3.661 -32.639  1.00  0.00     0.278 HD
HETATM    5  C   UNL     1      -6.545   1.759 -32.816  1.00  0.00     0.209 C 
HETATM    6  C   UNL     1      -6.357   0.366 -32.172  1.00  0.00     0.115 C 
HETATM    7  N   UNL     1      -4.952  -0.008 -32.087  1.00  0.00    -0.353 N 
HETATM    8  C   UNL     1      -3.940   0.856 -31.778  1.00  0.00     0.249 C 
HETATM    9  O   UNL     1      -2.816   0.425 -31.543  1.00  0.00    -0.271 OA
HETATM   10  C   UNL     1      -6.245   1.777 -34.314  1.00  0.00     0.035 C 
HETATM   11  C   UNL     1      -7.057   0.707 -35.042  1.00  0.00     0.002 C 
HETATM   12  C   UNL     1      -6.839  -0.677 -34.436  1.00  0.00     0.002 C 
HETATM   13  C   UNL     1      -7.153  -0.693 -32.940  1.00  0.00     0.027 C 
HETATM   14  H   UNL     1      -4.697  -0.990 -31.997  1.00  0.00     0.163 HD
ENDROOT
BRANCH   1  15
HETATM   15  C   UNL     1      -3.223   3.136 -32.556  1.00  0.00     0.146 C 
BRANCH  15  16
HETATM   16  C   UNL     1      -2.902   4.363 -31.749  1.00  0.00     0.224 C 
HETATM   17  N   UNL     1      -1.592   4.766 -31.831  1.00  0.00    -0.327 N 
HETATM   18  H   UNL     1      -1.016   4.396 -32.582  1.00  0.00     0.169 HD
HETATM   19  O   UNL     1      -3.763   4.743 -30.955  1.00  0.00    -0.273 OA
BRANCH  17  20
HETATM   20  C   UNL     1      -0.919   5.625 -30.933  1.00  0.00     0.034 A 
HETATM   21  C   UNL     1      -1.159   6.996 -30.839  1.00  0.00     0.030 A 
HETATM   22  C   UNL     1      -0.499   7.769 -29.878  1.00  0.00     0.009 A 
HETATM   23  C   UNL     1       0.416   7.183 -28.999  1.00  0.00    -0.062 A 
HETATM   24  C   UNL     1       1.107   8.001 -27.950  1.00  0.00     0.048 C 
HETATM   25  C   UNL     1       0.661   5.811 -29.098  1.00  0.00     0.009 A 
HETATM   26  C   UNL     1       0.006   5.040 -30.061  1.00  0.00     0.030 A 
ENDBRANCH  17  20
ENDBRANCH  15  16
ENDBRANCH   1  15
TORSDOF 3
ENDMDL
MODEL 5
REMARK VINA RESULT:      -7.6      4.729      7.117
REMARK  3 active torsions:
REMARK  status: ('A' for Active; 'I' for Inactive)
REMARK    1  A    between atoms: C_5  and  N_6 
REMARK       I    between atoms: N_6  and  C_7 
REMARK    2  A    between atoms: C_7  and  C_8 
REMARK    3  A    between atoms: C_8  and  C_9 
ROOT
HETATM    1  C   UNL     1      -9.753   3.273 -32.465  1.00  0.00     0.286 C 
HETATM    2  N   UNL     1      -9.997   2.661 -33.853  1.00  0.00    -0.056 N 
HETATM    3  H   UNL     1      -9.776   3.388 -34.546  1.00  0.00     0.278 HD
HETATM    4  H   UNL     1      -9.269   1.937 -34.041  1.00  0.00     0.278 HD
HETATM    5  C   UNL     1     -11.362   2.124 -34.159  1.00  0.00     0.209 C 
HETATM    6  C   UNL     1     -12.436   3.097 -33.624  1.00  0.00     0.115 C 
HETATM    7  N   UNL     1     -12.225   3.419 -32.218  1.00  0.00    -0.353 N 
HETATM    8  C   UNL     1     -11.001   3.620 -31.648  1.00  0.00     0.249 C 
HETATM    9  O   UNL     1     -10.921   4.072 -30.509  1.00  0.00    -0.271 OA
HETATM   10  C   UNL     1     -11.503   0.706 -33.608  1.00  0.00     0.035 C 
HETATM   11  C   UNL     1     -12.914   0.170 -33.844  1.00  0.00     0.002 C 
HETATM   12  C   UNL     1     -13.977   1.109 -33.276  1.00  0.00     0.002 C 
HETATM   13  C   UNL     1     -13.839   2.523 -33.841  1.00  0.00     0.027 C 
HETATM   14  H   UNL     1     -13.003   3.768 -31.660  1.00  0.00     0.163 HD
ENDROOT
BRANCH   1  15
HETATM   15  C   UNL     1      -8.802   2.404 -31.636  1.00  0.00     0.146 C 
BRANCH  15  16
HETATM   16  C   UNL     1      -7.917   1.704 -32.629  1.00  0.00     0.224 C 
HETATM   17  N   UNL     1      -7.872   0.340 -32.483  1.00  0.00    -0.327 N 
HETATM   18  H   UNL     1      -8.589  -0.112 -31.921  1.00  0.00     0.169 HD
HETATM   19  O   UNL     1      -7.181   2.416 -33.312  1.00  0.00    -0.273 OA
BRANCH  17  20
HETATM   20  C   UNL     1      -6.885  -0.529 -32.998  1.00  0.00     0.034 A 
HETATM   21  C   UNL     1      -5.598  -0.647 -32.470  1.00  0.00     0.030 A 
HETATM   22  C   UNL     1      -4.698  -1.579 -32.995  1.00  0.00     0.009 A 
HETATM   23  C   UNL     1      -5.067  -2.406 -34.059  1.00  0.00    -0.062 A 
HETATM   24  C   UNL     1      -4.115  -3.426 -34.609  1.00  0.00     0.048 C 
HETATM   25  C   UNL     1      -6.353  -2.284 -34.592  1.00  0.00     0.009 A 
HETATM   26  C   UNL     1      -7.251  -1.348 -34.072  1.00  0.00     0.030 A 
ENDBRANCH  17  20
ENDBRANCH  15  16
ENDBRANCH   1  15
TORSDOF 3
ENDMDL
MODEL 6
REMARK VINA RESULT:      -7.5     16.220     18.469
REMARK  3 active torsions:
REMARK  status: ('A' for Active; 'I' for Inactive)
REMARK    1  A    between atoms: C_5  and  N_6 
REMARK       I    between atoms: N_6  and  C_7 
REMARK    2  A    between atoms: C_7  and  C_8 
REMARK    3  A    between atoms: C_8  and  C_9 
ROOT
HETATM    1  C   UNL     1      -6.225 -13.513 -38.732  1.00  0.00     0.286 C 
HETATM    2  N   UNL     1      -7.481 -13.156 -37.922  1.00  0.00    -0.056 N 
HETATM    3  H   UNL     1      -7.380 -13.598 -37.000  1.00  0.00     0.278 HD
HETATM    4  H   UNL     1      -7.461 -12.138 -37.691  1.00  0.00     0.278 HD
HETATM    5  C   UNL     1      -8.816 -13.541 -38.481  1.00  0.00     0.209 C 
HETATM    6  C   UNL     1      -8.743 -14.970 -39.066  1.00  0.00     0.115 C 
HETATM    7  N   UNL     1      -7.641 -15.115 -40.008  1.00  0.00    -0.353 N 
HETATM    8  C   UNL     1      -6.409 -14.548 -39.847  1.00  0.00     0.249 C 
HETATM    9  O   UNL     1      -5.483 -14.873 -40.584  1.00  0.00    -0.271 OA
HETATM   10  C   UNL     1      -9.282 -12.496 -39.494  1.00  0.00     0.035 C 
HETATM   11  C   UNL     1     -10.608 -12.912 -40.131  1.00  0.00     0.002 C 
HETATM   12  C   UNL     1     -10.525 -14.305 -40.749  1.00  0.00     0.002 C 
HETATM   13  C   UNL     1     -10.071 -15.349 -39.728  1.00  0.00     0.027 C 
HETATM   14  H   UNL     1      -7.662 -15.866 -40.696  1.00  0.00     0.163 HD
ENDROOT
BRANCH   1  15
HETATM   15  C   UNL     1      -5.545 -12.256 -39.284  1.00  0.00     0.146 C 
BRANCH  15  16
HETATM   16  C   UNL     1      -4.125 -12.312 -38.794  1.00  0.00     0.224 C 
HETATM   17  N   UNL     1      -3.266 -12.988 -39.625  1.00  0.00    -0.327 N 
HETATM   18  H   UNL     1      -3.560 -13.173 -40.580  1.00  0.00     0.169 HD
HETATM   19  O   UNL     1      -3.925 -11.946 -37.635  1.00  0.00    -0.273 OA
BRANCH  17  20
HETATM   20  C   UNL     1      -2.002 -13.516 -39.279  1.00  0.00     0.034 A 
HETATM   21  C   UNL     1      -1.610 -13.806 -37.972  1.00  0.00     0.030 A 
HETATM   22  C   UNL     1      -0.365 -14.390 -37.717  1.00  0.00     0.009 A 
HETATM   23  C   UNL     1       0.510 -14.688 -38.765  1.00  0.00    -0.062 A 
HETATM   24  C   UNL     1       1.835 -15.339 -38.499  1.00  0.00     0.048 C 
HETATM   25  C   UNL     1       0.120 -14.392 -40.073  1.00  0.00     0.009 A 
HETATM   26  C   UNL     1      -1.121 -13.803 -40.328  1.00  0.00     0.030 A 
ENDBRANCH  17  20
ENDBRANCH  15  16
ENDBRANCH   1  15
TORSDOF 3
ENDMDL
MODEL 7
REMARK VINA RESULT:      -7.5      5.000      7.020
REMARK  3 active torsions:
REMARK  status: ('A' for Active; 'I' for Inactive)
REMARK    1  A    between atoms: C_5  and  N_6 
REMARK       I    between atoms: N_6  and  C_7 
REMARK    2  A    between atoms: C_7  and  C_8 
REMARK    3  A    between atoms: C_8  and  C_9 
ROOT
HETATM    1  C   UNL     1      -7.747   1.287 -32.786  1.00  0.00     0.286 C 
HETATM    2  N   UNL     1      -7.365   0.034 -31.984  1.00  0.00    -0.056 N 
HETATM    3  H   UNL     1      -7.703   0.178 -31.023  1.00  0.00     0.278 HD
HETATM    4  H   UNL     1      -7.943  -0.772 -32.311  1.00  0.00     0.278 HD
HETATM    5  C   UNL     1      -5.918  -0.349 -31.918  1.00  0.00     0.209 C 
HETATM    6  C   UNL     1      -5.054   0.913 -31.700  1.00  0.00     0.115 C 
HETATM    7  N   UNL     1      -5.351   1.950 -32.679  1.00  0.00    -0.353 N 
HETATM    8  C   UNL     1      -6.603   2.242 -33.140  1.00  0.00     0.249 C 
HETATM    9  O   UNL     1      -6.788   3.249 -33.817  1.00  0.00    -0.271 OA
HETATM   10  C   UNL     1      -5.528  -1.140 -33.166  1.00  0.00     0.035 C 
HETATM   11  C   UNL     1      -4.037  -1.474 -33.152  1.00  0.00     0.002 C 
HETATM   12  C   UNL     1      -3.180  -0.223 -32.981  1.00  0.00     0.002 C 
HETATM   13  C   UNL     1      -3.566   0.558 -31.724  1.00  0.00     0.027 C 
HETATM   14  H   UNL     1      -4.663   2.679 -32.864  1.00  0.00     0.163 HD
ENDROOT
BRANCH   1  15
HETATM   15  C   UNL     1      -8.538   0.919 -34.046  1.00  0.00     0.146 C 
BRANCH  15  16
HETATM   16  C   UNL     1      -9.936   0.624 -33.579  1.00  0.00     0.224 C 
HETATM   17  N   UNL     1     -10.918   1.257 -34.299  1.00  0.00    -0.327 N 
HETATM   18  H   UNL     1     -10.678   1.653 -35.204  1.00  0.00     0.169 HD
HETATM   19  O   UNL     1     -10.047   0.036 -32.503  1.00  0.00    -0.273 OA
BRANCH  17  20
HETATM   20  C   UNL     1     -12.254   1.472 -33.892  1.00  0.00     0.034 A 
HETATM   21  C   UNL     1     -13.296   0.577 -34.135  1.00  0.00     0.030 A 
HETATM   22  C   UNL     1     -14.580   0.830 -33.641  1.00  0.00     0.009 A 
HETATM   23  C   UNL     1     -14.843   1.985 -32.901  1.00  0.00    -0.062 A 
HETATM   24  C   UNL     1     -16.211   2.249 -32.347  1.00  0.00     0.048 C 
HETATM   25  C   UNL     1     -13.801   2.886 -32.663  1.00  0.00     0.009 A 
HETATM   26  C   UNL     1     -12.520   2.636 -33.161  1.00  0.00     0.030 A 
ENDBRANCH  17  20
ENDBRANCH  15  16
ENDBRANCH   1  15
TORSDOF 3
ENDMDL
MODEL 8
REMARK VINA RESULT:      -7.0      4.129      7.869
REMARK  3 active torsions:
REMARK  status: ('A' for Active; 'I' for Inactive)
REMARK    1  A    between atoms: C_5  and  N_6 
REMARK       I    between atoms: N_6  and  C_7 
REMARK    2  A    between atoms: C_7  and  C_8 
REMARK    3  A    between atoms: C_8  and  C_9 
ROOT
HETATM    1  C   UNL     1      -8.819   2.770 -33.520  1.00  0.00     0.286 C 
HETATM    2  N   UNL     1      -9.416   1.855 -34.601  1.00  0.00    -0.056 N 
HETATM    3  H   UNL     1      -9.115   2.229 -35.511  1.00  0.00     0.278 HD
HETATM    4  H   UNL     1      -8.939   0.927 -34.566  1.00  0.00     0.278 HD
HETATM    5  C   UNL     1     -10.903   1.681 -34.637  1.00  0.00     0.209 C 
HETATM    6  C   UNL     1     -11.593   3.046 -34.415  1.00  0.00     0.115 C 
HETATM    7  N   UNL     1     -11.102   3.714 -33.217  1.00  0.00    -0.353 N 
HETATM    8  C   UNL     1      -9.798   3.710 -32.811  1.00  0.00     0.249 C 
HETATM    9  O   UNL     1      -9.438   4.451 -31.901  1.00  0.00    -0.271 OA
HETATM   10  C   UNL     1     -11.331   0.616 -33.628  1.00  0.00     0.035 C 
HETATM   11  C   UNL     1     -12.852   0.479 -33.597  1.00  0.00     0.002 C 
HETATM   12  C   UNL     1     -13.535   1.819 -33.333  1.00  0.00     0.002 C 
HETATM   13  C   UNL     1     -13.114   2.877 -34.354  1.00  0.00     0.027 C 
HETATM   14  H   UNL     1     -11.670   4.435 -32.775  1.00  0.00     0.163 HD
ENDROOT
BRANCH   1  15
HETATM   15  C   UNL     1      -8.020   1.964 -32.491  1.00  0.00     0.146 C 
BRANCH  15  16
HETATM   16  C   UNL     1      -6.579   2.103 -32.894  1.00  0.00     0.224 C 
HETATM   17  N   UNL     1      -6.052   3.354 -32.688  1.00  0.00    -0.327 N 
HETATM   18  H   UNL     1      -6.551   3.996 -32.077  1.00  0.00     0.169 HD
HETATM   19  O   UNL     1      -6.094   1.176 -33.544  1.00  0.00    -0.273 OA
BRANCH  17  20
HETATM   20  C   UNL     1      -4.887   3.885 -33.284  1.00  0.00     0.034 A 
HETATM   21  C   UNL     1      -4.896   4.723 -34.400  1.00  0.00     0.030 A 
HETATM   22  C   UNL     1      -3.703   5.263 -34.893  1.00  0.00     0.009 A 
HETATM   23  C   UNL     1      -2.482   4.969 -34.280  1.00  0.00    -0.062 A 
HETATM   24  C   UNL     1      -1.203   5.565 -34.788  1.00  0.00     0.048 C 
HETATM   25  C   UNL     1      -2.472   4.124 -33.167  1.00  0.00     0.009 A 
HETATM   26  C   UNL     1      -3.662   3.580 -32.678  1.00  0.00     0.030 A 
ENDBRANCH  17  20
ENDBRANCH  15  16
ENDBRANCH   1  15
TORSDOF 3
ENDMDL
MODEL 9
REMARK VINA RESULT:      -6.9      4.532      6.409
REMARK  3 active torsions:
REMARK  status: ('A' for Active; 'I' for Inactive)
REMARK    1  A    between atoms: C_5  and  N_6 
REMARK       I    between atoms: N_6  and  C_7 
REMARK    2  A    between atoms: C_7  and  C_8 
REMARK    3  A    between atoms: C_8  and  C_9 
ROOT
HETATM    1  C   UNL     1      -8.839   2.376 -33.991  1.00  0.00     0.286 C 
HETATM    2  N   UNL     1     -10.082   1.727 -34.619  1.00  0.00    -0.056 N 
HETATM    3  H   UNL     1      -9.797   1.355 -35.534  1.00  0.00     0.278 HD
HETATM    4  H   UNL     1     -10.324   0.863 -34.085  1.00  0.00     0.278 HD
HETATM    5  C   UNL     1     -11.299   2.578 -34.819  1.00  0.00     0.209 C 
HETATM    6  C   UNL     1     -10.882   3.964 -35.361  1.00  0.00     0.115 C 
HETATM    7  N   UNL     1      -9.853   4.583 -34.536  1.00  0.00    -0.353 N 
HETATM    8  C   UNL     1      -8.814   3.907 -33.962  1.00  0.00     0.249 C 
HETATM    9  O   UNL     1      -7.891   4.528 -33.443  1.00  0.00    -0.271 OA
HETATM   10  C   UNL     1     -12.104   2.654 -33.522  1.00  0.00     0.035 C 
HETATM   11  C   UNL     1     -13.309   3.580 -33.686  1.00  0.00     0.002 C 
HETATM   12  C   UNL     1     -12.895   4.964 -34.180  1.00  0.00     0.002 C 
HETATM   13  C   UNL     1     -12.100   4.883 -35.484  1.00  0.00     0.027 C 
HETATM   14  H   UNL     1      -9.719   5.592 -34.572  1.00  0.00     0.163 HD
ENDROOT
BRANCH   1  15
HETATM   15  C   UNL     1      -8.569   1.816 -32.590  1.00  0.00     0.146 C 
BRANCH  15  16
HETATM   16  C   UNL     1      -7.269   1.069 -32.693  1.00  0.00     0.224 C 
HETATM   17  N   UNL     1      -7.205   0.188 -33.744  1.00  0.00    -0.327 N 
HETATM   18  H   UNL     1      -7.888   0.273 -34.491  1.00  0.00     0.169 HD
HETATM   19  O   UNL     1      -6.501   1.161 -31.735  1.00  0.00    -0.273 OA
BRANCH  17  20
HETATM   20  C   UNL     1      -6.301  -0.889 -33.884  1.00  0.00     0.034 A 
HETATM   21  C   UNL     1      -5.006  -0.892 -33.366  1.00  0.00     0.030 A 
HETATM   22  C   UNL     1      -4.193  -2.024 -33.490  1.00  0.00     0.009 A 
HETATM   23  C   UNL     1      -4.662  -3.170 -34.138  1.00  0.00    -0.062 A 
HETATM   24  C   UNL     1      -3.806  -4.395 -34.250  1.00  0.00     0.048 C 
HETATM   25  C   UNL     1      -5.957  -3.165 -34.663  1.00  0.00     0.009 A 
HETATM   26  C   UNL     1      -6.767  -2.032 -34.545  1.00  0.00     0.030 A 
ENDBRANCH  17  20
ENDBRANCH  15  16
ENDBRANCH   1  15
TORSDOF 3
ENDMDL
MODEL 10
REMARK VINA RESULT:      -6.9      3.049      3.934
REMARK  3 active torsions:
REMARK  status: ('A' for Active; 'I' for Inactive)
REMARK    1  A    between atoms: C_5  and  N_6 
REMARK       I    between atoms: N_6  and  C_7 
REMARK    2  A    between atoms: C_7  and  C_8 
REMARK    3  A    between atoms: C_8  and  C_9 
ROOT
HETATM    1  C   UNL     1      -4.621   3.858 -32.286  1.00  0.00     0.286 C 
HETATM    2  N   UNL     1      -4.887   5.119 -33.122  1.00  0.00    -0.056 N 
HETATM    3  H   UNL     1      -5.381   4.818 -33.972  1.00  0.00     0.278 HD
HETATM    4  H   UNL     1      -5.601   5.707 -32.637  1.00  0.00     0.278 HD
HETATM    5  C   UNL     1      -3.714   5.954 -33.535  1.00  0.00     0.209 C 
HETATM    6  C   UNL     1      -2.559   5.038 -33.999  1.00  0.00     0.115 C 
HETATM    7  N   UNL     1      -2.243   4.018 -33.007  1.00  0.00    -0.353 N 
HETATM    8  C   UNL     1      -3.174   3.357 -32.257  1.00  0.00     0.249 C 
HETATM    9  O   UNL     1      -2.841   2.385 -31.585  1.00  0.00    -0.271 OA
HETATM   10  C   UNL     1      -3.317   6.899 -32.401  1.00  0.00     0.035 C 
HETATM   11  C   UNL     1      -2.075   7.705 -32.777  1.00  0.00     0.002 C 
HETATM   12  C   UNL     1      -0.918   6.799 -33.193  1.00  0.00     0.002 C 
HETATM   13  C   UNL     1      -1.317   5.865 -34.336  1.00  0.00     0.027 C 
HETATM   14  H   UNL     1      -1.329   3.569 -33.020  1.00  0.00     0.163 HD
ENDROOT
BRANCH   1  15
HETATM   15  C   UNL     1      -5.155   4.016 -30.859  1.00  0.00     0.146 C 
BRANCH  15  16
HETATM   16  C   UNL     1      -6.485   3.317 -30.841  1.00  0.00     0.224 C 
HETATM   17  N   UNL     1      -6.664   2.416 -31.862  1.00  0.00    -0.327 N 
HETATM   18  H   UNL     1      -5.848   2.102 -32.381  1.00  0.00     0.169 HD
HETATM   19  O   UNL     1      -7.334   3.762 -30.068  1.00  0.00    -0.273 OA
BRANCH  17  20
HETATM   20  C   UNL     1      -7.895   1.896 -32.319  1.00  0.00     0.034 A 
HETATM   21  C   UNL     1      -8.356   0.612 -32.027  1.00  0.00     0.030 A 
HETATM   22  C   UNL     1      -9.618   0.193 -32.462  1.00  0.00     0.009 A 
HETATM   23  C   UNL     1     -10.437   1.050 -33.201  1.00  0.00    -0.062 A 
HETATM   24  C   UNL     1     -11.801   0.617 -33.648  1.00  0.00     0.048 C 
HETATM   25  C   UNL     1      -9.973   2.334 -33.500  1.00  0.00     0.009 A 
HETATM   26  C   UNL     1      -8.710   2.751 -33.071  1.00  0.00     0.030 A 
ENDBRANCH  17  20
ENDBRANCH  15  16
ENDBRANCH   1  15
TORSDOF 3
ENDMDL
