MODEL 1
REMARK VINA RESULT:     -10.7      0.000      0.000
REMARK  7 active torsions:
REMARK  status: ('A' for Active; 'I' for Inactive)
REMARK    1  A    between atoms: C_2  and  C_3 
REMARK    2  A    between atoms: C_6  and  C_7 
REMARK    3  A    between atoms: C_10  and  C_11 
REMARK       I    between atoms: C_11  and  N_12 
REMARK    4  A    between atoms: N_12  and  C_13 
REMARK    5  A    between atoms: C_25  and  C_26 
REMARK       I    between atoms: C_26  and  N_27 
REMARK    6  A    between atoms: N_27  and  C_28 
REMARK    7  A    between atoms: C_31  and  O_32 
ROOT
HETATM    1  C   UNL     1      -4.762   2.746 -32.415  1.00  0.00     0.185 C 
HETATM    2  N   UNL     1      -3.628   3.665 -32.207  1.00  0.00    -0.239 N 
HETATM    3  C   UNL     1      -3.583   4.621 -31.219  1.00  0.00     0.142 C 
HETATM    4  C   UNL     1      -2.372   5.268 -31.370  1.00  0.00     0.097 C 
HETATM    5  C   UNL     1      -1.844   4.719 -32.567  1.00  0.00     0.160 C 
HETATM    6  N   UNL     1      -2.620   3.769 -33.100  1.00  0.00    -0.181 NA
HETATM    7  N   UNL     1      -4.647   4.768 -30.390  1.00  0.00    -0.343 N 
HETATM    8  C   UNL     1      -5.842   4.066 -30.570  1.00  0.00     0.021 C 
HETATM    9  C   UNL     1      -6.983   4.467 -29.664  1.00  0.00     0.069 C 
HETATM   10  C   UNL     1      -5.939   3.111 -31.528  1.00  0.00     0.061 C 
HETATM   11  H   UNL     1      -4.727   5.587 -29.787  1.00  0.00     0.167 HD
ENDROOT
BRANCH  10  12
HETATM   12  C   UNL     1      -7.190   2.320 -31.693  1.00  0.00     0.256 C 
HETATM   13  N   UNL     1      -7.953   2.731 -32.767  1.00  0.00    -0.323 N 
HETATM   14  H   UNL     1      -7.627   3.521 -33.304  1.00  0.00     0.169 HD
HETATM   15  O   UNL     1      -7.446   1.424 -30.898  1.00  0.00    -0.267 OA
BRANCH  13  16
HETATM   16  C   UNL     1      -9.188   2.195 -33.190  1.00  0.00     0.035 A 
HETATM   17  C   UNL     1      -9.645   0.920 -32.860  1.00  0.00     0.032 A 
HETATM   18  C   UNL     1     -10.901   0.483 -33.300  1.00  0.00     0.039 A 
HETATM   19  C   UNL     1     -11.717   1.310 -34.072  1.00  0.00     0.068 A 
HETATM   20  C   UNL     1     -11.255   2.573 -34.430  1.00  0.00     0.039 A 
HETATM   21  C   UNL     1      -9.999   3.012 -33.987  1.00  0.00     0.032 A 
BRANCH  19  22
HETATM   22  O   UNL     1     -12.924   0.771 -34.419  1.00  0.00    -0.356 OA
HETATM   23  C   UNL     1     -13.359  -0.352 -33.662  1.00  0.00     0.210 C 
ENDBRANCH  19  22
ENDBRANCH  13  16
ENDBRANCH  10  12
BRANCH   1  24
HETATM   24  C   UNL     1      -4.295   1.300 -32.281  1.00  0.00    -0.029 A 
HETATM   25  C   UNL     1      -3.381   0.895 -31.295  1.00  0.00     0.010 A 
HETATM   26  C   UNL     1      -2.979  -0.439 -31.201  1.00  0.00     0.007 A 
HETATM   27  C   UNL     1      -3.460  -1.395 -32.102  1.00  0.00    -0.059 A 
HETATM   28  C   UNL     1      -4.358  -0.995 -33.097  1.00  0.00     0.007 A 
HETATM   29  C   UNL     1      -4.767   0.337 -33.188  1.00  0.00     0.010 A 
BRANCH  27  30
HETATM   30  C   UNL     1      -3.039  -2.838 -31.989  1.00  0.00     0.034 C 
HETATM   31  C   UNL     1      -3.618  -3.684 -33.112  1.00  0.00     0.010 C 
ENDBRANCH  27  30
ENDBRANCH   1  24
BRANCH   4  32
HETATM   32  C   UNL     1      -1.767   6.314 -30.566  1.00  0.00     0.261 C 
HETATM   33  N   UNL     1      -0.847   5.840 -29.648  1.00  0.00    -0.323 N 
HETATM   34  H   UNL     1      -0.613   4.857 -29.728  1.00  0.00     0.169 HD
HETATM   35  O   UNL     1      -2.053   7.489 -30.761  1.00  0.00    -0.267 OA
BRANCH  33  36
HETATM   36  C   UNL     1      -0.106   6.585 -28.709  1.00  0.00     0.035 A 
HETATM   37  C   UNL     1       0.727   7.654 -29.041  1.00  0.00     0.029 A 
HETATM   38  C   UNL     1       1.431   8.342 -28.048  1.00  0.00     0.002 A 
HETATM   39  C   UNL     1       1.305   7.970 -26.711  1.00  0.00     0.000 A 
HETATM   40  C   UNL     1       0.471   6.909 -26.368  1.00  0.00     0.002 A 
HETATM   41  C   UNL     1      -0.232   6.222 -27.360  1.00  0.00     0.029 A 
ENDBRANCH  33  36
ENDBRANCH   4  32
TORSDOF 7
ENDMDL
MODEL 2
REMARK VINA RESULT:     -10.7      2.181      2.934
REMARK  7 active torsions:
REMARK  status: ('A' for Active; 'I' for Inactive)
REMARK    1  A    between atoms: C_2  and  C_3 
REMARK    2  A    between atoms: C_6  and  C_7 
REMARK    3  A    between atoms: C_10  and  C_11 
REMARK       I    between atoms: C_11  and  N_12 
REMARK    4  A    between atoms: N_12  and  C_13 
REMARK    5  A    between atoms: C_25  and  C_26 
REMARK       I    between atoms: C_26  and  N_27 
REMARK    6  A    between atoms: N_27  and  C_28 
REMARK    7  A    between atoms: C_31  and  O_32 
ROOT
HETATM    1  C   UNL     1      -6.990   3.284 -33.653  1.00  0.00     0.185 C 
HETATM    2  N   UNL     1      -5.775   4.110 -33.775  1.00  0.00    -0.239 N 
HETATM    3  C   UNL     1      -5.260   4.878 -32.756  1.00  0.00     0.142 C 
HETATM    4  C   UNL     1      -4.138   5.495 -33.273  1.00  0.00     0.097 C 
HETATM    5  C   UNL     1      -4.164   5.144 -34.648  1.00  0.00     0.160 C 
HETATM    6  N   UNL     1      -5.177   4.331 -34.966  1.00  0.00    -0.181 NA
HETATM    7  N   UNL     1      -5.909   4.918 -31.565  1.00  0.00    -0.343 N 
HETATM    8  C   UNL     1      -7.147   4.303 -31.362  1.00  0.00     0.021 C 
HETATM    9  C   UNL     1      -7.810   4.582 -30.033  1.00  0.00     0.069 C 
HETATM   10  C   UNL     1      -7.698   3.534 -32.333  1.00  0.00     0.061 C 
HETATM   11  H   UNL     1      -5.670   5.622 -30.866  1.00  0.00     0.167 HD
ENDROOT
BRANCH  10  12
HETATM   12  C   UNL     1      -8.991   2.830 -32.108  1.00  0.00     0.256 C 
HETATM   13  N   UNL     1     -10.007   3.292 -32.919  1.00  0.00    -0.323 N 
HETATM   14  H   UNL     1      -9.802   4.058 -33.545  1.00  0.00     0.169 HD
HETATM   15  O   UNL     1      -9.060   1.954 -31.255  1.00  0.00    -0.267 OA
BRANCH  13  16
HETATM   16  C   UNL     1     -11.345   2.842 -32.951  1.00  0.00     0.035 A 
HETATM   17  C   UNL     1     -12.417   3.528 -32.382  1.00  0.00     0.032 A 
HETATM   18  C   UNL     1     -13.718   3.021 -32.491  1.00  0.00     0.039 A 
HETATM   19  C   UNL     1     -13.967   1.828 -33.168  1.00  0.00     0.068 A 
HETATM   20  C   UNL     1     -12.897   1.122 -33.713  1.00  0.00     0.039 A 
HETATM   21  C   UNL     1     -11.596   1.631 -33.607  1.00  0.00     0.032 A 
BRANCH  19  22
HETATM   22  O   UNL     1     -15.281   1.454 -33.218  1.00  0.00    -0.356 OA
HETATM   23  C   UNL     1     -16.187   2.212 -32.426  1.00  0.00     0.210 C 
ENDBRANCH  19  22
ENDBRANCH  13  16
ENDBRANCH  10  12
BRANCH   1  24
HETATM   24  C   UNL     1      -6.657   1.821 -33.925  1.00  0.00    -0.029 A 
HETATM   25  C   UNL     1      -7.293   1.082 -34.935  1.00  0.00     0.010 A 
HETATM   26  C   UNL     1      -6.960  -0.256 -35.157  1.00  0.00     0.007 A 
HETATM   27  C   UNL     1      -6.001  -0.895 -34.363  1.00  0.00    -0.059 A 
HETATM   28  C   UNL     1      -5.375  -0.169 -33.344  1.00  0.00     0.007 A 
HETATM   29  C   UNL     1      -5.702   1.172 -33.125  1.00  0.00     0.010 A 
BRANCH  27  30
HETATM   30  C   UNL     1      -5.629  -2.333 -34.614  1.00  0.00     0.034 C 
HETATM   31  C   UNL     1      -6.855  -3.232 -34.665  1.00  0.00     0.010 C 
ENDBRANCH  27  30
ENDBRANCH   1  24
BRANCH   4  32
HETATM   32  C   UNL     1      -3.170   6.363 -32.627  1.00  0.00     0.261 C 
HETATM   33  N   UNL     1      -2.612   5.812 -31.488  1.00  0.00    -0.323 N 
HETATM   34  H   UNL     1      -2.843   4.842 -31.311  1.00  0.00     0.169 HD
HETATM   35  O   UNL     1      -2.885   7.448 -33.119  1.00  0.00    -0.267 OA
BRANCH  33  36
HETATM   36  C   UNL     1      -1.666   6.398 -30.623  1.00  0.00     0.035 A 
HETATM   37  C   UNL     1      -1.993   7.047 -29.432  1.00  0.00     0.029 A 
HETATM   38  C   UNL     1      -0.992   7.606 -28.629  1.00  0.00     0.002 A 
HETATM   39  C   UNL     1       0.345   7.513 -29.008  1.00  0.00     0.000 A 
HETATM   40  C   UNL     1       0.682   6.861 -30.190  1.00  0.00     0.002 A 
HETATM   41  C   UNL     1      -0.317   6.305 -30.993  1.00  0.00     0.029 A 
ENDBRANCH  33  36
ENDBRANCH   4  32
TORSDOF 7
ENDMDL
MODEL 3
REMARK VINA RESULT:     -10.0      2.289      2.855
REMARK  7 active torsions:
REMARK  status: ('A' for Active; 'I' for Inactive)
REMARK    1  A    between atoms: C_2  and  C_3 
REMARK    2  A    between atoms: C_6  and  C_7 
REMARK    3  A    between atoms: C_10  and  C_11 
REMARK       I    between atoms: C_11  and  N_12 
REMARK    4  A    between atoms: N_12  and  C_13 
REMARK    5  A    between atoms: C_25  and  C_26 
REMARK       I    between atoms: C_26  and  N_27 
REMARK    6  A    between atoms: N_27  and  C_28 
REMARK    7  A    between atoms: C_31  and  O_32 
ROOT
HETATM    1  C   UNL     1      -5.944   4.630 -34.237  1.00  0.00     0.185 C 
HETATM    2  N   UNL     1      -4.616   5.188 -33.927  1.00  0.00    -0.239 N 
HETATM    3  C   UNL     1      -4.393   6.178 -32.998  1.00  0.00     0.142 C 
HETATM    4  C   UNL     1      -3.033   6.420 -33.017  1.00  0.00     0.097 C 
HETATM    5  C   UNL     1      -2.565   5.628 -34.097  1.00  0.00     0.160 C 
HETATM    6  N   UNL     1      -3.528   4.903 -34.677  1.00  0.00    -0.181 NA
HETATM    7  N   UNL     1      -5.449   6.712 -32.334  1.00  0.00    -0.343 N 
HETATM    8  C   UNL     1      -6.772   6.381 -32.637  1.00  0.00     0.021 C 
HETATM    9  C   UNL     1      -7.832   7.186 -31.921  1.00  0.00     0.069 C 
HETATM   10  C   UNL     1      -7.047   5.411 -33.543  1.00  0.00     0.061 C 
HETATM   11  H   UNL     1      -5.344   7.572 -31.796  1.00  0.00     0.167 HD
ENDROOT
BRANCH  10  12
HETATM   12  C   UNL     1      -8.452   5.012 -33.835  1.00  0.00     0.256 C 
HETATM   13  N   UNL     1      -8.929   4.044 -32.976  1.00  0.00    -0.323 N 
HETATM   14  H   UNL     1      -8.300   3.681 -32.274  1.00  0.00     0.169 HD
HETATM   15  O   UNL     1      -9.043   5.530 -34.774  1.00  0.00    -0.267 OA
BRANCH  13  16
HETATM   16  C   UNL     1     -10.211   3.452 -32.985  1.00  0.00     0.035 A 
HETATM   17  C   UNL     1     -11.358   4.057 -32.474  1.00  0.00     0.032 A 
HETATM   18  C   UNL     1     -12.596   3.406 -32.555  1.00  0.00     0.039 A 
HETATM   19  C   UNL     1     -12.706   2.147 -33.146  1.00  0.00     0.068 A 
HETATM   20  C   UNL     1     -11.559   1.525 -33.631  1.00  0.00     0.039 A 
HETATM   21  C   UNL     1     -10.321   2.177 -33.554  1.00  0.00     0.032 A 
BRANCH  19  22
HETATM   22  O   UNL     1     -13.971   1.632 -33.179  1.00  0.00    -0.356 OA
HETATM   23  C   UNL     1     -14.141   0.409 -33.884  1.00  0.00     0.210 C 
ENDBRANCH  19  22
ENDBRANCH  13  16
ENDBRANCH  10  12
BRANCH   1  24
HETATM   24  C   UNL     1      -5.960   3.130 -33.958  1.00  0.00    -0.029 A 
HETATM   25  C   UNL     1      -6.605   2.217 -34.807  1.00  0.00     0.010 A 
HETATM   26  C   UNL     1      -6.596   0.850 -34.521  1.00  0.00     0.007 A 
HETATM   27  C   UNL     1      -5.963   0.365 -33.371  1.00  0.00    -0.059 A 
HETATM   28  C   UNL     1      -5.332   1.272 -32.513  1.00  0.00     0.007 A 
HETATM   29  C   UNL     1      -5.334   2.639 -32.801  1.00  0.00     0.010 A 
BRANCH  27  30
HETATM   30  C   UNL     1      -5.938  -1.112 -33.072  1.00  0.00     0.034 C 
HETATM   31  C   UNL     1      -6.229  -1.943 -34.312  1.00  0.00     0.010 C 
ENDBRANCH  27  30
ENDBRANCH   1  24
BRANCH   4  32
HETATM   32  C   UNL     1      -2.234   7.313 -32.198  1.00  0.00     0.261 C 
HETATM   33  N   UNL     1      -1.880   6.769 -30.976  1.00  0.00    -0.323 N 
HETATM   34  H   UNL     1      -2.105   5.789 -30.850  1.00  0.00     0.169 HD
HETATM   35  O   UNL     1      -1.900   8.412 -32.623  1.00  0.00    -0.267 OA
BRANCH  33  36
HETATM   36  C   UNL     1      -1.133   7.377 -29.948  1.00  0.00     0.035 A 
HETATM   37  C   UNL     1       0.225   7.143 -29.726  1.00  0.00     0.029 A 
HETATM   38  C   UNL     1       0.895   7.786 -28.679  1.00  0.00     0.002 A 
HETATM   39  C   UNL     1       0.214   8.673 -27.849  1.00  0.00     0.000 A 
HETATM   40  C   UNL     1      -1.139   8.919 -28.067  1.00  0.00     0.002 A 
HETATM   41  C   UNL     1      -1.808   8.276 -29.111  1.00  0.00     0.029 A 
ENDBRANCH  33  36
ENDBRANCH   4  32
TORSDOF 7
ENDMDL
MODEL 4
REMARK VINA RESULT:      -9.7      2.066      2.595
REMARK  7 active torsions:
REMARK  status: ('A' for Active; 'I' for Inactive)
REMARK    1  A    between atoms: C_2  and  C_3 
REMARK    2  A    between atoms: C_6  and  C_7 
REMARK    3  A    between atoms: C_10  and  C_11 
REMARK       I    between atoms: C_11  and  N_12 
REMARK    4  A    between atoms: N_12  and  C_13 
REMARK    5  A    between atoms: C_25  and  C_26 
REMARK       I    between atoms: C_26  and  N_27 
REMARK    6  A    between atoms: N_27  and  C_28 
REMARK    7  A    between atoms: C_31  and  O_32 
ROOT
HETATM    1  C   UNL     1      -5.402   3.888 -32.613  1.00  0.00     0.185 C 
HETATM    2  N   UNL     1      -3.966   4.192 -32.483  1.00  0.00    -0.239 N 
HETATM    3  C   UNL     1      -3.367   4.596 -31.312  1.00  0.00     0.142 C 
HETATM    4  C   UNL     1      -2.032   4.783 -31.611  1.00  0.00     0.097 C 
HETATM    5  C   UNL     1      -1.975   4.609 -33.019  1.00  0.00     0.160 C 
HETATM    6  N   UNL     1      -3.154   4.283 -33.559  1.00  0.00    -0.181 NA
HETATM    7  N   UNL     1      -4.129   4.762 -30.202  1.00  0.00    -0.343 N 
HETATM    8  C   UNL     1      -5.522   4.653 -30.224  1.00  0.00     0.021 C 
HETATM    9  C   UNL     1      -6.231   5.031 -28.944  1.00  0.00     0.069 C 
HETATM   10  C   UNL     1      -6.162   4.256 -31.351  1.00  0.00     0.061 C 
HETATM   11  H   UNL     1      -3.758   5.247 -29.384  1.00  0.00     0.167 HD
ENDROOT
BRANCH  10  12
HETATM   12  C   UNL     1      -7.641   4.084 -31.370  1.00  0.00     0.256 C 
HETATM   13  N   UNL     1      -8.269   4.900 -32.288  1.00  0.00    -0.323 N 
HETATM   14  H   UNL     1      -7.698   5.540 -32.822  1.00  0.00     0.169 HD
HETATM   15  O   UNL     1      -8.166   3.290 -30.599  1.00  0.00    -0.267 OA
BRANCH  13  16
HETATM   16  C   UNL     1      -9.654   4.983 -32.549  1.00  0.00     0.035 A 
HETATM   17  C   UNL     1     -10.560   5.690 -31.760  1.00  0.00     0.032 A 
HETATM   18  C   UNL     1     -11.914   5.744 -32.114  1.00  0.00     0.039 A 
HETATM   19  C   UNL     1     -12.381   5.097 -33.258  1.00  0.00     0.068 A 
HETATM   20  C   UNL     1     -11.487   4.365 -34.035  1.00  0.00     0.039 A 
HETATM   21  C   UNL     1     -10.131   4.313 -33.683  1.00  0.00     0.032 A 
BRANCH  19  22
HETATM   22  O   UNL     1     -13.718   5.244 -33.501  1.00  0.00    -0.356 OA
HETATM   23  C   UNL     1     -14.588   5.074 -32.389  1.00  0.00     0.210 C 
ENDBRANCH  19  22
ENDBRANCH  13  16
ENDBRANCH  10  12
BRANCH   1  24
HETATM   24  C   UNL     1      -5.593   2.444 -33.067  1.00  0.00    -0.029 A 
HETATM   25  C   UNL     1      -6.414   2.101 -34.152  1.00  0.00     0.010 A 
HETATM   26  C   UNL     1      -6.562   0.768 -34.541  1.00  0.00     0.007 A 
HETATM   27  C   UNL     1      -5.913  -0.256 -33.842  1.00  0.00    -0.059 A 
HETATM   28  C   UNL     1      -5.105   0.077 -32.750  1.00  0.00     0.007 A 
HETATM   29  C   UNL     1      -4.950   1.411 -32.364  1.00  0.00     0.010 A 
BRANCH  27  30
HETATM   30  C   UNL     1      -6.059  -1.693 -34.273  1.00  0.00     0.034 C 
HETATM   31  C   UNL     1      -4.731  -2.432 -34.231  1.00  0.00     0.010 C 
ENDBRANCH  27  30
ENDBRANCH   1  24
BRANCH   4  32
HETATM   32  C   UNL     1      -0.923   5.143 -30.746  1.00  0.00     0.261 C 
HETATM   33  N   UNL     1      -1.236   6.139 -29.838  1.00  0.00    -0.323 N 
HETATM   34  H   UNL     1      -2.213   6.405 -29.797  1.00  0.00     0.169 HD
HETATM   35  O   UNL     1       0.147   4.553 -30.831  1.00  0.00    -0.267 OA
BRANCH  33  36
HETATM   36  C   UNL     1      -0.386   6.727 -28.880  1.00  0.00     0.035 A 
HETATM   37  C   UNL     1       0.517   7.753 -29.162  1.00  0.00     0.029 A 
HETATM   38  C   UNL     1       1.328   8.284 -28.153  1.00  0.00     0.002 A 
HETATM   39  C   UNL     1       1.239   7.796 -26.852  1.00  0.00     0.000 A 
HETATM   40  C   UNL     1       0.336   6.778 -26.558  1.00  0.00     0.002 A 
HETATM   41  C   UNL     1      -0.473   6.248 -27.565  1.00  0.00     0.029 A 
ENDBRANCH  33  36
ENDBRANCH   4  32
TORSDOF 7
ENDMDL
MODEL 5
REMARK VINA RESULT:      -9.4      2.303      5.240
REMARK  7 active torsions:
REMARK  status: ('A' for Active; 'I' for Inactive)
REMARK    1  A    between atoms: C_2  and  C_3 
REMARK    2  A    between atoms: C_6  and  C_7 
REMARK    3  A    between atoms: C_10  and  C_11 
REMARK       I    between atoms: C_11  and  N_12 
REMARK    4  A    between atoms: N_12  and  C_13 
REMARK    5  A    between atoms: C_25  and  C_26 
REMARK       I    between atoms: C_26  and  N_27 
REMARK    6  A    between atoms: N_27  and  C_28 
REMARK    7  A    between atoms: C_31  and  O_32 
ROOT
HETATM    1  C   UNL     1      -6.790   3.210 -30.588  1.00  0.00     0.185 C 
HETATM    2  N   UNL     1      -6.361   4.534 -30.105  1.00  0.00    -0.239 N 
HETATM    3  C   UNL     1      -5.057   4.973 -30.115  1.00  0.00     0.142 C 
HETATM    4  C   UNL     1      -5.078   6.245 -29.577  1.00  0.00     0.097 C 
HETATM    5  C   UNL     1      -6.420   6.405 -29.144  1.00  0.00     0.160 C 
HETATM    6  N   UNL     1      -7.196   5.354 -29.431  1.00  0.00    -0.181 NA
HETATM    7  N   UNL     1      -4.083   4.141 -30.564  1.00  0.00    -0.343 N 
HETATM    8  C   UNL     1      -4.331   2.811 -30.910  1.00  0.00     0.021 C 
HETATM    9  C   UNL     1      -3.112   1.977 -31.229  1.00  0.00     0.069 C 
HETATM   10  C   UNL     1      -5.598   2.329 -30.919  1.00  0.00     0.061 C 
HETATM   11  H   UNL     1      -3.099   4.357 -30.398  1.00  0.00     0.167 HD
ENDROOT
BRANCH  10  12
HETATM   12  C   UNL     1      -5.879   0.928 -31.338  1.00  0.00     0.256 C 
HETATM   13  N   UNL     1      -5.536   0.675 -32.650  1.00  0.00    -0.323 N 
HETATM   14  H   UNL     1      -5.169   1.440 -33.199  1.00  0.00     0.169 HD
HETATM   15  O   UNL     1      -6.385   0.150 -30.539  1.00  0.00    -0.267 OA
BRANCH  13  16
HETATM   16  C   UNL     1      -5.678  -0.542 -33.351  1.00  0.00     0.035 A 
HETATM   17  C   UNL     1      -4.648  -1.462 -33.542  1.00  0.00     0.032 A 
HETATM   18  C   UNL     1      -4.889  -2.661 -34.225  1.00  0.00     0.039 A 
HETATM   19  C   UNL     1      -6.158  -2.959 -34.722  1.00  0.00     0.068 A 
HETATM   20  C   UNL     1      -7.183  -2.032 -34.560  1.00  0.00     0.039 A 
HETATM   21  C   UNL     1      -6.944  -0.833 -33.875  1.00  0.00     0.032 A 
BRANCH  19  22
HETATM   22  O   UNL     1      -6.264  -4.169 -35.350  1.00  0.00    -0.356 OA
HETATM   23  C   UNL     1      -5.390  -5.196 -34.899  1.00  0.00     0.210 C 
ENDBRANCH  19  22
ENDBRANCH  13  16
ENDBRANCH  10  12
BRANCH   1  24
HETATM   24  C   UNL     1      -7.794   3.367 -31.726  1.00  0.00    -0.029 A 
HETATM   25  C   UNL     1      -7.499   4.093 -32.891  1.00  0.00     0.010 A 
HETATM   26  C   UNL     1      -8.443   4.214 -33.914  1.00  0.00     0.007 A 
HETATM   27  C   UNL     1      -9.710   3.633 -33.788  1.00  0.00    -0.059 A 
HETATM   28  C   UNL     1     -10.015   2.921 -32.623  1.00  0.00     0.007 A 
HETATM   29  C   UNL     1      -9.071   2.794 -31.603  1.00  0.00     0.010 A 
BRANCH  27  30
HETATM   30  C   UNL     1     -10.721   3.748 -34.900  1.00  0.00     0.034 C 
HETATM   31  C   UNL     1     -11.994   2.977 -34.586  1.00  0.00     0.010 C 
ENDBRANCH  27  30
ENDBRANCH   1  24
BRANCH   4  32
HETATM   32  C   UNL     1      -4.001   7.203 -29.407  1.00  0.00     0.261 C 
HETATM   33  N   UNL     1      -2.883   6.670 -28.791  1.00  0.00    -0.323 N 
HETATM   34  H   UNL     1      -2.897   5.667 -28.649  1.00  0.00     0.169 HD
HETATM   35  O   UNL     1      -4.117   8.347 -29.831  1.00  0.00    -0.267 OA
BRANCH  33  36
HETATM   36  C   UNL     1      -1.685   7.334 -28.460  1.00  0.00     0.035 A 
HETATM   37  C   UNL     1      -1.574   8.289 -27.449  1.00  0.00     0.029 A 
HETATM   38  C   UNL     1      -0.346   8.905 -27.183  1.00  0.00     0.002 A 
HETATM   39  C   UNL     1       0.784   8.565 -27.924  1.00  0.00     0.000 A 
HETATM   40  C   UNL     1       0.686   7.607 -28.929  1.00  0.00     0.002 A 
HETATM   41  C   UNL     1      -0.541   6.994 -29.195  1.00  0.00     0.029 A 
ENDBRANCH  33  36
ENDBRANCH   4  32
TORSDOF 7
ENDMDL
MODEL 6
REMARK VINA RESULT:      -9.3      4.199     10.050
REMARK  7 active torsions:
REMARK  status: ('A' for Active; 'I' for Inactive)
REMARK    1  A    between atoms: C_2  and  C_3 
REMARK    2  A    between atoms: C_6  and  C_7 
REMARK    3  A    between atoms: C_10  and  C_11 
REMARK       I    between atoms: C_11  and  N_12 
REMARK    4  A    between atoms: N_12  and  C_13 
REMARK    5  A    between atoms: C_25  and  C_26 
REMARK       I    between atoms: C_26  and  N_27 
REMARK    6  A    between atoms: N_27  and  C_28 
REMARK    7  A    between atoms: C_31  and  O_32 
ROOT
HETATM    1  C   UNL     1      -8.859   3.053 -33.877  1.00  0.00     0.185 C 
HETATM    2  N   UNL     1     -10.006   3.813 -33.351  1.00  0.00    -0.239 N 
HETATM    3  C   UNL     1     -11.075   3.243 -32.698  1.00  0.00     0.142 C 
HETATM    4  C   UNL     1     -11.926   4.282 -32.379  1.00  0.00     0.097 C 
HETATM    5  C   UNL     1     -11.340   5.406 -33.019  1.00  0.00     0.160 C 
HETATM    6  N   UNL     1     -10.192   5.119 -33.641  1.00  0.00    -0.181 NA
HETATM    7  N   UNL     1     -11.113   1.895 -32.544  1.00  0.00    -0.343 N 
HETATM    8  C   UNL     1     -10.167   1.045 -33.123  1.00  0.00     0.021 C 
HETATM    9  C   UNL     1     -10.448  -0.434 -32.995  1.00  0.00     0.069 C 
HETATM   10  C   UNL     1      -9.094   1.555 -33.775  1.00  0.00     0.061 C 
HETATM   11  H   UNL     1     -11.972   1.430 -32.249  1.00  0.00     0.167 HD
ENDROOT
BRANCH  10  12
HETATM   12  C   UNL     1      -8.052   0.660 -34.350  1.00  0.00     0.256 C 
HETATM   13  N   UNL     1      -7.465  -0.162 -33.410  1.00  0.00    -0.323 N 
HETATM   14  H   UNL     1      -7.758  -0.065 -32.448  1.00  0.00     0.169 HD
HETATM   15  O   UNL     1      -7.793   0.727 -35.545  1.00  0.00    -0.267 OA
BRANCH  13  16
HETATM   16  C   UNL     1      -6.448  -1.116 -33.626  1.00  0.00     0.035 A 
HETATM   17  C   UNL     1      -5.158  -1.018 -33.108  1.00  0.00     0.032 A 
HETATM   18  C   UNL     1      -4.220  -2.031 -33.349  1.00  0.00     0.039 A 
HETATM   19  C   UNL     1      -4.557  -3.153 -34.106  1.00  0.00     0.068 A 
HETATM   20  C   UNL     1      -5.835  -3.243 -34.651  1.00  0.00     0.039 A 
HETATM   21  C   UNL     1      -6.774  -2.231 -34.408  1.00  0.00     0.032 A 
BRANCH  19  22
HETATM   22  O   UNL     1      -3.559  -4.075 -34.249  1.00  0.00    -0.356 OA
HETATM   23  C   UNL     1      -3.686  -5.271 -33.489  1.00  0.00     0.210 C 
ENDBRANCH  19  22
ENDBRANCH  13  16
ENDBRANCH  10  12
BRANCH   1  24
HETATM   24  C   UNL     1      -7.567   3.535 -33.224  1.00  0.00    -0.029 A 
HETATM   25  C   UNL     1      -6.538   4.144 -33.958  1.00  0.00     0.010 A 
HETATM   26  C   UNL     1      -5.370   4.576 -33.325  1.00  0.00     0.007 A 
HETATM   27  C   UNL     1      -5.192   4.389 -31.950  1.00  0.00    -0.059 A 
HETATM   28  C   UNL     1      -6.208   3.768 -31.215  1.00  0.00     0.007 A 
HETATM   29  C   UNL     1      -7.379   3.342 -31.845  1.00  0.00     0.010 A 
BRANCH  27  30
HETATM   30  C   UNL     1      -3.940   4.871 -31.264  1.00  0.00     0.034 C 
HETATM   31  C   UNL     1      -2.708   4.125 -31.751  1.00  0.00     0.010 C 
ENDBRANCH  27  30
ENDBRANCH   1  24
BRANCH   4  32
HETATM   32  C   UNL     1     -13.170   4.273 -31.631  1.00  0.00     0.261 C 
HETATM   33  N   UNL     1     -14.293   4.171 -32.433  1.00  0.00    -0.323 N 
HETATM   34  H   UNL     1     -14.116   3.991 -33.415  1.00  0.00     0.169 HD
HETATM   35  O   UNL     1     -13.158   4.308 -30.407  1.00  0.00    -0.267 OA
BRANCH  33  36
HETATM   36  C   UNL     1     -15.642   4.158 -32.028  1.00  0.00     0.035 A 
HETATM   37  C   UNL     1     -16.330   5.282 -31.567  1.00  0.00     0.029 A 
HETATM   38  C   UNL     1     -17.671   5.185 -31.180  1.00  0.00     0.002 A 
HETATM   39  C   UNL     1     -18.337   3.964 -31.257  1.00  0.00     0.000 A 
HETATM   40  C   UNL     1     -17.663   2.839 -31.722  1.00  0.00     0.002 A 
HETATM   41  C   UNL     1     -16.323   2.936 -32.107  1.00  0.00     0.029 A 
ENDBRANCH  33  36
ENDBRANCH   4  32
TORSDOF 7
ENDMDL
MODEL 7
REMARK VINA RESULT:      -8.9      2.990     10.087
REMARK  7 active torsions:
REMARK  status: ('A' for Active; 'I' for Inactive)
REMARK    1  A    between atoms: C_2  and  C_3 
REMARK    2  A    between atoms: C_6  and  C_7 
REMARK    3  A    between atoms: C_10  and  C_11 
REMARK       I    between atoms: C_11  and  N_12 
REMARK    4  A    between atoms: N_12  and  C_13 
REMARK    5  A    between atoms: C_25  and  C_26 
REMARK       I    between atoms: C_26  and  N_27 
REMARK    6  A    between atoms: N_27  and  C_28 
REMARK    7  A    between atoms: C_31  and  O_32 
ROOT
HETATM    1  C   UNL     1      -5.997   4.884 -32.901  1.00  0.00     0.185 C 
HETATM    2  N   UNL     1      -6.450   3.495 -33.096  1.00  0.00    -0.239 N 
HETATM    3  C   UNL     1      -5.701   2.387 -32.774  1.00  0.00     0.142 C 
HETATM    4  C   UNL     1      -6.471   1.293 -33.116  1.00  0.00     0.097 C 
HETATM    5  C   UNL     1      -7.595   1.863 -33.770  1.00  0.00     0.160 C 
HETATM    6  N   UNL     1      -7.570   3.200 -33.792  1.00  0.00    -0.181 NA
HETATM    7  N   UNL     1      -4.452   2.556 -32.272  1.00  0.00    -0.343 N 
HETATM    8  C   UNL     1      -3.844   3.811 -32.177  1.00  0.00     0.021 C 
HETATM    9  C   UNL     1      -2.393   3.808 -31.754  1.00  0.00     0.069 C 
HETATM   10  C   UNL     1      -4.538   4.935 -32.480  1.00  0.00     0.061 C 
HETATM   11  H   UNL     1      -3.804   1.770 -32.214  1.00  0.00     0.167 HD
ENDROOT
BRANCH  10  12
HETATM   12  C   UNL     1      -3.918   6.280 -32.330  1.00  0.00     0.256 C 
HETATM   13  N   UNL     1      -3.954   6.752 -31.034  1.00  0.00    -0.323 N 
HETATM   14  H   UNL     1      -4.409   6.182 -30.335  1.00  0.00     0.169 HD
HETATM   15  O   UNL     1      -3.463   6.847 -33.316  1.00  0.00    -0.267 OA
BRANCH  13  16
HETATM   16  C   UNL     1      -3.458   7.986 -30.561  1.00  0.00     0.035 A 
HETATM   17  C   UNL     1      -4.058   9.220 -30.811  1.00  0.00     0.032 A 
HETATM   18  C   UNL     1      -3.512  10.393 -30.273  1.00  0.00     0.039 A 
HETATM   19  C   UNL     1      -2.366  10.351 -29.479  1.00  0.00     0.068 A 
HETATM   20  C   UNL     1      -1.746   9.125 -29.250  1.00  0.00     0.039 A 
HETATM   21  C   UNL     1      -2.293   7.951 -29.785  1.00  0.00     0.032 A 
BRANCH  19  22
HETATM   22  O   UNL     1      -1.949  11.561 -29.001  1.00  0.00    -0.356 OA
HETATM   23  C   UNL     1      -1.451  11.580 -27.669  1.00  0.00     0.210 C 
ENDBRANCH  19  22
ENDBRANCH  13  16
ENDBRANCH  10  12
BRANCH   1  24
HETATM   24  C   UNL     1      -6.951   5.620 -31.966  1.00  0.00    -0.029 A 
HETATM   25  C   UNL     1      -7.606   6.802 -32.342  1.00  0.00     0.010 A 
HETATM   26  C   UNL     1      -8.476   7.448 -31.460  1.00  0.00     0.007 A 
HETATM   27  C   UNL     1      -8.694   6.940 -30.174  1.00  0.00    -0.059 A 
HETATM   28  C   UNL     1      -8.031   5.771 -29.787  1.00  0.00     0.007 A 
HETATM   29  C   UNL     1      -7.167   5.120 -30.671  1.00  0.00     0.010 A 
BRANCH  27  30
HETATM   30  C   UNL     1      -9.646   7.627 -29.228  1.00  0.00     0.034 C 
HETATM   31  C   UNL     1      -9.214   7.467 -27.779  1.00  0.00     0.010 C 
ENDBRANCH  27  30
ENDBRANCH   1  24
BRANCH   4  32
HETATM   32  C   UNL     1      -6.211  -0.124 -32.936  1.00  0.00     0.261 C 
HETATM   33  N   UNL     1      -5.978  -0.795 -34.123  1.00  0.00    -0.323 N 
HETATM   34  H   UNL     1      -5.891  -0.211 -34.947  1.00  0.00     0.169 HD
HETATM   35  O   UNL     1      -6.170  -0.609 -31.812  1.00  0.00    -0.267 OA
BRANCH  33  36
HETATM   36  C   UNL     1      -5.718  -2.168 -34.299  1.00  0.00     0.035 A 
HETATM   37  C   UNL     1      -4.481  -2.767 -34.056  1.00  0.00     0.029 A 
HETATM   38  C   UNL     1      -4.304  -4.140 -34.257  1.00  0.00     0.002 A 
HETATM   39  C   UNL     1      -5.365  -4.928 -34.698  1.00  0.00     0.000 A 
HETATM   40  C   UNL     1      -6.605  -4.342 -34.935  1.00  0.00     0.002 A 
HETATM   41  C   UNL     1      -6.781  -2.970 -34.736  1.00  0.00     0.029 A 
ENDBRANCH  33  36
ENDBRANCH   4  32
TORSDOF 7
ENDMDL
MODEL 8
REMARK VINA RESULT:      -8.9      2.114      2.687
REMARK  7 active torsions:
REMARK  status: ('A' for Active; 'I' for Inactive)
REMARK    1  A    between atoms: C_2  and  C_3 
REMARK    2  A    between atoms: C_6  and  C_7 
REMARK    3  A    between atoms: C_10  and  C_11 
REMARK       I    between atoms: C_11  and  N_12 
REMARK    4  A    between atoms: N_12  and  C_13 
REMARK    5  A    between atoms: C_25  and  C_26 
REMARK       I    between atoms: C_26  and  N_27 
REMARK    6  A    between atoms: N_27  and  C_28 
REMARK    7  A    between atoms: C_31  and  O_32 
ROOT
HETATM    1  C   UNL     1      -5.994   5.002 -32.645  1.00  0.00     0.185 C 
HETATM    2  N   UNL     1      -4.758   5.455 -31.983  1.00  0.00    -0.239 N 
HETATM    3  C   UNL     1      -4.730   6.147 -30.794  1.00  0.00     0.142 C 
HETATM    4  C   UNL     1      -3.397   6.388 -30.525  1.00  0.00     0.097 C 
HETATM    5  C   UNL     1      -2.730   5.930 -31.691  1.00  0.00     0.160 C 
HETATM    6  N   UNL     1      -3.556   5.394 -32.596  1.00  0.00    -0.181 NA
HETATM    7  N   UNL     1      -5.900   6.471 -30.189  1.00  0.00    -0.343 N 
HETATM    8  C   UNL     1      -7.143   6.234 -30.782  1.00  0.00     0.021 C 
HETATM    9  C   UNL     1      -8.338   6.805 -30.053  1.00  0.00     0.069 C 
HETATM   10  C   UNL     1      -7.228   5.555 -31.951  1.00  0.00     0.061 C 
HETATM   11  H   UNL     1      -5.921   7.147 -29.425  1.00  0.00     0.167 HD
ENDROOT
BRANCH  10  12
HETATM   12  C   UNL     1      -8.550   5.250 -32.565  1.00  0.00     0.256 C 
HETATM   13  N   UNL     1      -9.134   4.110 -32.053  1.00  0.00    -0.323 N 
HETATM   14  H   UNL     1      -8.620   3.584 -31.360  1.00  0.00     0.169 HD
HETATM   15  O   UNL     1      -8.990   5.981 -33.443  1.00  0.00    -0.267 OA
BRANCH  13  16
HETATM   16  C   UNL     1     -10.376   3.548 -32.421  1.00  0.00     0.035 A 
HETATM   17  C   UNL     1     -11.614   4.063 -32.038  1.00  0.00     0.032 A 
HETATM   18  C   UNL     1     -12.798   3.456 -32.477  1.00  0.00     0.039 A 
HETATM   19  C   UNL     1     -12.763   2.333 -33.303  1.00  0.00     0.068 A 
HETATM   20  C   UNL     1     -11.530   1.796 -33.665  1.00  0.00     0.039 A 
HETATM   21  C   UNL     1     -10.345   2.404 -33.228  1.00  0.00     0.032 A 
BRANCH  19  22
HETATM   22  O   UNL     1     -13.987   1.851 -33.676  1.00  0.00    -0.356 OA
HETATM   23  C   UNL     1     -14.157   0.440 -33.621  1.00  0.00     0.210 C 
ENDBRANCH  19  22
ENDBRANCH  13  16
ENDBRANCH  10  12
BRANCH   1  24
HETATM   24  C   UNL     1      -5.982   3.484 -32.796  1.00  0.00    -0.029 A 
HETATM   25  C   UNL     1      -5.656   2.628 -31.733  1.00  0.00     0.010 A 
HETATM   26  C   UNL     1      -5.658   1.242 -31.907  1.00  0.00     0.007 A 
HETATM   27  C   UNL     1      -5.962   0.679 -33.152  1.00  0.00    -0.059 A 
HETATM   28  C   UNL     1      -6.273   1.528 -34.219  1.00  0.00     0.007 A 
HETATM   29  C   UNL     1      -6.278   2.914 -34.045  1.00  0.00     0.010 A 
BRANCH  27  30
HETATM   30  C   UNL     1      -5.981  -0.816 -33.335  1.00  0.00     0.034 C 
HETATM   31  C   UNL     1      -7.210  -1.274 -34.105  1.00  0.00     0.010 C 
ENDBRANCH  27  30
ENDBRANCH   1  24
BRANCH   4  32
HETATM   32  C   UNL     1      -2.777   7.019 -29.374  1.00  0.00     0.261 C 
HETATM   33  N   UNL     1      -1.570   7.628 -29.664  1.00  0.00    -0.323 N 
HETATM   34  H   UNL     1      -1.326   7.673 -30.647  1.00  0.00     0.169 HD
HETATM   35  O   UNL     1      -3.342   7.016 -28.287  1.00  0.00    -0.267 OA
BRANCH  33  36
HETATM   36  C   UNL     1      -0.710   8.303 -28.775  1.00  0.00     0.035 A 
HETATM   37  C   UNL     1      -1.088   9.410 -28.013  1.00  0.00     0.029 A 
HETATM   38  C   UNL     1      -0.172  10.026 -27.153  1.00  0.00     0.002 A 
HETATM   39  C   UNL     1       1.128   9.537 -27.044  1.00  0.00     0.000 A 
HETATM   40  C   UNL     1       1.512   8.429 -27.794  1.00  0.00     0.002 A 
HETATM   41  C   UNL     1       0.598   7.815 -28.653  1.00  0.00     0.029 A 
ENDBRANCH  33  36
ENDBRANCH   4  32
TORSDOF 7
ENDMDL
MODEL 9
REMARK VINA RESULT:      -8.9      3.194      5.934
REMARK  7 active torsions:
REMARK  status: ('A' for Active; 'I' for Inactive)
REMARK    1  A    between atoms: C_2  and  C_3 
REMARK    2  A    between atoms: C_6  and  C_7 
REMARK    3  A    between atoms: C_10  and  C_11 
REMARK       I    between atoms: C_11  and  N_12 
REMARK    4  A    between atoms: N_12  and  C_13 
REMARK    5  A    between atoms: C_25  and  C_26 
REMARK       I    between atoms: C_26  and  N_27 
REMARK    6  A    between atoms: N_27  and  C_28 
REMARK    7  A    between atoms: C_31  and  O_32 
ROOT
HETATM    1  C   UNL     1      -7.471   3.060 -31.156  1.00  0.00     0.185 C 
HETATM    2  N   UNL     1      -7.520   4.510 -30.899  1.00  0.00    -0.239 N 
HETATM    3  C   UNL     1      -6.471   5.370 -31.129  1.00  0.00     0.142 C 
HETATM    4  C   UNL     1      -6.915   6.623 -30.754  1.00  0.00     0.097 C 
HETATM    5  C   UNL     1      -8.186   6.370 -30.175  1.00  0.00     0.160 C 
HETATM    6  N   UNL     1      -8.544   5.083 -30.229  1.00  0.00    -0.181 NA
HETATM    7  N   UNL     1      -5.298   4.872 -31.594  1.00  0.00    -0.343 N 
HETATM    8  C   UNL     1      -5.068   3.502 -31.740  1.00  0.00     0.021 C 
HETATM    9  C   UNL     1      -3.656   3.108 -32.108  1.00  0.00     0.069 C 
HETATM   10  C   UNL     1      -6.067   2.612 -31.527  1.00  0.00     0.061 C 
HETATM   11  H   UNL     1      -4.451   5.442 -31.584  1.00  0.00     0.167 HD
ENDROOT
BRANCH  10  12
HETATM   12  C   UNL     1      -5.849   1.153 -31.731  1.00  0.00     0.256 C 
HETATM   13  N   UNL     1      -5.950   0.770 -33.053  1.00  0.00    -0.323 N 
HETATM   14  H   UNL     1      -6.186   1.477 -33.734  1.00  0.00     0.169 HD
HETATM   15  O   UNL     1      -5.626   0.436 -30.764  1.00  0.00    -0.267 OA
BRANCH  13  16
HETATM   16  C   UNL     1      -5.802  -0.532 -33.578  1.00  0.00     0.035 A 
HETATM   17  C   UNL     1      -4.587  -1.212 -33.658  1.00  0.00     0.032 A 
HETATM   18  C   UNL     1      -4.540  -2.517 -34.166  1.00  0.00     0.039 A 
HETATM   19  C   UNL     1      -5.700  -3.159 -34.598  1.00  0.00     0.068 A 
HETATM   20  C   UNL     1      -6.911  -2.475 -34.547  1.00  0.00     0.039 A 
HETATM   21  C   UNL     1      -6.960  -1.171 -34.037  1.00  0.00     0.032 A 
BRANCH  19  22
HETATM   22  O   UNL     1      -5.519  -4.436 -35.052  1.00  0.00    -0.356 OA
HETATM   23  C   UNL     1      -4.609  -5.247 -34.320  1.00  0.00     0.210 C 
ENDBRANCH  19  22
ENDBRANCH  13  16
ENDBRANCH  10  12
BRANCH   1  24
HETATM   24  C   UNL     1      -8.546   2.671 -32.167  1.00  0.00    -0.029 A 
HETATM   25  C   UNL     1      -8.794   3.424 -33.325  1.00  0.00     0.010 A 
HETATM   26  C   UNL     1      -9.785   3.036 -34.229  1.00  0.00     0.007 A 
HETATM   27  C   UNL     1     -10.566   1.900 -33.988  1.00  0.00    -0.059 A 
HETATM   28  C   UNL     1     -10.334   1.153 -32.828  1.00  0.00     0.007 A 
HETATM   29  C   UNL     1      -9.339   1.537 -31.926  1.00  0.00     0.010 A 
BRANCH  27  30
HETATM   30  C   UNL     1     -11.623   1.470 -34.973  1.00  0.00     0.034 C 
HETATM   31  C   UNL     1     -12.458   2.647 -35.452  1.00  0.00     0.010 C 
ENDBRANCH  27  30
ENDBRANCH   1  24
BRANCH   4  32
HETATM   32  C   UNL     1      -6.254   7.912 -30.842  1.00  0.00     0.261 C 
HETATM   33  N   UNL     1      -5.146   8.019 -30.020  1.00  0.00    -0.323 N 
HETATM   34  H   UNL     1      -4.857   7.164 -29.560  1.00  0.00     0.169 HD
HETATM   35  O   UNL     1      -6.659   8.765 -31.622  1.00  0.00    -0.267 OA
BRANCH  33  36
HETATM   36  C   UNL     1      -4.303   9.135 -29.853  1.00  0.00     0.035 A 
HETATM   37  C   UNL     1      -3.146   9.360 -30.601  1.00  0.00     0.029 A 
HETATM   38  C   UNL     1      -2.360  10.494 -30.372  1.00  0.00     0.002 A 
HETATM   39  C   UNL     1      -2.728  11.418 -29.396  1.00  0.00     0.000 A 
HETATM   40  C   UNL     1      -3.884  11.207 -28.650  1.00  0.00     0.002 A 
HETATM   41  C   UNL     1      -4.668  10.073 -28.878  1.00  0.00     0.029 A 
ENDBRANCH  33  36
ENDBRANCH   4  32
TORSDOF 7
ENDMDL
MODEL 10
REMARK VINA RESULT:      -8.7      3.217     11.263
REMARK  7 active torsions:
REMARK  status: ('A' for Active; 'I' for Inactive)
REMARK    1  A    between atoms: C_2  and  C_3 
REMARK    2  A    between atoms: C_6  and  C_7 
REMARK    3  A    between atoms: C_10  and  C_11 
REMARK       I    between atoms: C_11  and  N_12 
REMARK    4  A    between atoms: N_12  and  C_13 
REMARK    5  A    between atoms: C_25  and  C_26 
REMARK       I    between atoms: C_26  and  N_27 
REMARK    6  A    between atoms: N_27  and  C_28 
REMARK    7  A    between atoms: C_31  and  O_32 
ROOT
HETATM    1  C   UNL     1      -2.434   7.033 -30.571  1.00  0.00     0.185 C 
HETATM    2  N   UNL     1      -3.277   6.057 -31.284  1.00  0.00    -0.239 N 
HETATM    3  C   UNL     1      -2.951   4.731 -31.448  1.00  0.00     0.142 C 
HETATM    4  C   UNL     1      -3.986   4.170 -32.171  1.00  0.00     0.097 C 
HETATM    5  C   UNL     1      -4.799   5.282 -32.513  1.00  0.00     0.160 C 
HETATM    6  N   UNL     1      -4.354   6.436 -32.006  1.00  0.00    -0.181 NA
HETATM    7  N   UNL     1      -1.771   4.274 -30.958  1.00  0.00    -0.343 N 
HETATM    8  C   UNL     1      -0.814   5.121 -30.393  1.00  0.00     0.021 C 
HETATM    9  C   UNL     1       0.511   4.479 -30.049  1.00  0.00     0.069 C 
HETATM   10  C   UNL     1      -1.085   6.436 -30.207  1.00  0.00     0.061 C 
HETATM   11  H   UNL     1      -1.412   3.359 -31.233  1.00  0.00     0.167 HD
ENDROOT
BRANCH  10  12
HETATM   12  C   UNL     1      -0.093   7.336 -29.557  1.00  0.00     0.256 C 
HETATM   13  N   UNL     1      -0.312   7.496 -28.204  1.00  0.00    -0.323 N 
HETATM   14  H   UNL     1      -1.112   7.034 -27.796  1.00  0.00     0.169 HD
HETATM   15  O   UNL     1       0.785   7.856 -30.235  1.00  0.00    -0.267 OA
BRANCH  13  16
HETATM   16  C   UNL     1       0.441   8.282 -27.305  1.00  0.00     0.035 A 
HETATM   17  C   UNL     1       0.241   9.647 -27.100  1.00  0.00     0.032 A 
HETATM   18  C   UNL     1       1.016  10.341 -26.162  1.00  0.00     0.039 A 
HETATM   19  C   UNL     1       1.996   9.685 -25.417  1.00  0.00     0.068 A 
HETATM   20  C   UNL     1       2.220   8.329 -25.637  1.00  0.00     0.039 A 
HETATM   21  C   UNL     1       1.443   7.633 -26.574  1.00  0.00     0.032 A 
BRANCH  19  22
HETATM   22  O   UNL     1       2.666  10.472 -24.522  1.00  0.00    -0.356 OA
HETATM   23  C   UNL     1       1.950  11.580 -23.990  1.00  0.00     0.210 C 
ENDBRANCH  19  22
ENDBRANCH  13  16
ENDBRANCH  10  12
BRANCH   1  24
HETATM   24  C   UNL     1      -3.201   7.625 -29.393  1.00  0.00    -0.029 A 
HETATM   25  C   UNL     1      -3.294   9.009 -29.179  1.00  0.00     0.010 A 
HETATM   26  C   UNL     1      -4.008   9.516 -28.090  1.00  0.00     0.007 A 
HETATM   27  C   UNL     1      -4.626   8.653 -27.178  1.00  0.00    -0.059 A 
HETATM   28  C   UNL     1      -4.524   7.273 -27.377  1.00  0.00     0.007 A 
HETATM   29  C   UNL     1      -3.816   6.764 -28.469  1.00  0.00     0.010 A 
BRANCH  27  30
HETATM   30  C   UNL     1      -5.411   9.201 -26.014  1.00  0.00     0.034 C 
HETATM   31  C   UNL     1      -4.563   9.293 -24.755  1.00  0.00     0.010 C 
ENDBRANCH  27  30
ENDBRANCH   1  24
BRANCH   4  32
HETATM   32  C   UNL     1      -4.203   2.792 -32.572  1.00  0.00     0.261 C 
HETATM   33  N   UNL     1      -5.488   2.546 -33.020  1.00  0.00    -0.323 N 
HETATM   34  H   UNL     1      -6.078   3.362 -33.132  1.00  0.00     0.169 HD
HETATM   35  O   UNL     1      -3.283   1.983 -32.538  1.00  0.00    -0.267 OA
BRANCH  33  36
HETATM   36  C   UNL     1      -6.028   1.319 -33.457  1.00  0.00     0.035 A 
HETATM   37  C   UNL     1      -5.873   0.111 -32.776  1.00  0.00     0.029 A 
HETATM   38  C   UNL     1      -6.439  -1.066 -33.279  1.00  0.00     0.002 A 
HETATM   39  C   UNL     1      -7.170  -1.042 -34.464  1.00  0.00     0.000 A 
HETATM   40  C   UNL     1      -7.337   0.159 -35.147  1.00  0.00     0.002 A 
HETATM   41  C   UNL     1      -6.770   1.334 -34.646  1.00  0.00     0.029 A 
ENDBRANCH  33  36
ENDBRANCH   4  32
TORSDOF 7
ENDMDL
