MODEL 1
REMARK VINA RESULT:      -9.5      0.000      0.000
REMARK  7 active torsions:
REMARK  status: ('A' for Active; 'I' for Inactive)
REMARK    1  A    between atoms: C_2  and  C_3 
REMARK    2  A    between atoms: C_3  and  C_4 
REMARK       I    between atoms: C_4  and  N_5 
REMARK    3  A    between atoms: N_5  and  C_6 
REMARK    4  A    between atoms: C_6  and  C_7 
REMARK    5  A    between atoms: C_9  and  N_10 
REMARK    6  A    between atoms: N_10  and  C_11 
REMARK    7  A    between atoms: C_27  and  N_28 
ROOT
HETATM    1  C   UNL     1      -5.071   3.836 -32.068  1.00  0.00     0.203 C 
ENDROOT
BRANCH   1   2
HETATM    2  N   UNL     1      -3.644   4.072 -32.212  1.00  0.00    -0.354 N 
HETATM    3  C   UNL     1      -3.165   5.029 -33.073  1.00  0.00     0.222 C 
HETATM    4  O   UNL     1      -3.908   5.763 -33.719  1.00  0.00    -0.273 OA
HETATM    5  H   UNL     1      -3.033   3.349 -31.847  1.00  0.00     0.162 HD
BRANCH   3   6
HETATM    6  C   UNL     1      -1.649   5.140 -33.112  1.00  0.00     0.141 C 
BRANCH   6   7
HETATM    7  C   UNL     1      -1.030   5.740 -31.872  1.00  0.00    -0.049 A 
HETATM    8  C   UNL     1      -1.471   6.964 -31.364  1.00  0.00     0.010 A 
HETATM    9  C   UNL     1      -0.941   7.481 -30.174  1.00  0.00     0.030 A 
HETATM   10  C   UNL     1       0.035   6.785 -29.446  1.00  0.00     0.039 A 
HETATM   11  C   UNL     1       0.479   5.565 -29.969  1.00  0.00     0.030 A 
HETATM   12  C   UNL     1      -0.045   5.047 -31.162  1.00  0.00     0.010 A 
BRANCH  10  13
HETATM   13  N   UNL     1       0.530   7.301 -28.221  1.00  0.00    -0.298 N 
HETATM   14  C   UNL     1       0.252   6.829 -26.925  1.00  0.00     0.323 C 
HETATM   15  O   UNL     1      -0.468   5.916 -26.556  1.00  0.00    -0.247 OA
HETATM   16  N   UNL     1       0.958   7.620 -26.023  1.00  0.00    -0.341 N 
HETATM   17  C   UNL     1       1.514   8.765 -26.675  1.00  0.00     0.144 C 
HETATM   18  H   UNL     1       0.748   7.538 -25.037  1.00  0.00     0.164 HD
HETATM   19  C   UNL     1       1.483   8.391 -28.148  1.00  0.00     0.153 C 
ENDBRANCH  10  13
ENDBRANCH   6   7
ENDBRANCH   3   6
ENDBRANCH   1   2
BRANCH   1  20
HETATM   20  C   UNL     1      -5.516   2.546 -32.723  1.00  0.00     0.146 A 
HETATM   21  N   UNL     1      -6.699   2.554 -33.369  1.00  0.00    -0.219 NA
HETATM   22  C   UNL     1      -7.114   1.404 -33.926  1.00  0.00     0.118 A 
HETATM   23  C   UNL     1      -6.336   0.234 -33.878  1.00  0.00     0.035 A 
HETATM   24  C   UNL     1      -5.125   0.338 -33.180  1.00  0.00     0.072 A 
HETATM   25  C   UNL     1      -6.689  -1.000 -34.483  1.00  0.00     0.041 A 
HETATM   26  N   UNL     1      -4.722   1.470 -32.599  1.00  0.00    -0.231 NA
HETATM   27  C   UNL     1      -4.306  -0.782 -33.092  1.00  0.00     0.034 A 
HETATM   28  C   UNL     1      -4.654  -2.001 -33.681  1.00  0.00     0.026 A 
HETATM   29  C   UNL     1      -5.849  -2.104 -34.379  1.00  0.00     0.035 A 
HETATM   30 CL   UNL     1      -6.289  -3.593 -35.116  1.00  0.00    -0.084 Cl
BRANCH  22  31
HETATM   31  N   UNL     1      -8.364   1.371 -34.584  1.00  0.00    -0.272 NA
HETATM   32  H   UNL     1      -8.433   0.476 -35.064  1.00  0.00     0.129 HD
BRANCH  31  33
HETATM   33  C   UNL     1      -9.542   1.632 -33.757  1.00  0.00     0.061 C 
HETATM   34  C   UNL     1     -10.816   1.693 -34.610  1.00  0.00     0.020 C 
HETATM   35  C   UNL     1     -11.891   1.076 -33.731  1.00  0.00     0.002 C 
HETATM   36  C   UNL     1     -11.163  -0.085 -33.079  1.00  0.00     0.002 C 
HETATM   37  C   UNL     1      -9.773   0.463 -32.777  1.00  0.00     0.020 C 
ENDBRANCH  31  33
ENDBRANCH  22  31
ENDBRANCH   1  20
TORSDOF 7
ENDMDL
MODEL 2
REMARK VINA RESULT:      -9.5      2.895      5.057
REMARK  7 active torsions:
REMARK  status: ('A' for Active; 'I' for Inactive)
REMARK    1  A    between atoms: C_2  and  C_3 
REMARK    2  A    between atoms: C_3  and  C_4 
REMARK       I    between atoms: C_4  and  N_5 
REMARK    3  A    between atoms: N_5  and  C_6 
REMARK    4  A    between atoms: C_6  and  C_7 
REMARK    5  A    between atoms: C_9  and  N_10 
REMARK    6  A    between atoms: N_10  and  C_11 
REMARK    7  A    between atoms: C_27  and  N_28 
ROOT
HETATM    1  C   UNL     1      -8.689   1.179 -33.980  1.00  0.00     0.203 C 
ENDROOT
BRANCH   1   2
HETATM    2  N   UNL     1      -8.291   2.540 -34.299  1.00  0.00    -0.354 N 
HETATM    3  C   UNL     1      -8.208   3.503 -33.324  1.00  0.00     0.222 C 
HETATM    4  O   UNL     1      -8.411   3.258 -32.138  1.00  0.00    -0.273 OA
HETATM    5  H   UNL     1      -8.320   2.795 -35.280  1.00  0.00     0.162 HD
BRANCH   3   6
HETATM    6  C   UNL     1      -7.787   4.875 -33.828  1.00  0.00     0.141 C 
BRANCH   6   7
HETATM    7  C   UNL     1      -6.367   5.262 -33.487  1.00  0.00    -0.049 A 
HETATM    8  C   UNL     1      -6.074   5.992 -32.332  1.00  0.00     0.010 A 
HETATM    9  C   UNL     1      -4.749   6.287 -31.985  1.00  0.00     0.030 A 
HETATM   10  C   UNL     1      -3.673   5.850 -32.773  1.00  0.00     0.039 A 
HETATM   11  C   UNL     1      -3.977   5.130 -33.934  1.00  0.00     0.030 A 
HETATM   12  C   UNL     1      -5.302   4.838 -34.287  1.00  0.00     0.010 A 
BRANCH  10  13
HETATM   13  N   UNL     1      -2.336   6.120 -32.385  1.00  0.00    -0.298 N 
HETATM   14  C   UNL     1      -1.454   7.051 -32.966  1.00  0.00     0.323 C 
HETATM   15  O   UNL     1      -1.612   7.801 -33.916  1.00  0.00    -0.247 OA
HETATM   16  N   UNL     1      -0.254   6.996 -32.264  1.00  0.00    -0.341 N 
HETATM   17  C   UNL     1      -0.233   5.873 -31.376  1.00  0.00     0.144 C 
HETATM   18  H   UNL     1       0.554   7.470 -32.644  1.00  0.00     0.164 HD
HETATM   19  C   UNL     1      -1.698   5.491 -31.246  1.00  0.00     0.153 C 
ENDBRANCH  10  13
ENDBRANCH   6   7
ENDBRANCH   3   6
ENDBRANCH   1   2
BRANCH   1  20
HETATM   20  C   UNL     1      -7.510   0.232 -33.895  1.00  0.00     0.146 A 
HETATM   21  N   UNL     1      -6.361   0.717 -33.386  1.00  0.00    -0.219 NA
HETATM   22  C   UNL     1      -5.302  -0.109 -33.338  1.00  0.00     0.118 A 
HETATM   23  C   UNL     1      -5.385  -1.446 -33.766  1.00  0.00     0.035 A 
HETATM   24  C   UNL     1      -6.627  -1.844 -34.278  1.00  0.00     0.072 A 
HETATM   25  C   UNL     1      -4.324  -2.385 -33.700  1.00  0.00     0.041 A 
HETATM   26  N   UNL     1      -7.673  -1.019 -34.357  1.00  0.00    -0.231 NA
HETATM   27  C   UNL     1      -6.780  -3.152 -34.721  1.00  0.00     0.034 A 
HETATM   28  C   UNL     1      -5.734  -4.078 -34.664  1.00  0.00     0.026 A 
HETATM   29  C   UNL     1      -4.506  -3.689 -34.150  1.00  0.00     0.035 A 
HETATM   30 CL   UNL     1      -3.212  -4.817 -34.065  1.00  0.00    -0.084 Cl
BRANCH  22  31
HETATM   31  N   UNL     1      -4.073   0.377 -32.838  1.00  0.00    -0.272 NA
HETATM   32  H   UNL     1      -3.714   1.050 -33.512  1.00  0.00     0.129 HD
BRANCH  31  33
HETATM   33  C   UNL     1      -4.095   0.930 -31.484  1.00  0.00     0.061 C 
HETATM   34  C   UNL     1      -4.548   2.396 -31.491  1.00  0.00     0.020 C 
HETATM   35  C   UNL     1      -5.356   2.550 -30.214  1.00  0.00     0.002 C 
HETATM   36  C   UNL     1      -6.135   1.249 -30.152  1.00  0.00     0.002 C 
HETATM   37  C   UNL     1      -5.142   0.192 -30.625  1.00  0.00     0.020 C 
ENDBRANCH  31  33
ENDBRANCH  22  31
ENDBRANCH   1  20
TORSDOF 7
ENDMDL
MODEL 3
REMARK VINA RESULT:      -9.1      1.984      3.632
REMARK  7 active torsions:
REMARK  status: ('A' for Active; 'I' for Inactive)
REMARK    1  A    between atoms: C_2  and  C_3 
REMARK    2  A    between atoms: C_3  and  C_4 
REMARK       I    between atoms: C_4  and  N_5 
REMARK    3  A    between atoms: N_5  and  C_6 
REMARK    4  A    between atoms: C_6  and  C_7 
REMARK    5  A    between atoms: C_9  and  N_10 
REMARK    6  A    between atoms: N_10  and  C_11 
REMARK    7  A    between atoms: C_27  and  N_28 
ROOT
HETATM    1  C   UNL     1      -2.953   3.277 -32.672  1.00  0.00     0.203 C 
ENDROOT
BRANCH   1   2
HETATM    2  N   UNL     1      -2.820   4.705 -32.438  1.00  0.00    -0.354 N 
HETATM    3  C   UNL     1      -2.195   5.520 -33.350  1.00  0.00     0.222 C 
HETATM    4  O   UNL     1      -1.768   5.101 -34.423  1.00  0.00    -0.273 OA
HETATM    5  H   UNL     1      -2.982   5.019 -31.487  1.00  0.00     0.162 HD
BRANCH   3   6
HETATM    6  C   UNL     1      -2.131   6.985 -32.947  1.00  0.00     0.141 C 
BRANCH   6   7
HETATM    7  C   UNL     1      -1.367   7.253 -31.672  1.00  0.00    -0.049 A 
HETATM    8  C   UNL     1      -1.962   7.923 -30.600  1.00  0.00     0.010 A 
HETATM    9  C   UNL     1      -1.271   8.106 -29.395  1.00  0.00     0.030 A 
HETATM   10  C   UNL     1       0.031   7.615 -29.217  1.00  0.00     0.039 A 
HETATM   11  C   UNL     1       0.623   6.956 -30.300  1.00  0.00     0.030 A 
HETATM   12  C   UNL     1      -0.063   6.776 -31.510  1.00  0.00     0.010 A 
BRANCH  10  13
HETATM   13  N   UNL     1       0.700   7.772 -27.976  1.00  0.00    -0.298 N 
HETATM   14  C   UNL     1       0.526   6.998 -26.813  1.00  0.00     0.323 C 
HETATM   15  O   UNL     1      -0.225   6.063 -26.593  1.00  0.00    -0.247 OA
HETATM   16  N   UNL     1       1.393   7.491 -25.841  1.00  0.00    -0.341 N 
HETATM   17  C   UNL     1       1.970   8.733 -26.255  1.00  0.00     0.144 C 
HETATM   18  H   UNL     1       1.287   7.171 -24.888  1.00  0.00     0.164 HD
HETATM   19  C   UNL     1       1.746   8.752 -27.758  1.00  0.00     0.153 C 
ENDBRANCH  10  13
ENDBRANCH   6   7
ENDBRANCH   3   6
ENDBRANCH   1   2
BRANCH   1  20
HETATM   20  C   UNL     1      -4.387   2.861 -32.926  1.00  0.00     0.146 A 
HETATM   21  N   UNL     1      -4.676   1.547 -32.843  1.00  0.00    -0.219 NA
HETATM   22  C   UNL     1      -5.940   1.169 -33.098  1.00  0.00     0.118 A 
HETATM   23  C   UNL     1      -6.945   2.103 -33.406  1.00  0.00     0.035 A 
HETATM   24  C   UNL     1      -6.533   3.441 -33.467  1.00  0.00     0.072 A 
HETATM   25  C   UNL     1      -8.307   1.780 -33.640  1.00  0.00     0.041 A 
HETATM   26  N   UNL     1      -5.273   3.819 -33.244  1.00  0.00    -0.231 NA
HETATM   27  C   UNL     1      -7.476   4.417 -33.767  1.00  0.00     0.034 A 
HETATM   28  C   UNL     1      -8.817   4.102 -34.005  1.00  0.00     0.026 A 
HETATM   29  C   UNL     1      -9.229   2.779 -33.938  1.00  0.00     0.035 A 
HETATM   30 CL   UNL     1     -10.875   2.374 -34.219  1.00  0.00    -0.084 Cl
BRANCH  22  31
HETATM   31  N   UNL     1      -6.269  -0.204 -33.050  1.00  0.00    -0.272 NA
HETATM   32  H   UNL     1      -7.265  -0.272 -32.855  1.00  0.00     0.129 HD
BRANCH  31  33
HETATM   33  C   UNL     1      -5.890  -1.005 -34.213  1.00  0.00     0.061 C 
HETATM   34  C   UNL     1      -4.875  -2.091 -33.832  1.00  0.00     0.020 C 
HETATM   35  C   UNL     1      -5.241  -3.277 -34.709  1.00  0.00     0.002 C 
HETATM   36  C   UNL     1      -6.759  -3.255 -34.685  1.00  0.00     0.002 C 
HETATM   37  C   UNL     1      -7.115  -1.773 -34.751  1.00  0.00     0.020 C 
ENDBRANCH  31  33
ENDBRANCH  22  31
ENDBRANCH   1  20
TORSDOF 7
ENDMDL
MODEL 4
REMARK VINA RESULT:      -9.1      4.499      7.683
REMARK  7 active torsions:
REMARK  status: ('A' for Active; 'I' for Inactive)
REMARK    1  A    between atoms: C_2  and  C_3 
REMARK    2  A    between atoms: C_3  and  C_4 
REMARK       I    between atoms: C_4  and  N_5 
REMARK    3  A    between atoms: N_5  and  C_6 
REMARK    4  A    between atoms: C_6  and  C_7 
REMARK    5  A    between atoms: C_9  and  N_10 
REMARK    6  A    between atoms: N_10  and  C_11 
REMARK    7  A    between atoms: C_27  and  N_28 
ROOT
HETATM    1  C   UNL     1      -3.883   2.094 -31.970  1.00  0.00     0.203 C 
ENDROOT
BRANCH   1   2
HETATM    2  N   UNL     1      -4.740   3.239 -31.712  1.00  0.00    -0.354 N 
HETATM    3  C   UNL     1      -5.478   3.328 -30.557  1.00  0.00     0.222 C 
HETATM    4  O   UNL     1      -5.414   2.483 -29.668  1.00  0.00    -0.273 OA
HETATM    5  H   UNL     1      -4.952   3.827 -32.510  1.00  0.00     0.162 HD
BRANCH   3   6
HETATM    6  C   UNL     1      -6.329   4.584 -30.449  1.00  0.00     0.141 C 
BRANCH   6   7
HETATM    7  C   UNL     1      -7.715   4.457 -31.037  1.00  0.00    -0.049 A 
HETATM    8  C   UNL     1      -8.585   3.444 -30.626  1.00  0.00     0.010 A 
HETATM    9  C   UNL     1      -9.893   3.375 -31.124  1.00  0.00     0.030 A 
HETATM   10  C   UNL     1     -10.378   4.323 -32.037  1.00  0.00     0.039 A 
HETATM   11  C   UNL     1      -9.495   5.326 -32.453  1.00  0.00     0.030 A 
HETATM   12  C   UNL     1      -8.184   5.395 -31.960  1.00  0.00     0.010 A 
BRANCH  10  13
HETATM   13  N   UNL     1     -11.718   4.263 -32.499  1.00  0.00    -0.298 N 
HETATM   14  C   UNL     1     -12.159   4.302 -33.835  1.00  0.00     0.323 C 
HETATM   15  O   UNL     1     -11.526   4.415 -34.872  1.00  0.00    -0.247 OA
HETATM   16  N   UNL     1     -13.548   4.201 -33.827  1.00  0.00    -0.341 N 
HETATM   17  C   UNL     1     -14.062   4.338 -32.500  1.00  0.00     0.144 C 
HETATM   18  H   UNL     1     -14.053   4.383 -34.684  1.00  0.00     0.164 HD
HETATM   19  C   UNL     1     -12.853   4.078 -31.616  1.00  0.00     0.153 C 
ENDBRANCH  10  13
ENDBRANCH   6   7
ENDBRANCH   3   6
ENDBRANCH   1   2
BRANCH   1  20
HETATM   20  C   UNL     1      -4.594   0.996 -32.733  1.00  0.00     0.146 A 
HETATM   21  N   UNL     1      -5.758   1.312 -33.334  1.00  0.00    -0.219 NA
HETATM   22  C   UNL     1      -6.408   0.333 -33.986  1.00  0.00     0.118 A 
HETATM   23  C   UNL     1      -5.888  -0.970 -34.078  1.00  0.00     0.035 A 
HETATM   24  C   UNL     1      -4.673  -1.187 -33.415  1.00  0.00     0.072 A 
HETATM   25  C   UNL     1      -6.497  -2.037 -34.788  1.00  0.00     0.041 A 
HETATM   26  N   UNL     1      -4.037  -0.227 -32.741  1.00  0.00    -0.231 NA
HETATM   27  C   UNL     1      -4.102  -2.453 -33.464  1.00  0.00     0.034 A 
HETATM   28  C   UNL     1      -4.702  -3.509 -34.156  1.00  0.00     0.026 A 
HETATM   29  C   UNL     1      -5.901  -3.294 -34.820  1.00  0.00     0.035 A 
HETATM   30 CL   UNL     1      -6.649  -4.578 -35.683  1.00  0.00    -0.084 Cl
BRANCH  22  31
HETATM   31  N   UNL     1      -7.647   0.624 -34.601  1.00  0.00    -0.272 NA
HETATM   32  H   UNL     1      -7.929  -0.202 -35.124  1.00  0.00     0.129 HD
BRANCH  31  33
HETATM   33  C   UNL     1      -8.716   1.096 -33.721  1.00  0.00     0.061 C 
HETATM   34  C   UNL     1     -10.037   1.247 -34.486  1.00  0.00     0.020 C 
HETATM   35  C   UNL     1     -11.105   0.843 -33.484  1.00  0.00     0.002 C 
HETATM   36  C   UNL     1     -10.471  -0.344 -32.781  1.00  0.00     0.002 C 
HETATM   37  C   UNL     1      -9.005   0.049 -32.626  1.00  0.00     0.020 C 
ENDBRANCH  31  33
ENDBRANCH  22  31
ENDBRANCH   1  20
TORSDOF 7
ENDMDL
MODEL 5
REMARK VINA RESULT:      -9.0      4.348      9.634
REMARK  7 active torsions:
REMARK  status: ('A' for Active; 'I' for Inactive)
REMARK    1  A    between atoms: C_2  and  C_3 
REMARK    2  A    between atoms: C_3  and  C_4 
REMARK       I    between atoms: C_4  and  N_5 
REMARK    3  A    between atoms: N_5  and  C_6 
REMARK    4  A    between atoms: C_6  and  C_7 
REMARK    5  A    between atoms: C_9  and  N_10 
REMARK    6  A    between atoms: N_10  and  C_11 
REMARK    7  A    between atoms: C_27  and  N_28 
ROOT
HETATM    1  C   UNL     1      -3.611   0.547 -32.161  1.00  0.00     0.203 C 
ENDROOT
BRANCH   1   2
HETATM    2  N   UNL     1      -4.683   0.185 -33.073  1.00  0.00    -0.354 N 
HETATM    3  C   UNL     1      -5.793  -0.494 -32.633  1.00  0.00     0.222 C 
HETATM    4  O   UNL     1      -5.962  -0.782 -31.451  1.00  0.00    -0.273 OA
HETATM    5  H   UNL     1      -4.464   0.235 -34.062  1.00  0.00     0.162 HD
BRANCH   3   6
HETATM    6  C   UNL     1      -6.814  -0.803 -33.717  1.00  0.00     0.141 C 
BRANCH   6   7
HETATM    7  C   UNL     1      -8.047   0.069 -33.686  1.00  0.00    -0.049 A 
HETATM    8  C   UNL     1      -8.139   1.218 -34.475  1.00  0.00     0.010 A 
HETATM    9  C   UNL     1      -9.313   1.984 -34.495  1.00  0.00     0.030 A 
HETATM   10  C   UNL     1     -10.437   1.618 -33.739  1.00  0.00     0.039 A 
HETATM   11  C   UNL     1     -10.331   0.472 -32.942  1.00  0.00     0.030 A 
HETATM   12  C   UNL     1      -9.156  -0.293 -32.916  1.00  0.00     0.010 A 
BRANCH  10  13
HETATM   13  N   UNL     1     -11.631   2.380 -33.804  1.00  0.00    -0.298 N 
HETATM   14  C   UNL     1     -12.623   2.323 -34.801  1.00  0.00     0.323 C 
HETATM   15  O   UNL     1     -12.681   1.653 -35.818  1.00  0.00    -0.247 OA
HETATM   16  N   UNL     1     -13.623   3.229 -34.459  1.00  0.00    -0.341 N 
HETATM   17  C   UNL     1     -13.205   4.066 -33.376  1.00  0.00     0.144 C 
HETATM   18  H   UNL     1     -14.333   3.451 -35.144  1.00  0.00     0.164 HD
HETATM   19  C   UNL     1     -12.036   3.309 -32.767  1.00  0.00     0.153 C 
ENDBRANCH  10  13
ENDBRANCH   6   7
ENDBRANCH   3   6
ENDBRANCH   1   2
BRANCH   1  20
HETATM   20  C   UNL     1      -3.557   2.035 -31.888  1.00  0.00     0.146 A 
HETATM   21  N   UNL     1      -4.361   2.518 -30.920  1.00  0.00    -0.219 NA
HETATM   22  C   UNL     1      -4.341   3.842 -30.696  1.00  0.00     0.118 A 
HETATM   23  C   UNL     1      -3.488   4.703 -31.410  1.00  0.00     0.035 A 
HETATM   24  C   UNL     1      -2.696   4.094 -32.393  1.00  0.00     0.072 A 
HETATM   25  C   UNL     1      -3.380   6.100 -31.193  1.00  0.00     0.041 A 
HETATM   26  N   UNL     1      -2.735   2.784 -32.642  1.00  0.00    -0.231 NA
HETATM   27  C   UNL     1      -1.831   4.886 -33.139  1.00  0.00     0.034 A 
HETATM   28  C   UNL     1      -1.727   6.264 -32.933  1.00  0.00     0.026 A 
HETATM   29  C   UNL     1      -2.504   6.868 -31.955  1.00  0.00     0.035 A 
HETATM   30 CL   UNL     1      -2.383   8.560 -31.682  1.00  0.00    -0.084 Cl
BRANCH  22  31
HETATM   31  N   UNL     1      -5.194   4.385 -29.709  1.00  0.00    -0.272 NA
HETATM   32  H   UNL     1      -4.785   5.264 -29.400  1.00  0.00     0.129 HD
BRANCH  31  33
HETATM   33  C   UNL     1      -6.599   4.546 -30.081  1.00  0.00     0.061 C 
HETATM   34  C   UNL     1      -6.760   4.656 -31.604  1.00  0.00     0.020 C 
HETATM   35  C   UNL     1      -8.068   3.940 -31.899  1.00  0.00     0.002 C 
HETATM   36  C   UNL     1      -8.011   2.742 -30.970  1.00  0.00     0.002 C 
HETATM   37  C   UNL     1      -7.403   3.292 -29.683  1.00  0.00     0.020 C 
ENDBRANCH  31  33
ENDBRANCH  22  31
ENDBRANCH   1  20
TORSDOF 7
ENDMDL
MODEL 6
REMARK VINA RESULT:      -8.9      3.854      6.149
REMARK  7 active torsions:
REMARK  status: ('A' for Active; 'I' for Inactive)
REMARK    1  A    between atoms: C_2  and  C_3 
REMARK    2  A    between atoms: C_3  and  C_4 
REMARK       I    between atoms: C_4  and  N_5 
REMARK    3  A    between atoms: N_5  and  C_6 
REMARK    4  A    between atoms: C_6  and  C_7 
REMARK    5  A    between atoms: C_9  and  N_10 
REMARK    6  A    between atoms: N_10  and  C_11 
REMARK    7  A    between atoms: C_27  and  N_28 
ROOT
HETATM    1  C   UNL     1      -3.434   2.256 -31.771  1.00  0.00     0.203 C 
ENDROOT
BRANCH   1   2
HETATM    2  N   UNL     1      -4.066   3.562 -31.843  1.00  0.00    -0.354 N 
HETATM    3  C   UNL     1      -3.556   4.555 -32.643  1.00  0.00     0.222 C 
HETATM    4  O   UNL     1      -2.583   4.379 -33.372  1.00  0.00    -0.273 OA
HETATM    5  H   UNL     1      -4.732   3.777 -31.109  1.00  0.00     0.162 HD
BRANCH   3   6
HETATM    6  C   UNL     1      -4.331   5.863 -32.595  1.00  0.00     0.141 C 
BRANCH   6   7
HETATM    7  C   UNL     1      -5.782   5.721 -32.199  1.00  0.00    -0.049 A 
HETATM    8  C   UNL     1      -6.727   5.205 -33.088  1.00  0.00     0.010 A 
HETATM    9  C   UNL     1      -8.057   5.010 -32.690  1.00  0.00     0.030 A 
HETATM   10  C   UNL     1      -8.481   5.310 -31.388  1.00  0.00     0.039 A 
HETATM   11  C   UNL     1      -7.530   5.838 -30.507  1.00  0.00     0.030 A 
HETATM   12  C   UNL     1      -6.200   6.039 -30.903  1.00  0.00     0.010 A 
BRANCH  10  13
HETATM   13  N   UNL     1      -9.820   5.067 -30.989  1.00  0.00    -0.298 N 
HETATM   14  C   UNL     1     -10.359   3.856 -30.517  1.00  0.00     0.323 C 
HETATM   15  O   UNL     1      -9.835   2.765 -30.365  1.00  0.00    -0.247 OA
HETATM   16  N   UNL     1     -11.704   4.072 -30.230  1.00  0.00    -0.341 N 
HETATM   17  C   UNL     1     -12.135   5.342 -30.729  1.00  0.00     0.144 C 
HETATM   18  H   UNL     1     -12.296   3.274 -30.041  1.00  0.00     0.164 HD
HETATM   19  C   UNL     1     -10.836   6.100 -30.951  1.00  0.00     0.153 C 
ENDBRANCH  10  13
ENDBRANCH   6   7
ENDBRANCH   3   6
ENDBRANCH   1   2
BRANCH   1  20
HETATM   20  C   UNL     1      -4.201   1.195 -32.532  1.00  0.00     0.146 A 
HETATM   21  N   UNL     1      -5.358   1.566 -33.116  1.00  0.00    -0.219 NA
HETATM   22  C   UNL     1      -6.059   0.622 -33.766  1.00  0.00     0.118 A 
HETATM   23  C   UNL     1      -5.598  -0.702 -33.874  1.00  0.00     0.035 A 
HETATM   24  C   UNL     1      -4.385  -0.977 -33.228  1.00  0.00     0.072 A 
HETATM   25  C   UNL     1      -6.261  -1.736 -34.583  1.00  0.00     0.041 A 
HETATM   26  N   UNL     1      -3.699  -0.050 -32.556  1.00  0.00    -0.231 NA
HETATM   27  C   UNL     1      -3.870  -2.266 -33.293  1.00  0.00     0.034 A 
HETATM   28  C   UNL     1      -4.525  -3.289 -33.985  1.00  0.00     0.026 A 
HETATM   29  C   UNL     1      -5.722  -3.018 -34.632  1.00  0.00     0.035 A 
HETATM   30 CL   UNL     1      -6.536  -4.261 -35.494  1.00  0.00    -0.084 Cl
BRANCH  22  31
HETATM   31  N   UNL     1      -7.291   0.971 -34.363  1.00  0.00    -0.272 NA
HETATM   32  H   UNL     1      -7.569   0.198 -34.964  1.00  0.00     0.129 HD
BRANCH  31  33
HETATM   33  C   UNL     1      -8.368   1.362 -33.454  1.00  0.00     0.061 C 
HETATM   34  C   UNL     1      -9.637   1.742 -34.228  1.00  0.00     0.020 C 
HETATM   35  C   UNL     1     -10.777   1.250 -33.352  1.00  0.00     0.002 C 
HETATM   36  C   UNL     1     -10.259  -0.084 -32.847  1.00  0.00     0.002 C 
HETATM   37  C   UNL     1      -8.780   0.166 -32.572  1.00  0.00     0.020 C 
ENDBRANCH  31  33
ENDBRANCH  22  31
ENDBRANCH   1  20
TORSDOF 7
ENDMDL
MODEL 7
REMARK VINA RESULT:      -8.9      3.980     10.020
REMARK  7 active torsions:
REMARK  status: ('A' for Active; 'I' for Inactive)
REMARK    1  A    between atoms: C_2  and  C_3 
REMARK    2  A    between atoms: C_3  and  C_4 
REMARK       I    between atoms: C_4  and  N_5 
REMARK    3  A    between atoms: N_5  and  C_6 
REMARK    4  A    between atoms: C_6  and  C_7 
REMARK    5  A    between atoms: C_9  and  N_10 
REMARK    6  A    between atoms: N_10  and  C_11 
REMARK    7  A    between atoms: C_27  and  N_28 
ROOT
HETATM    1  C   UNL     1      -3.568   0.634 -32.218  1.00  0.00     0.203 C 
ENDROOT
BRANCH   1   2
HETATM    2  N   UNL     1      -4.608   0.140 -33.105  1.00  0.00    -0.354 N 
HETATM    3  C   UNL     1      -4.672  -1.187 -33.454  1.00  0.00     0.222 C 
HETATM    4  O   UNL     1      -3.898  -2.026 -33.001  1.00  0.00    -0.273 OA
HETATM    5  H   UNL     1      -5.114   0.841 -33.634  1.00  0.00     0.162 HD
BRANCH   3   6
HETATM    6  C   UNL     1      -5.813  -1.535 -34.398  1.00  0.00     0.141 C 
BRANCH   6   7
HETATM    7  C   UNL     1      -7.087  -0.760 -34.157  1.00  0.00    -0.049 A 
HETATM    8  C   UNL     1      -7.707  -0.759 -32.905  1.00  0.00     0.010 A 
HETATM    9  C   UNL     1      -8.849   0.019 -32.670  1.00  0.00     0.030 A 
HETATM   10  C   UNL     1      -9.400   0.830 -33.673  1.00  0.00     0.039 A 
HETATM   11  C   UNL     1      -8.780   0.813 -34.927  1.00  0.00     0.030 A 
HETATM   12  C   UNL     1      -7.640   0.032 -35.167  1.00  0.00     0.010 A 
BRANCH  10  13
HETATM   13  N   UNL     1     -10.531   1.643 -33.406  1.00  0.00    -0.298 N 
HETATM   14  C   UNL     1     -11.878   1.238 -33.361  1.00  0.00     0.323 C 
HETATM   15  O   UNL     1     -12.379   0.143 -33.556  1.00  0.00    -0.247 OA
HETATM   16  N   UNL     1     -12.649   2.355 -33.052  1.00  0.00    -0.341 N 
HETATM   17  C   UNL     1     -11.867   3.551 -33.126  1.00  0.00     0.144 C 
HETATM   18  H   UNL     1     -13.654   2.293 -33.144  1.00  0.00     0.164 HD
HETATM   19  C   UNL     1     -10.434   3.048 -33.062  1.00  0.00     0.153 C 
ENDBRANCH  10  13
ENDBRANCH   6   7
ENDBRANCH   3   6
ENDBRANCH   1   2
BRANCH   1  20
HETATM   20  C   UNL     1      -3.740   2.101 -31.882  1.00  0.00     0.146 A 
HETATM   21  N   UNL     1      -2.628   2.804 -31.588  1.00  0.00    -0.219 NA
HETATM   22  C   UNL     1      -2.778   4.097 -31.258  1.00  0.00     0.118 A 
HETATM   23  C   UNL     1      -4.039   4.720 -31.252  1.00  0.00     0.035 A 
HETATM   24  C   UNL     1      -5.125   3.895 -31.572  1.00  0.00     0.072 A 
HETATM   25  C   UNL     1      -4.264   6.090 -30.961  1.00  0.00     0.041 A 
HETATM   26  N   UNL     1      -4.986   2.602 -31.871  1.00  0.00    -0.231 NA
HETATM   27  C   UNL     1      -6.401   4.445 -31.585  1.00  0.00     0.034 A 
HETATM   28  C   UNL     1      -6.628   5.793 -31.291  1.00  0.00     0.026 A 
HETATM   29  C   UNL     1      -5.553   6.614 -30.981  1.00  0.00     0.035 A 
HETATM   30 CL   UNL     1      -5.813   8.275 -30.626  1.00  0.00    -0.084 Cl
BRANCH  22  31
HETATM   31  N   UNL     1      -1.636   4.855 -30.914  1.00  0.00    -0.272 NA
HETATM   32  H   UNL     1      -1.055   4.276 -30.312  1.00  0.00     0.129 HD
BRANCH  31  33
HETATM   33  C   UNL     1      -0.869   5.417 -32.025  1.00  0.00     0.061 C 
HETATM   34  C   UNL     1      -1.525   5.089 -33.373  1.00  0.00     0.020 C 
HETATM   35  C   UNL     1      -1.275   6.322 -34.226  1.00  0.00     0.002 C 
HETATM   36  C   UNL     1      -1.491   7.458 -33.243  1.00  0.00     0.002 C 
HETATM   37  C   UNL     1      -0.866   6.957 -31.945  1.00  0.00     0.020 C 
ENDBRANCH  31  33
ENDBRANCH  22  31
ENDBRANCH   1  20
TORSDOF 7
ENDMDL
MODEL 8
REMARK VINA RESULT:      -8.8      4.237      9.442
REMARK  7 active torsions:
REMARK  status: ('A' for Active; 'I' for Inactive)
REMARK    1  A    between atoms: C_2  and  C_3 
REMARK    2  A    between atoms: C_3  and  C_4 
REMARK       I    between atoms: C_4  and  N_5 
REMARK    3  A    between atoms: N_5  and  C_6 
REMARK    4  A    between atoms: C_6  and  C_7 
REMARK    5  A    between atoms: C_9  and  N_10 
REMARK    6  A    between atoms: N_10  and  C_11 
REMARK    7  A    between atoms: C_27  and  N_28 
ROOT
HETATM    1  C   UNL     1      -7.371   4.933 -33.058  1.00  0.00     0.203 C 
ENDROOT
BRANCH   1   2
HETATM    2  N   UNL     1      -7.788   3.812 -33.883  1.00  0.00    -0.354 N 
HETATM    3  C   UNL     1      -8.589   2.817 -33.379  1.00  0.00     0.222 C 
HETATM    4  O   UNL     1      -9.033   2.847 -32.234  1.00  0.00    -0.273 OA
HETATM    5  H   UNL     1      -7.272   3.676 -34.746  1.00  0.00     0.162 HD
BRANCH   3   6
HETATM    6  C   UNL     1      -8.924   1.714 -34.371  1.00  0.00     0.141 C 
BRANCH   6   7
HETATM    7  C   UNL     1      -8.011   0.513 -34.307  1.00  0.00    -0.049 A 
HETATM    8  C   UNL     1      -8.352  -0.616 -33.557  1.00  0.00     0.010 A 
HETATM    9  C   UNL     1      -7.534  -1.754 -33.559  1.00  0.00     0.030 A 
HETATM   10  C   UNL     1      -6.358  -1.807 -34.321  1.00  0.00     0.039 A 
HETATM   11  C   UNL     1      -6.018  -0.667 -35.059  1.00  0.00     0.030 A 
HETATM   12  C   UNL     1      -6.831   0.475 -35.055  1.00  0.00     0.010 A 
BRANCH  10  13
HETATM   13  N   UNL     1      -5.563  -2.981 -34.345  1.00  0.00    -0.298 N 
HETATM   14  C   UNL     1      -5.911  -4.231 -34.891  1.00  0.00     0.323 C 
HETATM   15  O   UNL     1      -6.943  -4.597 -35.430  1.00  0.00    -0.247 OA
HETATM   16  N   UNL     1      -4.832  -5.091 -34.708  1.00  0.00    -0.341 N 
HETATM   17  C   UNL     1      -3.859  -4.510 -33.835  1.00  0.00     0.144 C 
HETATM   18  H   UNL     1      -4.961  -6.078 -34.883  1.00  0.00     0.164 HD
HETATM   19  C   UNL     1      -4.203  -3.029 -33.847  1.00  0.00     0.153 C 
ENDBRANCH  10  13
ENDBRANCH   6   7
ENDBRANCH   3   6
ENDBRANCH   1   2
BRANCH   1  20
HETATM   20  C   UNL     1      -5.891   4.900 -32.738  1.00  0.00     0.146 A 
HETATM   21  N   UNL     1      -5.281   3.698 -32.745  1.00  0.00    -0.219 NA
HETATM   22  C   UNL     1      -3.976   3.658 -32.430  1.00  0.00     0.118 A 
HETATM   23  C   UNL     1      -3.248   4.826 -32.139  1.00  0.00     0.035 A 
HETATM   24  C   UNL     1      -3.981   6.020 -32.160  1.00  0.00     0.072 A 
HETATM   25  C   UNL     1      -1.860   4.863 -31.847  1.00  0.00     0.041 A 
HETATM   26  N   UNL     1      -5.285   6.061 -32.442  1.00  0.00    -0.231 NA
HETATM   27  C   UNL     1      -3.324   7.212 -31.881  1.00  0.00     0.034 A 
HETATM   28  C   UNL     1      -1.958   7.252 -31.585  1.00  0.00     0.026 A 
HETATM   29  C   UNL     1      -1.229   6.072 -31.571  1.00  0.00     0.035 A 
HETATM   30 CL   UNL     1       0.452   6.104 -31.218  1.00  0.00    -0.084 Cl
BRANCH  22  31
HETATM   31  N   UNL     1      -3.314   2.410 -32.398  1.00  0.00    -0.272 NA
HETATM   32  H   UNL     1      -2.318   2.590 -32.500  1.00  0.00     0.129 HD
BRANCH  31  33
HETATM   33  C   UNL     1      -3.593   1.556 -31.245  1.00  0.00     0.061 C 
HETATM   34  C   UNL     1      -4.887   1.982 -30.539  1.00  0.00     0.020 C 
HETATM   35  C   UNL     1      -5.510   0.679 -30.067  1.00  0.00     0.002 C 
HETATM   36  C   UNL     1      -5.253  -0.257 -31.234  1.00  0.00     0.002 C 
HETATM   37  C   UNL     1      -3.848   0.106 -31.705  1.00  0.00     0.020 C 
ENDBRANCH  31  33
ENDBRANCH  22  31
ENDBRANCH   1  20
TORSDOF 7
ENDMDL
MODEL 9
REMARK VINA RESULT:      -8.4      4.314     10.286
REMARK  7 active torsions:
REMARK  status: ('A' for Active; 'I' for Inactive)
REMARK    1  A    between atoms: C_2  and  C_3 
REMARK    2  A    between atoms: C_3  and  C_4 
REMARK       I    between atoms: C_4  and  N_5 
REMARK    3  A    between atoms: N_5  and  C_6 
REMARK    4  A    between atoms: C_6  and  C_7 
REMARK    5  A    between atoms: C_9  and  N_10 
REMARK    6  A    between atoms: N_10  and  C_11 
REMARK    7  A    between atoms: C_27  and  N_28 
ROOT
HETATM    1  C   UNL     1      -7.423   5.336 -33.352  1.00  0.00     0.203 C 
ENDROOT
BRANCH   1   2
HETATM    2  N   UNL     1      -8.018   4.011 -33.312  1.00  0.00    -0.354 N 
HETATM    3  C   UNL     1      -7.398   2.935 -33.897  1.00  0.00     0.222 C 
HETATM    4  O   UNL     1      -6.296   3.022 -34.433  1.00  0.00    -0.273 OA
HETATM    5  H   UNL     1      -9.000   3.971 -33.058  1.00  0.00     0.162 HD
BRANCH   3   6
HETATM    6  C   UNL     1      -8.160   1.624 -33.774  1.00  0.00     0.141 C 
BRANCH   6   7
HETATM    7  C   UNL     1      -7.301   0.386 -33.879  1.00  0.00    -0.049 A 
HETATM    8  C   UNL     1      -6.503  -0.033 -32.811  1.00  0.00     0.010 A 
HETATM    9  C   UNL     1      -5.764  -1.221 -32.890  1.00  0.00     0.030 A 
HETATM   10  C   UNL     1      -5.809  -2.035 -34.032  1.00  0.00     0.039 A 
HETATM   11  C   UNL     1      -6.602  -1.601 -35.100  1.00  0.00     0.030 A 
HETATM   12  C   UNL     1      -7.339  -0.411 -35.027  1.00  0.00     0.010 A 
BRANCH  10  13
HETATM   13  N   UNL     1      -5.089  -3.256 -34.079  1.00  0.00    -0.298 N 
HETATM   14  C   UNL     1      -5.531  -4.485 -34.603  1.00  0.00     0.323 C 
HETATM   15  O   UNL     1      -6.602  -4.790 -35.101  1.00  0.00    -0.247 OA
HETATM   16  N   UNL     1      -4.499  -5.407 -34.456  1.00  0.00    -0.341 N 
HETATM   17  C   UNL     1      -3.461  -4.882 -33.623  1.00  0.00     0.144 C 
HETATM   18  H   UNL     1      -4.694  -6.386 -34.620  1.00  0.00     0.164 HD
HETATM   19  C   UNL     1      -3.715  -3.384 -33.632  1.00  0.00     0.153 C 
ENDBRANCH  10  13
ENDBRANCH   6   7
ENDBRANCH   3   6
ENDBRANCH   1   2
BRANCH   1  20
HETATM   20  C   UNL     1      -6.647   5.663 -32.093  1.00  0.00     0.146 A 
HETATM   21  N   UNL     1      -5.365   5.251 -32.029  1.00  0.00    -0.219 NA
HETATM   22  C   UNL     1      -4.683   5.511 -30.901  1.00  0.00     0.118 A 
HETATM   23  C   UNL     1      -5.258   6.219 -29.832  1.00  0.00     0.035 A 
HETATM   24  C   UNL     1      -6.596   6.598 -30.005  1.00  0.00     0.072 A 
HETATM   25  C   UNL     1      -4.583   6.569 -28.634  1.00  0.00     0.041 A 
HETATM   26  N   UNL     1      -7.289   6.317 -31.110  1.00  0.00    -0.231 NA
HETATM   27  C   UNL     1      -7.229   7.301 -28.986  1.00  0.00     0.034 A 
HETATM   28  C   UNL     1      -6.569   7.641 -27.802  1.00  0.00     0.026 A 
HETATM   29  C   UNL     1      -5.242   7.273 -27.631  1.00  0.00     0.035 A 
HETATM   30 CL   UNL     1      -4.412   7.690 -26.185  1.00  0.00    -0.084 Cl
BRANCH  22  31
HETATM   31  N   UNL     1      -3.346   5.065 -30.790  1.00  0.00    -0.272 NA
HETATM   32  H   UNL     1      -3.366   4.049 -30.736  1.00  0.00     0.129 HD
BRANCH  31  33
HETATM   33  C   UNL     1      -2.417   5.533 -31.818  1.00  0.00     0.061 C 
HETATM   34  C   UNL     1      -2.350   7.065 -31.849  1.00  0.00     0.020 C 
HETATM   35  C   UNL     1      -0.899   7.375 -32.179  1.00  0.00     0.002 C 
HETATM   36  C   UNL     1      -0.143   6.344 -31.362  1.00  0.00     0.002 C 
HETATM   37  C   UNL     1      -0.982   5.076 -31.485  1.00  0.00     0.020 C 
ENDBRANCH  31  33
ENDBRANCH  22  31
ENDBRANCH   1  20
TORSDOF 7
ENDMDL
MODEL 10
REMARK VINA RESULT:      -8.4      2.998      5.667
REMARK  7 active torsions:
REMARK  status: ('A' for Active; 'I' for Inactive)
REMARK    1  A    between atoms: C_2  and  C_3 
REMARK    2  A    between atoms: C_3  and  C_4 
REMARK       I    between atoms: C_4  and  N_5 
REMARK    3  A    between atoms: N_5  and  C_6 
REMARK    4  A    between atoms: C_6  and  C_7 
REMARK    5  A    between atoms: C_9  and  N_10 
REMARK    6  A    between atoms: N_10  and  C_11 
REMARK    7  A    between atoms: C_27  and  N_28 
ROOT
HETATM    1  C   UNL     1      -8.974   0.847 -34.376  1.00  0.00     0.203 C 
ENDROOT
BRANCH   1   2
HETATM    2  N   UNL     1      -9.308   1.575 -33.163  1.00  0.00    -0.354 N 
HETATM    3  C   UNL     1      -9.106   2.930 -33.069  1.00  0.00     0.222 C 
HETATM    4  O   UNL     1      -8.689   3.600 -34.010  1.00  0.00    -0.273 OA
HETATM    5  H   UNL     1      -9.456   1.012 -32.332  1.00  0.00     0.162 HD
BRANCH   3   6
HETATM    6  C   UNL     1      -9.498   3.534 -31.729  1.00  0.00     0.141 C 
BRANCH   6   7
HETATM    7  C   UNL     1      -8.368   4.208 -30.989  1.00  0.00    -0.049 A 
HETATM    8  C   UNL     1      -7.428   3.464 -30.272  1.00  0.00     0.010 A 
HETATM    9  C   UNL     1      -6.341   4.090 -29.645  1.00  0.00     0.030 A 
HETATM   10  C   UNL     1      -6.152   5.477 -29.727  1.00  0.00     0.039 A 
HETATM   11  C   UNL     1      -7.105   6.216 -30.438  1.00  0.00     0.030 A 
HETATM   12  C   UNL     1      -8.196   5.593 -31.061  1.00  0.00     0.010 A 
BRANCH  10  13
HETATM   13  N   UNL     1      -5.024   6.090 -29.124  1.00  0.00    -0.298 N 
HETATM   14  C   UNL     1      -4.786   6.263 -27.747  1.00  0.00     0.323 C 
HETATM   15  O   UNL     1      -5.471   5.963 -26.784  1.00  0.00    -0.247 OA
HETATM   16  N   UNL     1      -3.555   6.898 -27.605  1.00  0.00    -0.341 N 
HETATM   17  C   UNL     1      -3.075   7.370 -28.868  1.00  0.00     0.144 C 
HETATM   18  H   UNL     1      -3.295   7.257 -26.697  1.00  0.00     0.164 HD
HETATM   19  C   UNL     1      -3.888   6.580 -29.880  1.00  0.00     0.153 C 
ENDBRANCH  10  13
ENDBRANCH   6   7
ENDBRANCH   3   6
ENDBRANCH   1   2
BRANCH   1  20
HETATM   20  C   UNL     1      -7.752  -0.032 -34.210  1.00  0.00     0.146 A 
HETATM   21  N   UNL     1      -6.653   0.530 -33.668  1.00  0.00    -0.219 NA
HETATM   22  C   UNL     1      -5.556  -0.236 -33.547  1.00  0.00     0.118 A 
HETATM   23  C   UNL     1      -5.549  -1.588 -33.932  1.00  0.00     0.035 A 
HETATM   24  C   UNL     1      -6.745  -2.068 -34.483  1.00  0.00     0.072 A 
HETATM   25  C   UNL     1      -4.444  -2.466 -33.789  1.00  0.00     0.041 A 
HETATM   26  N   UNL     1      -7.828  -1.303 -34.635  1.00  0.00    -0.231 NA
HETATM   27  C   UNL     1      -6.809  -3.397 -34.887  1.00  0.00     0.034 A 
HETATM   28  C   UNL     1      -5.720  -4.263 -34.754  1.00  0.00     0.026 A 
HETATM   29  C   UNL     1      -4.537  -3.792 -34.201  1.00  0.00     0.035 A 
HETATM   30 CL   UNL     1      -3.191  -4.845 -34.023  1.00  0.00    -0.084 Cl
BRANCH  22  31
HETATM   31  N   UNL     1      -4.378   0.332 -33.011  1.00  0.00    -0.272 NA
HETATM   32  H   UNL     1      -3.758   0.542 -33.791  1.00  0.00     0.129 HD
BRANCH  31  33
HETATM   33  C   UNL     1      -4.553   1.489 -32.135  1.00  0.00     0.061 C 
HETATM   34  C   UNL     1      -3.257   1.815 -31.380  1.00  0.00     0.020 C 
HETATM   35  C   UNL     1      -3.241   3.331 -31.290  1.00  0.00     0.002 C 
HETATM   36  C   UNL     1      -3.752   3.753 -32.656  1.00  0.00     0.002 C 
HETATM   37  C   UNL     1      -4.856   2.749 -32.971  1.00  0.00     0.020 C 
ENDBRANCH  31  33
ENDBRANCH  22  31
ENDBRANCH   1  20
TORSDOF 7
ENDMDL
