MODEL 1
REMARK VINA RESULT:      -8.6      0.000      0.000
REMARK  5 active torsions:
REMARK  status: ('A' for Active; 'I' for Inactive)
REMARK    1  A    between atoms: C_6  and  O_7 
REMARK    2  A    between atoms: O_7  and  C_8 
REMARK    3  A    between atoms: C_8  and  C_9 
REMARK       I    between atoms: C_9  and  N_10 
REMARK    4  A    between atoms: N_10  and  N_11 
REMARK    5  A    between atoms: C_12  and  C_13 
ROOT
HETATM    1  C   UNL     1      -2.654   4.287 -31.870  1.00  0.00     0.261 C 
HETATM    2  N   UNL     1      -3.046   3.294 -30.987  1.00  0.00    -0.246 N 
HETATM    3  O   UNL     1      -2.207   4.091 -33.000  1.00  0.00    -0.269 OA
HETATM    4  H   UNL     1      -3.374   3.539 -30.057  1.00  0.00     0.192 HD
ENDROOT
BRANCH   2   5
HETATM    5  N   UNL     1      -2.985   2.000 -31.401  1.00  0.00    -0.184 NA
HETATM    6  C   UNL     1      -4.084   1.427 -31.760  1.00  0.00     0.152 C 
BRANCH   6   7
HETATM    7  C   UNL     1      -4.028   0.055 -32.231  1.00  0.00     0.011 A 
HETATM    8  C   UNL     1      -4.864  -0.604 -33.198  1.00  0.00     0.004 A 
HETATM    9  C   UNL     1      -4.429  -1.927 -33.296  1.00  0.00     0.043 A 
HETATM   10  C   UNL     1      -5.954  -0.201 -34.000  1.00  0.00     0.014 A 
HETATM   11  C   UNL     1      -5.028  -2.862 -34.150  1.00  0.00     0.030 A 
HETATM   12  N   UNL     1      -3.369  -2.068 -32.432  1.00  0.00    -0.364 N 
HETATM   13  C   UNL     1      -6.106  -2.434 -34.931  1.00  0.00     0.002 A 
HETATM   14  C   UNL     1      -6.564  -1.122 -34.859  1.00  0.00     0.001 A 
HETATM   15  H   UNL     1      -2.858  -2.931 -32.295  1.00  0.00     0.165 HD
HETATM   16  C   UNL     1      -3.117  -0.886 -31.786  1.00  0.00     0.102 A 
ENDBRANCH   6   7
ENDBRANCH   2   5
BRANCH   1  17
HETATM   17  C   UNL     1      -2.892   5.705 -31.367  1.00  0.00     0.280 C 
BRANCH  17  18
HETATM   18  O   UNL     1      -1.933   6.660 -31.828  1.00  0.00    -0.340 OA
BRANCH  18  19
HETATM   19  C   UNL     1      -1.243   7.180 -30.756  1.00  0.00     0.092 A 
HETATM   20  C   UNL     1      -1.767   8.292 -30.083  1.00  0.00     0.045 A 
HETATM   21  C   UNL     1      -1.129   8.791 -28.944  1.00  0.00     0.028 A 
HETATM   22 BR   UNL     1      -3.367   9.134 -30.661  1.00  0.00    -0.048 Br
HETATM   23  C   UNL     1       0.048   8.198 -28.480  1.00  0.00    -0.060 A 
HETATM   24  C   UNL     1       0.699   8.673 -27.213  1.00  0.00     0.048 C 
HETATM   25  C   UNL     1       0.587   7.108 -29.179  1.00  0.00     0.016 A 
HETATM   26  C   UNL     1      -0.030   6.608 -30.338  1.00  0.00    -0.027 A 
HETATM   27  C   UNL     1       0.601   5.446 -31.051  1.00  0.00     0.051 C 
ENDBRANCH  18  19
ENDBRANCH  17  18
ENDBRANCH   1  17
TORSDOF 5
ENDMDL
MODEL 2
REMARK VINA RESULT:      -8.3      1.261      1.867
REMARK  5 active torsions:
REMARK  status: ('A' for Active; 'I' for Inactive)
REMARK    1  A    between atoms: C_6  and  O_7 
REMARK    2  A    between atoms: O_7  and  C_8 
REMARK    3  A    between atoms: C_8  and  C_9 
REMARK       I    between atoms: C_9  and  N_10 
REMARK    4  A    between atoms: N_10  and  N_11 
REMARK    5  A    between atoms: C_12  and  C_13 
ROOT
HETATM    1  C   UNL     1      -2.617   4.603 -31.879  1.00  0.00     0.261 C 
HETATM    2  N   UNL     1      -2.978   3.506 -31.114  1.00  0.00    -0.246 N 
HETATM    3  O   UNL     1      -2.273   4.559 -33.060  1.00  0.00    -0.269 OA
HETATM    4  H   UNL     1      -3.218   3.624 -30.134  1.00  0.00     0.192 HD
ENDROOT
BRANCH   2   5
HETATM    5  N   UNL     1      -3.007   2.284 -31.711  1.00  0.00    -0.184 NA
HETATM    6  C   UNL     1      -3.869   1.423 -31.284  1.00  0.00     0.152 C 
BRANCH   6   7
HETATM    7  C   UNL     1      -3.931   0.126 -31.931  1.00  0.00     0.011 A 
HETATM    8  C   UNL     1      -4.844  -0.340 -32.940  1.00  0.00     0.004 A 
HETATM    9  C   UNL     1      -4.512  -1.665 -33.227  1.00  0.00     0.043 A 
HETATM   10  C   UNL     1      -5.926   0.240 -33.636  1.00  0.00     0.014 A 
HETATM   11  C   UNL     1      -5.207  -2.435 -34.168  1.00  0.00     0.030 A 
HETATM   12  N   UNL     1      -3.438  -1.994 -32.432  1.00  0.00    -0.364 N 
HETATM   13  C   UNL     1      -6.274  -1.834 -34.842  1.00  0.00     0.002 A 
HETATM   14  C   UNL     1      -6.631  -0.514 -34.581  1.00  0.00     0.001 A 
HETATM   15  H   UNL     1      -2.989  -2.900 -32.431  1.00  0.00     0.165 HD
HETATM   16  C   UNL     1      -3.078  -0.927 -31.650  1.00  0.00     0.102 A 
ENDBRANCH   6   7
ENDBRANCH   2   5
BRANCH   1  17
HETATM   17  C   UNL     1      -2.750   5.940 -31.161  1.00  0.00     0.280 C 
BRANCH  17  18
HETATM   18  O   UNL     1      -1.752   6.900 -31.519  1.00  0.00    -0.340 OA
BRANCH  18  19
HETATM   19  C   UNL     1      -1.141   7.379 -30.382  1.00  0.00     0.092 A 
HETATM   20  C   UNL     1       0.030   6.760 -29.924  1.00  0.00     0.045 A 
HETATM   21  C   UNL     1       0.713   7.274 -28.819  1.00  0.00     0.028 A 
HETATM   22 BR   UNL     1       0.749   5.237 -30.799  1.00  0.00    -0.048 Br
HETATM   23  C   UNL     1       0.222   8.398 -28.148  1.00  0.00    -0.060 A 
HETATM   24  C   UNL     1       0.989   9.008 -27.011  1.00  0.00     0.048 C 
HETATM   25  C   UNL     1      -0.970   8.990 -28.589  1.00  0.00     0.016 A 
HETATM   26  C   UNL     1      -1.680   8.473 -29.684  1.00  0.00    -0.027 A 
HETATM   27  C   UNL     1      -2.958   9.143 -30.102  1.00  0.00     0.051 C 
ENDBRANCH  18  19
ENDBRANCH  17  18
ENDBRANCH   1  17
TORSDOF 5
ENDMDL
MODEL 3
REMARK VINA RESULT:      -8.1      2.943      9.812
REMARK  5 active torsions:
REMARK  status: ('A' for Active; 'I' for Inactive)
REMARK    1  A    between atoms: C_6  and  O_7 
REMARK    2  A    between atoms: O_7  and  C_8 
REMARK    3  A    between atoms: C_8  and  C_9 
REMARK       I    between atoms: C_9  and  N_10 
REMARK    4  A    between atoms: N_10  and  N_11 
REMARK    5  A    between atoms: C_12  and  C_13 
ROOT
HETATM    1  C   UNL     1      -5.516   2.132 -31.224  1.00  0.00     0.261 C 
HETATM    2  N   UNL     1      -4.508   2.859 -31.836  1.00  0.00    -0.246 N 
HETATM    3  O   UNL     1      -6.008   2.392 -30.126  1.00  0.00    -0.269 OA
HETATM    4  H   UNL     1      -4.133   2.557 -32.731  1.00  0.00     0.192 HD
ENDROOT
BRANCH   2   5
HETATM    5  N   UNL     1      -4.049   3.978 -31.215  1.00  0.00    -0.184 NA
HETATM    6  C   UNL     1      -3.204   4.719 -31.849  1.00  0.00     0.152 C 
BRANCH   6   7
HETATM    7  C   UNL     1      -2.728   5.931 -31.208  1.00  0.00     0.011 A 
HETATM    8  C   UNL     1      -1.524   6.142 -30.451  1.00  0.00     0.004 A 
HETATM    9  C   UNL     1      -1.524   7.472 -30.024  1.00  0.00     0.043 A 
HETATM   10  C   UNL     1      -0.432   5.326 -30.083  1.00  0.00     0.014 A 
HETATM   11  C   UNL     1      -0.493   8.021 -29.251  1.00  0.00     0.030 A 
HETATM   12  N   UNL     1      -2.675   8.050 -30.505  1.00  0.00    -0.364 N 
HETATM   13  C   UNL     1       0.575   7.188 -28.902  1.00  0.00     0.002 A 
HETATM   14  C   UNL     1       0.607   5.858 -29.312  1.00  0.00     0.001 A 
HETATM   15  H   UNL     1      -2.937   9.013 -30.344  1.00  0.00     0.165 HD
HETATM   16  C   UNL     1      -3.407   7.137 -31.219  1.00  0.00     0.102 A 
ENDBRANCH   6   7
ENDBRANCH   2   5
BRANCH   1  17
HETATM   17  C   UNL     1      -6.058   0.981 -32.061  1.00  0.00     0.280 C 
BRANCH  17  18
HETATM   18  O   UNL     1      -5.516   0.910 -33.382  1.00  0.00    -0.340 OA
BRANCH  18  19
HETATM   19  C   UNL     1      -5.568  -0.389 -33.836  1.00  0.00     0.092 A 
HETATM   20  C   UNL     1      -4.547  -1.279 -33.477  1.00  0.00     0.045 A 
HETATM   21  C   UNL     1      -4.616  -2.621 -33.858  1.00  0.00     0.028 A 
HETATM   22 BR   UNL     1      -3.063  -0.712 -32.438  1.00  0.00    -0.048 Br
HETATM   23  C   UNL     1      -5.695  -3.083 -34.619  1.00  0.00    -0.060 A 
HETATM   24  C   UNL     1      -5.822  -4.538 -34.965  1.00  0.00     0.048 C 
HETATM   25  C   UNL     1      -6.694  -2.179 -35.006  1.00  0.00     0.016 A 
HETATM   26  C   UNL     1      -6.629  -0.822 -34.649  1.00  0.00    -0.027 A 
HETATM   27  C   UNL     1      -7.724   0.101 -35.104  1.00  0.00     0.051 C 
ENDBRANCH  18  19
ENDBRANCH  17  18
ENDBRANCH   1  17
TORSDOF 5
ENDMDL
MODEL 4
REMARK VINA RESULT:      -7.9      1.444      2.056
REMARK  5 active torsions:
REMARK  status: ('A' for Active; 'I' for Inactive)
REMARK    1  A    between atoms: C_6  and  O_7 
REMARK    2  A    between atoms: O_7  and  C_8 
REMARK    3  A    between atoms: C_8  and  C_9 
REMARK       I    between atoms: C_9  and  N_10 
REMARK    4  A    between atoms: N_10  and  N_11 
REMARK    5  A    between atoms: C_12  and  C_13 
ROOT
HETATM    1  C   UNL     1      -3.240   4.326 -31.701  1.00  0.00     0.261 C 
HETATM    2  N   UNL     1      -4.563   4.032 -31.988  1.00  0.00    -0.246 N 
HETATM    3  O   UNL     1      -2.271   3.673 -32.089  1.00  0.00    -0.269 OA
HETATM    4  H   UNL     1      -5.309   4.603 -31.601  1.00  0.00     0.192 HD
ENDROOT
BRANCH   2   5
HETATM    5  N   UNL     1      -4.828   2.972 -32.799  1.00  0.00    -0.184 NA
HETATM    6  C   UNL     1      -5.957   2.365 -32.651  1.00  0.00     0.152 C 
BRANCH   6   7
HETATM    7  C   UNL     1      -6.265   1.251 -33.530  1.00  0.00     0.011 A 
HETATM    8  C   UNL     1      -5.655  -0.050 -33.590  1.00  0.00     0.004 A 
HETATM    9  C   UNL     1      -6.284  -0.761 -34.613  1.00  0.00     0.043 A 
HETATM   10  C   UNL     1      -4.622  -0.691 -32.872  1.00  0.00     0.014 A 
HETATM   11  C   UNL     1      -5.931  -2.074 -34.953  1.00  0.00     0.030 A 
HETATM   12  N   UNL     1      -7.242   0.066 -35.150  1.00  0.00    -0.364 N 
HETATM   13  C   UNL     1      -4.904  -2.682 -34.225  1.00  0.00     0.002 A 
HETATM   14  C   UNL     1      -4.257  -2.002 -33.197  1.00  0.00     0.001 A 
HETATM   15  H   UNL     1      -7.851  -0.192 -35.915  1.00  0.00     0.165 HD
HETATM   16  C   UNL     1      -7.242   1.277 -34.509  1.00  0.00     0.102 A 
ENDBRANCH   6   7
ENDBRANCH   2   5
BRANCH   1  17
HETATM   17  C   UNL     1      -3.040   5.608 -30.904  1.00  0.00     0.280 C 
BRANCH  17  18
HETATM   18  O   UNL     1      -2.153   6.547 -31.516  1.00  0.00    -0.340 OA
BRANCH  18  19
HETATM   19  C   UNL     1      -1.332   7.101 -30.560  1.00  0.00     0.092 A 
HETATM   20  C   UNL     1      -1.771   8.228 -29.853  1.00  0.00     0.045 A 
HETATM   21  C   UNL     1      -0.992   8.763 -28.824  1.00  0.00     0.028 A 
HETATM   22 BR   UNL     1      -3.441   9.046 -30.236  1.00  0.00    -0.048 Br
HETATM   23  C   UNL     1       0.242   8.188 -28.504  1.00  0.00    -0.060 A 
HETATM   24  C   UNL     1       1.051   8.701 -27.348  1.00  0.00     0.048 C 
HETATM   25  C   UNL     1       0.692   7.083 -29.240  1.00  0.00     0.016 A 
HETATM   26  C   UNL     1      -0.069   6.547 -30.292  1.00  0.00    -0.027 A 
HETATM   27  C   UNL     1       0.472   5.369 -31.051  1.00  0.00     0.051 C 
ENDBRANCH  18  19
ENDBRANCH  17  18
ENDBRANCH   1  17
TORSDOF 5
ENDMDL
MODEL 5
REMARK VINA RESULT:      -7.9      6.570      9.280
REMARK  5 active torsions:
REMARK  status: ('A' for Active; 'I' for Inactive)
REMARK    1  A    between atoms: C_6  and  O_7 
REMARK    2  A    between atoms: O_7  and  C_8 
REMARK    3  A    between atoms: C_8  and  C_9 
REMARK       I    between atoms: C_9  and  N_10 
REMARK    4  A    between atoms: N_10  and  N_11 
REMARK    5  A    between atoms: C_12  and  C_13 
ROOT
HETATM    1  C   UNL     1      -8.708   2.968 -31.559  1.00  0.00     0.261 C 
HETATM    2  N   UNL     1      -8.587   1.615 -31.292  1.00  0.00    -0.246 N 
HETATM    3  O   UNL     1      -7.851   3.659 -32.111  1.00  0.00    -0.269 OA
HETATM    4  H   UNL     1      -9.329   1.123 -30.800  1.00  0.00     0.192 HD
ENDROOT
BRANCH   2   5
HETATM    5  N   UNL     1      -7.463   0.971 -31.708  1.00  0.00    -0.184 NA
HETATM    6  C   UNL     1      -7.583   0.088 -32.641  1.00  0.00     0.152 C 
BRANCH   6   7
HETATM    7  C   UNL     1      -6.387  -0.585 -33.115  1.00  0.00     0.011 A 
HETATM    8  C   UNL     1      -6.270  -1.839 -33.810  1.00  0.00     0.004 A 
HETATM    9  C   UNL     1      -4.911  -2.069 -34.033  1.00  0.00     0.043 A 
HETATM   10  C   UNL     1      -7.192  -2.805 -34.269  1.00  0.00     0.014 A 
HETATM   11  C   UNL     1      -4.432  -3.212 -34.687  1.00  0.00     0.030 A 
HETATM   12  N   UNL     1      -4.228  -1.000 -33.504  1.00  0.00    -0.364 N 
HETATM   13  C   UNL     1      -5.369  -4.151 -35.129  1.00  0.00     0.002 A 
HETATM   14  C   UNL     1      -6.731  -3.952 -34.925  1.00  0.00     0.001 A 
HETATM   15  H   UNL     1      -3.221  -0.903 -33.521  1.00  0.00     0.165 HD
HETATM   16  C   UNL     1      -5.102  -0.100 -32.950  1.00  0.00     0.102 A 
ENDBRANCH   6   7
ENDBRANCH   2   5
BRANCH   1  17
HETATM   17  C   UNL     1     -10.057   3.566 -31.180  1.00  0.00     0.280 C 
BRANCH  17  18
HETATM   18  O   UNL     1     -10.755   4.176 -32.269  1.00  0.00    -0.340 OA
BRANCH  18  19
HETATM   19  C   UNL     1     -12.063   3.747 -32.279  1.00  0.00     0.092 A 
HETATM   20  C   UNL     1     -12.430   2.692 -33.125  1.00  0.00     0.045 A 
HETATM   21  C   UNL     1     -13.732   2.186 -33.097  1.00  0.00     0.028 A 
HETATM   22 BR   UNL     1     -11.177   1.891 -34.304  1.00  0.00    -0.048 Br
HETATM   23  C   UNL     1     -14.686   2.743 -32.239  1.00  0.00    -0.060 A 
HETATM   24  C   UNL     1     -16.064   2.156 -32.141  1.00  0.00     0.048 C 
HETATM   25  C   UNL     1     -14.322   3.822 -31.422  1.00  0.00     0.016 A 
HETATM   26  C   UNL     1     -13.023   4.357 -31.454  1.00  0.00    -0.027 A 
HETATM   27  C   UNL     1     -12.697   5.522 -30.563  1.00  0.00     0.051 C 
ENDBRANCH  18  19
ENDBRANCH  17  18
ENDBRANCH   1  17
TORSDOF 5
ENDMDL
MODEL 6
REMARK VINA RESULT:      -7.7      2.781      9.692
REMARK  5 active torsions:
REMARK  status: ('A' for Active; 'I' for Inactive)
REMARK    1  A    between atoms: C_6  and  O_7 
REMARK    2  A    between atoms: O_7  and  C_8 
REMARK    3  A    between atoms: C_8  and  C_9 
REMARK       I    between atoms: C_9  and  N_10 
REMARK    4  A    between atoms: N_10  and  N_11 
REMARK    5  A    between atoms: C_12  and  C_13 
ROOT
HETATM    1  C   UNL     1      -4.668   2.821 -32.254  1.00  0.00     0.261 C 
HETATM    2  N   UNL     1      -3.295   2.635 -32.238  1.00  0.00    -0.246 N 
HETATM    3  O   UNL     1      -5.272   3.683 -31.615  1.00  0.00    -0.269 OA
HETATM    4  H   UNL     1      -2.877   1.877 -32.769  1.00  0.00     0.192 HD
ENDROOT
BRANCH   2   5
HETATM    5  N   UNL     1      -2.536   3.492 -31.504  1.00  0.00    -0.184 NA
HETATM    6  C   UNL     1      -2.051   4.530 -32.096  1.00  0.00     0.152 C 
BRANCH   6   7
HETATM    7  C   UNL     1      -1.262   5.468 -31.318  1.00  0.00     0.011 A 
HETATM    8  C   UNL     1      -1.708   6.477 -30.395  1.00  0.00     0.004 A 
HETATM    9  C   UNL     1      -0.574   7.135 -29.914  1.00  0.00     0.043 A 
HETATM   10  C   UNL     1      -2.971   6.897 -29.924  1.00  0.00     0.014 A 
HETATM   11  C   UNL     1      -0.642   8.188 -28.993  1.00  0.00     0.030 A 
HETATM   12  N   UNL     1       0.517   6.550 -30.512  1.00  0.00    -0.364 N 
HETATM   13  C   UNL     1      -1.907   8.582 -28.545  1.00  0.00     0.002 A 
HETATM   14  C   UNL     1      -3.057   7.947 -29.003  1.00  0.00     0.001 A 
HETATM   15  H   UNL     1       1.474   6.832 -30.347  1.00  0.00     0.165 HD
HETATM   16  C   UNL     1       0.118   5.546 -31.356  1.00  0.00     0.102 A 
ENDBRANCH   6   7
ENDBRANCH   2   5
BRANCH   1  17
HETATM   17  C   UNL     1      -5.415   1.903 -33.213  1.00  0.00     0.280 C 
BRANCH  17  18
HETATM   18  O   UNL     1      -6.149   0.857 -32.571  1.00  0.00    -0.340 OA
BRANCH  18  19
HETATM   19  C   UNL     1      -6.054  -0.299 -33.313  1.00  0.00     0.092 A 
HETATM   20  C   UNL     1      -5.016  -1.201 -33.041  1.00  0.00     0.045 A 
HETATM   21  C   UNL     1      -4.942  -2.417 -33.726  1.00  0.00     0.028 A 
HETATM   22 BR   UNL     1      -3.704  -0.828 -31.722  1.00  0.00    -0.048 Br
HETATM   23  C   UNL     1      -5.891  -2.734 -34.702  1.00  0.00    -0.060 A 
HETATM   24  C   UNL     1      -5.871  -4.070 -35.386  1.00  0.00     0.048 C 
HETATM   25  C   UNL     1      -6.905  -1.812 -34.995  1.00  0.00     0.016 A 
HETATM   26  C   UNL     1      -6.981  -0.575 -34.331  1.00  0.00    -0.027 A 
HETATM   27  C   UNL     1      -8.084   0.377 -34.697  1.00  0.00     0.051 C 
ENDBRANCH  18  19
ENDBRANCH  17  18
ENDBRANCH   1  17
TORSDOF 5
ENDMDL
MODEL 7
REMARK VINA RESULT:      -7.7      2.974      9.875
REMARK  5 active torsions:
REMARK  status: ('A' for Active; 'I' for Inactive)
REMARK    1  A    between atoms: C_6  and  O_7 
REMARK    2  A    between atoms: O_7  and  C_8 
REMARK    3  A    between atoms: C_8  and  C_9 
REMARK       I    between atoms: C_9  and  N_10 
REMARK    4  A    between atoms: N_10  and  N_11 
REMARK    5  A    between atoms: C_12  and  C_13 
ROOT
HETATM    1  C   UNL     1      -4.595   2.527 -31.741  1.00  0.00     0.261 C 
HETATM    2  N   UNL     1      -3.908   3.538 -32.393  1.00  0.00    -0.246 N 
HETATM    3  O   UNL     1      -4.841   2.503 -30.535  1.00  0.00    -0.269 OA
HETATM    4  H   UNL     1      -3.717   3.466 -33.388  1.00  0.00     0.192 HD
ENDROOT
BRANCH   2   5
HETATM    5  N   UNL     1      -3.511   4.620 -31.670  1.00  0.00    -0.184 NA
HETATM    6  C   UNL     1      -2.350   5.123 -31.923  1.00  0.00     0.152 C 
BRANCH   6   7
HETATM    7  C   UNL     1      -1.925   6.295 -31.179  1.00  0.00     0.011 A 
HETATM    8  C   UNL     1      -0.939   6.397 -30.137  1.00  0.00     0.004 A 
HETATM    9  C   UNL     1      -0.904   7.729 -29.722  1.00  0.00     0.043 A 
HETATM   10  C   UNL     1      -0.073   5.480 -29.503  1.00  0.00     0.014 A 
HETATM   11  C   UNL     1      -0.052   8.186 -28.708  1.00  0.00     0.030 A 
HETATM   12  N   UNL     1      -1.824   8.413 -30.482  1.00  0.00    -0.364 N 
HETATM   13  C   UNL     1       0.794   7.255 -28.098  1.00  0.00     0.002 A 
HETATM   14  C   UNL     1       0.786   5.919 -28.489  1.00  0.00     0.001 A 
HETATM   15  H   UNL     1      -2.012   9.403 -30.391  1.00  0.00     0.165 HD
HETATM   16  C   UNL     1      -2.443   7.564 -31.362  1.00  0.00     0.102 A 
ENDBRANCH   6   7
ENDBRANCH   2   5
BRANCH   1  17
HETATM   17  C   UNL     1      -5.119   1.431 -32.659  1.00  0.00     0.280 C 
BRANCH  17  18
HETATM   18  O   UNL     1      -5.742   0.341 -31.975  1.00  0.00    -0.340 OA
BRANCH  18  19
HETATM   19  C   UNL     1      -5.782  -0.762 -32.799  1.00  0.00     0.092 A 
HETATM   20  C   UNL     1      -6.966  -1.056 -33.489  1.00  0.00     0.045 A 
HETATM   21  C   UNL     1      -7.009  -2.122 -34.390  1.00  0.00     0.028 A 
HETATM   22 BR   UNL     1      -8.530  -0.007 -33.257  1.00  0.00    -0.048 Br
HETATM   23  C   UNL     1      -5.877  -2.917 -34.596  1.00  0.00    -0.060 A 
HETATM   24  C   UNL     1      -5.887  -4.014 -35.621  1.00  0.00     0.048 C 
HETATM   25  C   UNL     1      -4.707  -2.640 -33.875  1.00  0.00     0.016 A 
HETATM   26  C   UNL     1      -4.654  -1.585 -32.949  1.00  0.00    -0.027 A 
HETATM   27  C   UNL     1      -3.375  -1.345 -32.197  1.00  0.00     0.051 C 
ENDBRANCH  18  19
ENDBRANCH  17  18
ENDBRANCH   1  17
TORSDOF 5
ENDMDL
MODEL 8
REMARK VINA RESULT:      -7.3      2.772     10.041
REMARK  5 active torsions:
REMARK  status: ('A' for Active; 'I' for Inactive)
REMARK    1  A    between atoms: C_6  and  O_7 
REMARK    2  A    between atoms: O_7  and  C_8 
REMARK    3  A    between atoms: C_8  and  C_9 
REMARK       I    between atoms: C_9  and  N_10 
REMARK    4  A    between atoms: N_10  and  N_11 
REMARK    5  A    between atoms: C_12  and  C_13 
ROOT
HETATM    1  C   UNL     1      -3.803   4.021 -31.742  1.00  0.00     0.261 C 
HETATM    2  N   UNL     1      -2.529   4.552 -31.861  1.00  0.00    -0.246 N 
HETATM    3  O   UNL     1      -4.729   4.539 -31.116  1.00  0.00    -0.269 OA
HETATM    4  H   UNL     1      -1.810   4.044 -32.369  1.00  0.00     0.192 HD
ENDROOT
BRANCH   2   5
HETATM    5  N   UNL     1      -2.277   5.761 -31.291  1.00  0.00    -0.184 NA
HETATM    6  C   UNL     1      -1.608   5.782 -30.188  1.00  0.00     0.152 C 
BRANCH   6   7
HETATM    7  C   UNL     1      -1.306   7.067 -29.584  1.00  0.00     0.011 A 
HETATM    8  C   UNL     1      -0.315   7.392 -28.595  1.00  0.00     0.004 A 
HETATM    9  C   UNL     1      -0.427   8.756 -28.320  1.00  0.00     0.043 A 
HETATM   10  C   UNL     1       0.669   6.653 -27.901  1.00  0.00     0.014 A 
HETATM   11  C   UNL     1       0.390   9.413 -27.390  1.00  0.00     0.030 A 
HETATM   12  N   UNL     1      -1.439   9.245 -29.112  1.00  0.00    -0.364 N 
HETATM   13  C   UNL     1       1.354   8.655 -26.719  1.00  0.00     0.002 A 
HETATM   14  C   UNL     1       1.494   7.293 -26.970  1.00  0.00     0.001 A 
HETATM   15  H   UNL     1      -1.740  10.211 -29.117  1.00  0.00     0.165 HD
HETATM   16  C   UNL     1      -1.975   8.242 -29.877  1.00  0.00     0.102 A 
ENDBRANCH   6   7
ENDBRANCH   2   5
BRANCH   1  17
HETATM   17  C   UNL     1      -4.025   2.737 -32.530  1.00  0.00     0.280 C 
BRANCH  17  18
HETATM   18  O   UNL     1      -5.055   1.896 -32.004  1.00  0.00    -0.340 OA
BRANCH  18  19
HETATM   19  C   UNL     1      -5.188   0.777 -32.794  1.00  0.00     0.092 A 
HETATM   20  C   UNL     1      -4.331  -0.313 -32.584  1.00  0.00     0.045 A 
HETATM   21  C   UNL     1      -4.495  -1.490 -33.319  1.00  0.00     0.028 A 
HETATM   22 BR   UNL     1      -2.952  -0.248 -31.282  1.00  0.00    -0.048 Br
HETATM   23  C   UNL     1      -5.503  -1.583 -34.284  1.00  0.00    -0.060 A 
HETATM   24  C   UNL     1      -5.741  -2.869 -35.021  1.00  0.00     0.048 C 
HETATM   25  C   UNL     1      -6.332  -0.477 -34.515  1.00  0.00     0.016 A 
HETATM   26  C   UNL     1      -6.167   0.721 -33.800  1.00  0.00    -0.027 A 
HETATM   27  C   UNL     1      -7.079   1.877 -34.101  1.00  0.00     0.051 C 
ENDBRANCH  18  19
ENDBRANCH  17  18
ENDBRANCH   1  17
TORSDOF 5
ENDMDL
MODEL 9
REMARK VINA RESULT:      -7.3      2.391      4.150
REMARK  5 active torsions:
REMARK  status: ('A' for Active; 'I' for Inactive)
REMARK    1  A    between atoms: C_6  and  O_7 
REMARK    2  A    between atoms: O_7  and  C_8 
REMARK    3  A    between atoms: C_8  and  C_9 
REMARK       I    between atoms: C_9  and  N_10 
REMARK    4  A    between atoms: N_10  and  N_11 
REMARK    5  A    between atoms: C_12  and  C_13 
ROOT
HETATM    1  C   UNL     1      -2.554   4.347 -31.670  1.00  0.00     0.261 C 
HETATM    2  N   UNL     1      -3.236   3.325 -31.030  1.00  0.00    -0.246 N 
HETATM    3  O   UNL     1      -1.778   4.196 -32.614  1.00  0.00    -0.269 OA
HETATM    4  H   UNL     1      -3.834   3.530 -30.234  1.00  0.00     0.192 HD
ENDROOT
BRANCH   2   5
HETATM    5  N   UNL     1      -3.089   2.057 -31.500  1.00  0.00    -0.184 NA
HETATM    6  C   UNL     1      -4.136   1.304 -31.547  1.00  0.00     0.152 C 
BRANCH   6   7
HETATM    7  C   UNL     1      -3.998  -0.042 -32.073  1.00  0.00     0.011 A 
HETATM    8  C   UNL     1      -4.782  -0.705 -33.079  1.00  0.00     0.004 A 
HETATM    9  C   UNL     1      -4.274  -1.997 -33.224  1.00  0.00     0.043 A 
HETATM   10  C   UNL     1      -5.882  -0.330 -33.882  1.00  0.00     0.014 A 
HETATM   11  C   UNL     1      -4.809  -2.927 -34.125  1.00  0.00     0.030 A 
HETATM   12  N   UNL     1      -3.220  -2.117 -32.348  1.00  0.00    -0.364 N 
HETATM   13  C   UNL     1      -5.897  -2.527 -34.905  1.00  0.00     0.002 A 
HETATM   14  C   UNL     1      -6.428  -1.246 -34.788  1.00  0.00     0.001 A 
HETATM   15  H   UNL     1      -2.665  -2.955 -32.239  1.00  0.00     0.165 HD
HETATM   16  C   UNL     1      -3.043  -0.950 -31.651  1.00  0.00     0.102 A 
ENDBRANCH   6   7
ENDBRANCH   2   5
BRANCH   1  17
HETATM   17  C   UNL     1      -2.892   5.742 -31.162  1.00  0.00     0.280 C 
BRANCH  17  18
HETATM   18  O   UNL     1      -3.447   6.609 -32.155  1.00  0.00    -0.340 OA
BRANCH  18  19
HETATM   19  C   UNL     1      -4.821   6.524 -32.128  1.00  0.00     0.092 A 
HETATM   20  C   UNL     1      -5.527   7.185 -31.114  1.00  0.00     0.045 A 
HETATM   21  C   UNL     1      -6.924   7.180 -31.108  1.00  0.00     0.028 A 
HETATM   22 BR   UNL     1      -4.624   8.135 -29.741  1.00  0.00    -0.048 Br
HETATM   23  C   UNL     1      -7.629   6.498 -32.105  1.00  0.00    -0.060 A 
HETATM   24  C   UNL     1      -9.129   6.552 -32.157  1.00  0.00     0.048 C 
HETATM   25  C   UNL     1      -6.917   5.808 -33.096  1.00  0.00     0.016 A 
HETATM   26  C   UNL     1      -5.513   5.784 -33.103  1.00  0.00    -0.027 A 
HETATM   27  C   UNL     1      -4.806   5.018 -34.184  1.00  0.00     0.051 C 
ENDBRANCH  18  19
ENDBRANCH  17  18
ENDBRANCH   1  17
TORSDOF 5
ENDMDL
MODEL 10
REMARK VINA RESULT:      -7.2      6.544      9.827
REMARK  5 active torsions:
REMARK  status: ('A' for Active; 'I' for Inactive)
REMARK    1  A    between atoms: C_6  and  O_7 
REMARK    2  A    between atoms: O_7  and  C_8 
REMARK    3  A    between atoms: C_8  and  C_9 
REMARK       I    between atoms: C_9  and  N_10 
REMARK    4  A    between atoms: N_10  and  N_11 
REMARK    5  A    between atoms: C_12  and  C_13 
ROOT
HETATM    1  C   UNL     1      -8.304   0.600 -33.803  1.00  0.00     0.261 C 
HETATM    2  N   UNL     1      -9.201   0.434 -32.761  1.00  0.00    -0.246 N 
HETATM    3  O   UNL     1      -8.594   0.564 -34.999  1.00  0.00    -0.269 OA
HETATM    4  H   UNL     1      -8.874   0.444 -31.799  1.00  0.00     0.192 HD
ENDROOT
BRANCH   2   5
HETATM    5  N   UNL     1     -10.517   0.266 -33.062  1.00  0.00    -0.184 NA
HETATM    6  C   UNL     1     -11.291   1.296 -32.987  1.00  0.00     0.152 C 
BRANCH   6   7
HETATM    7  C   UNL     1     -12.692   1.138 -33.334  1.00  0.00     0.011 A 
HETATM    8  C   UNL     1     -13.825   1.904 -32.892  1.00  0.00     0.004 A 
HETATM    9  C   UNL     1     -14.962   1.353 -33.487  1.00  0.00     0.043 A 
HETATM   10  C   UNL     1     -13.995   3.015 -32.037  1.00  0.00     0.014 A 
HETATM   11  C   UNL     1     -16.252   1.854 -33.269  1.00  0.00     0.030 A 
HETATM   12  N   UNL     1     -14.540   0.300 -34.264  1.00  0.00    -0.364 N 
HETATM   13  C   UNL     1     -16.388   2.954 -32.417  1.00  0.00     0.002 A 
HETATM   14  C   UNL     1     -15.277   3.529 -31.808  1.00  0.00     0.001 A 
HETATM   15  H   UNL     1     -15.157  -0.285 -34.812  1.00  0.00     0.165 HD
HETATM   16  C   UNL     1     -13.179   0.160 -34.182  1.00  0.00     0.102 A 
ENDBRANCH   6   7
ENDBRANCH   2   5
BRANCH   1  17
HETATM   17  C   UNL     1      -6.881   0.920 -33.362  1.00  0.00     0.280 C 
BRANCH  17  18
HETATM   18  O   UNL     1      -5.873   0.513 -34.291  1.00  0.00    -0.340 OA
BRANCH  18  19
HETATM   19  C   UNL     1      -5.091  -0.469 -33.725  1.00  0.00     0.092 A 
HETATM   20  C   UNL     1      -4.061  -0.101 -32.849  1.00  0.00     0.045 A 
HETATM   21  C   UNL     1      -3.303  -1.080 -32.202  1.00  0.00     0.028 A 
HETATM   22 BR   UNL     1      -3.681   1.722 -32.483  1.00  0.00    -0.048 Br
HETATM   23  C   UNL     1      -3.554  -2.435 -32.438  1.00  0.00    -0.060 A 
HETATM   24  C   UNL     1      -2.803  -3.496 -31.688  1.00  0.00     0.048 C 
HETATM   25  C   UNL     1      -4.562  -2.796 -33.344  1.00  0.00     0.016 A 
HETATM   26  C   UNL     1      -5.317  -1.824 -34.020  1.00  0.00    -0.027 A 
HETATM   27  C   UNL     1      -6.376  -2.272 -34.987  1.00  0.00     0.051 C 
ENDBRANCH  18  19
ENDBRANCH  17  18
ENDBRANCH   1  17
TORSDOF 5
ENDMDL
