MODEL 1
REMARK VINA RESULT:      -8.6      0.000      0.000
REMARK  2 active torsions:
REMARK  status: ('A' for Active; 'I' for Inactive)
REMARK    1  A    between atoms: C_4  and  C_5 
REMARK    2  A    between atoms: N_11  and  C_12 
ROOT
HETATM    1  C   UNL     1      -3.426   3.874 -31.774  1.00  0.00     0.069 A 
HETATM    2  N   UNL     1      -2.991   2.747 -32.450  1.00  0.00    -0.343 N 
HETATM    3  C   UNL     1      -3.588   1.532 -32.282  1.00  0.00     0.119 A 
HETATM    4  C   UNL     1      -4.677   1.400 -31.506  1.00  0.00     0.125 A 
HETATM    5  C   UNL     1      -5.112  -0.003 -31.616  1.00  0.00     0.280 A 
HETATM    6  O   UNL     1      -6.087  -0.477 -31.059  1.00  0.00    -0.265 OA
HETATM    7  N   UNL     1      -4.188  -0.610 -32.479  1.00  0.00    -0.236 N 
HETATM    8  N   UNL     1      -3.216   0.337 -32.868  1.00  0.00    -0.179 NA
HETATM    9  C   UNL     1      -5.248   2.551 -30.794  1.00  0.00     0.215 A 
HETATM   10  O   UNL     1      -6.259   2.458 -30.109  1.00  0.00    -0.285 OA
HETATM   11  C   UNL     1      -4.508   3.854 -30.963  1.00  0.00     0.112 A 
HETATM   12 CL   UNL     1      -5.103   5.219 -30.096  1.00  0.00    -0.077 Cl
HETATM   13  H   UNL     1      -2.093   2.786 -32.924  1.00  0.00     0.167 HD
HETATM   14  H   UNL     1      -3.155   0.435 -33.881  1.00  0.00     0.155 HD
ENDROOT
BRANCH   1  15
HETATM   15  C   UNL     1      -2.628   5.091 -31.995  1.00  0.00    -0.008 A 
HETATM   16  C   UNL     1      -3.012   6.019 -32.973  1.00  0.00     0.014 A 
HETATM   17  C   UNL     1      -2.260   7.176 -33.175  1.00  0.00     0.001 A 
HETATM   18  C   UNL     1      -1.122   7.414 -32.402  1.00  0.00     0.000 A 
HETATM   19  C   UNL     1      -0.735   6.496 -31.427  1.00  0.00     0.001 A 
HETATM   20  C   UNL     1      -1.486   5.337 -31.222  1.00  0.00     0.014 A 
ENDBRANCH   1  15
BRANCH   7  21
HETATM   21  C   UNL     1      -4.106  -1.949 -32.919  1.00  0.00     0.055 A 
HETATM   22  C   UNL     1      -3.323  -2.890 -32.240  1.00  0.00     0.031 A 
HETATM   23  C   UNL     1      -3.256  -4.219 -32.675  1.00  0.00     0.002 A 
HETATM   24  C   UNL     1      -3.969  -4.625 -33.799  1.00  0.00     0.000 A 
HETATM   25  C   UNL     1      -4.746  -3.703 -34.491  1.00  0.00     0.002 A 
HETATM   26  C   UNL     1      -4.814  -2.375 -34.055  1.00  0.00     0.031 A 
ENDBRANCH   7  21
TORSDOF 2
ENDMDL
MODEL 2
REMARK VINA RESULT:      -8.6      1.811      7.512
REMARK  2 active torsions:
REMARK  status: ('A' for Active; 'I' for Inactive)
REMARK    1  A    between atoms: C_4  and  C_5 
REMARK    2  A    between atoms: N_11  and  C_12 
ROOT
HETATM    1  C   UNL     1      -5.308   0.467 -32.696  1.00  0.00     0.069 A 
HETATM    2  N   UNL     1      -4.071   1.073 -32.833  1.00  0.00    -0.343 N 
HETATM    3  C   UNL     1      -3.811   2.305 -32.306  1.00  0.00     0.119 A 
HETATM    4  C   UNL     1      -4.730   2.945 -31.564  1.00  0.00     0.125 A 
HETATM    5  C   UNL     1      -4.101   4.187 -31.084  1.00  0.00     0.280 A 
HETATM    6  O   UNL     1      -4.638   5.008 -30.362  1.00  0.00    -0.265 OA
HETATM    7  N   UNL     1      -2.806   4.178 -31.624  1.00  0.00    -0.236 N 
HETATM    8  N   UNL     1      -2.636   3.022 -32.415  1.00  0.00    -0.179 NA
HETATM    9  C   UNL     1      -6.051   2.355 -31.313  1.00  0.00     0.215 A 
HETATM   10  O   UNL     1      -6.890   2.907 -30.611  1.00  0.00    -0.285 OA
HETATM   11  C   UNL     1      -6.307   1.025 -31.975  1.00  0.00     0.112 A 
HETATM   12 CL   UNL     1      -7.867   0.323 -31.762  1.00  0.00    -0.077 Cl
HETATM   13  H   UNL     1      -3.415   0.683 -33.503  1.00  0.00     0.167 HD
HETATM   14  H   UNL     1      -1.840   2.460 -32.113  1.00  0.00     0.155 HD
ENDROOT
BRANCH   1  15
HETATM   15  C   UNL     1      -5.461  -0.822 -33.390  1.00  0.00    -0.008 A 
HETATM   16  C   UNL     1      -6.654  -1.126 -34.060  1.00  0.00     0.014 A 
HETATM   17  C   UNL     1      -6.793  -2.344 -34.725  1.00  0.00     0.001 A 
HETATM   18  C   UNL     1      -5.743  -3.264 -34.728  1.00  0.00     0.000 A 
HETATM   19  C   UNL     1      -4.553  -2.967 -34.064  1.00  0.00     0.001 A 
HETATM   20  C   UNL     1      -4.410  -1.748 -33.398  1.00  0.00     0.014 A 
ENDBRANCH   1  15
BRANCH   7  21
HETATM   21  C   UNL     1      -1.772   5.133 -31.511  1.00  0.00     0.055 A 
HETATM   22  C   UNL     1      -1.856   6.374 -32.156  1.00  0.00     0.031 A 
HETATM   23  C   UNL     1      -0.832   7.320 -32.030  1.00  0.00     0.002 A 
HETATM   24  C   UNL     1       0.292   7.038 -31.260  1.00  0.00     0.000 A 
HETATM   25  C   UNL     1       0.396   5.809 -30.618  1.00  0.00     0.002 A 
HETATM   26  C   UNL     1      -0.628   4.864 -30.743  1.00  0.00     0.031 A 
ENDBRANCH   7  21
TORSDOF 2
ENDMDL
MODEL 3
REMARK VINA RESULT:      -8.5      1.994      7.705
REMARK  2 active torsions:
REMARK  status: ('A' for Active; 'I' for Inactive)
REMARK    1  A    between atoms: C_4  and  C_5 
REMARK    2  A    between atoms: N_11  and  C_12 
ROOT
HETATM    1  C   UNL     1      -4.483  -0.269 -32.823  1.00  0.00     0.069 A 
HETATM    2  N   UNL     1      -3.437   0.615 -32.620  1.00  0.00    -0.343 N 
HETATM    3  C   UNL     1      -3.635   1.965 -32.577  1.00  0.00     0.119 A 
HETATM    4  C   UNL     1      -4.871   2.484 -32.653  1.00  0.00     0.125 A 
HETATM    5  C   UNL     1      -4.734   3.941 -32.485  1.00  0.00     0.280 A 
HETATM    6  O   UNL     1      -5.659   4.733 -32.479  1.00  0.00    -0.265 OA
HETATM    7  N   UNL     1      -3.358   4.167 -32.332  1.00  0.00    -0.236 N 
HETATM    8  N   UNL     1      -2.668   2.939 -32.424  1.00  0.00    -0.179 NA
HETATM    9  C   UNL     1      -6.050   1.622 -32.809  1.00  0.00     0.215 A 
HETATM   10  O   UNL     1      -7.188   2.073 -32.846  1.00  0.00    -0.285 OA
HETATM   11  C   UNL     1      -5.767   0.145 -32.919  1.00  0.00     0.112 A 
HETATM   12 CL   UNL     1      -7.114  -0.902 -33.167  1.00  0.00    -0.077 Cl
HETATM   13  H   UNL     1      -2.487   0.265 -32.704  1.00  0.00     0.167 HD
HETATM   14  H   UNL     1      -2.095   2.755 -31.600  1.00  0.00     0.155 HD
ENDROOT
BRANCH   1  15
HETATM   15  C   UNL     1      -4.100  -1.686 -32.929  1.00  0.00    -0.008 A 
HETATM   16  C   UNL     1      -3.364  -2.298 -31.906  1.00  0.00     0.014 A 
HETATM   17  C   UNL     1      -3.010  -3.644 -32.005  1.00  0.00     0.001 A 
HETATM   18  C   UNL     1      -3.390  -4.386 -33.124  1.00  0.00     0.000 A 
HETATM   19  C   UNL     1      -4.124  -3.784 -34.145  1.00  0.00     0.001 A 
HETATM   20  C   UNL     1      -4.481  -2.437 -34.049  1.00  0.00     0.014 A 
ENDBRANCH   1  15
BRANCH   7  21
HETATM   21  C   UNL     1      -2.654   5.379 -32.161  1.00  0.00     0.055 A 
HETATM   22  C   UNL     1      -2.754   6.115 -30.974  1.00  0.00     0.031 A 
HETATM   23  C   UNL     1      -2.044   7.310 -30.807  1.00  0.00     0.002 A 
HETATM   24  C   UNL     1      -1.226   7.788 -31.827  1.00  0.00     0.000 A 
HETATM   25  C   UNL     1      -1.120   7.074 -33.016  1.00  0.00     0.002 A 
HETATM   26  C   UNL     1      -1.829   5.879 -33.181  1.00  0.00     0.031 A 
ENDBRANCH   7  21
TORSDOF 2
ENDMDL
MODEL 4
REMARK VINA RESULT:      -8.4      6.299      8.160
REMARK  2 active torsions:
REMARK  status: ('A' for Active; 'I' for Inactive)
REMARK    1  A    between atoms: C_4  and  C_5 
REMARK    2  A    between atoms: N_11  and  C_12 
ROOT
HETATM    1  C   UNL     1     -11.709   2.169 -33.487  1.00  0.00     0.069 A 
HETATM    2  N   UNL     1     -10.997   0.994 -33.318  1.00  0.00    -0.343 N 
HETATM    3  C   UNL     1      -9.659   0.920 -33.575  1.00  0.00     0.119 A 
HETATM    4  C   UNL     1      -8.963   2.013 -33.930  1.00  0.00     0.125 A 
HETATM    5  C   UNL     1      -7.553   1.604 -34.040  1.00  0.00     0.280 A 
HETATM    6  O   UNL     1      -6.631   2.348 -34.326  1.00  0.00    -0.265 OA
HETATM    7  N   UNL     1      -7.540   0.234 -33.739  1.00  0.00    -0.236 N 
HETATM    8  N   UNL     1      -8.858  -0.202 -33.483  1.00  0.00    -0.179 NA
HETATM    9  C   UNL     1      -9.620   3.318 -34.078  1.00  0.00     0.215 A 
HETATM   10  O   UNL     1      -8.998   4.333 -34.368  1.00  0.00    -0.285 OA
HETATM   11  C   UNL     1     -11.111   3.327 -33.848  1.00  0.00     0.112 A 
HETATM   12 CL   UNL     1     -11.936   4.824 -34.073  1.00  0.00    -0.077 Cl
HETATM   13  H   UNL     1     -11.516   0.130 -33.192  1.00  0.00     0.167 HD
HETATM   14  H   UNL     1      -8.950  -0.638 -32.565  1.00  0.00     0.155 HD
ENDROOT
BRANCH   1  15
HETATM   15  C   UNL     1     -13.158   2.070 -33.252  1.00  0.00    -0.008 A 
HETATM   16  C   UNL     1     -13.950   1.247 -34.063  1.00  0.00     0.014 A 
HETATM   17  C   UNL     1     -15.323   1.147 -33.832  1.00  0.00     0.001 A 
HETATM   18  C   UNL     1     -15.911   1.866 -32.791  1.00  0.00     0.000 A 
HETATM   19  C   UNL     1     -15.128   2.687 -31.979  1.00  0.00     0.001 A 
HETATM   20  C   UNL     1     -13.754   2.788 -32.207  1.00  0.00     0.014 A 
ENDBRANCH   1  15
BRANCH   7  21
HETATM   21  C   UNL     1      -6.462  -0.677 -33.715  1.00  0.00     0.055 A 
HETATM   22  C   UNL     1      -5.448  -0.577 -32.755  1.00  0.00     0.031 A 
HETATM   23  C   UNL     1      -4.388  -1.491 -32.730  1.00  0.00     0.002 A 
HETATM   24  C   UNL     1      -4.326  -2.517 -33.668  1.00  0.00     0.000 A 
HETATM   25  C   UNL     1      -5.320  -2.629 -34.633  1.00  0.00     0.002 A 
HETATM   26  C   UNL     1      -6.380  -1.715 -34.657  1.00  0.00     0.031 A 
ENDBRANCH   7  21
TORSDOF 2
ENDMDL
MODEL 5
REMARK VINA RESULT:      -8.4      4.978      8.588
REMARK  2 active torsions:
REMARK  status: ('A' for Active; 'I' for Inactive)
REMARK    1  A    between atoms: C_4  and  C_5 
REMARK    2  A    between atoms: N_11  and  C_12 
ROOT
HETATM    1  C   UNL     1      -6.243  -0.877 -34.088  1.00  0.00     0.069 A 
HETATM    2  N   UNL     1      -7.519  -0.541 -34.508  1.00  0.00    -0.343 N 
HETATM    3  C   UNL     1      -8.035   0.707 -34.311  1.00  0.00     0.119 A 
HETATM    4  C   UNL     1      -7.290   1.683 -33.766  1.00  0.00     0.125 A 
HETATM    5  C   UNL     1      -8.112   2.905 -33.781  1.00  0.00     0.280 A 
HETATM    6  O   UNL     1      -7.747   3.997 -33.381  1.00  0.00    -0.265 OA
HETATM    7  N   UNL     1      -9.336   2.521 -34.348  1.00  0.00    -0.236 N 
HETATM    8  N   UNL     1      -9.302   1.142 -34.647  1.00  0.00    -0.179 NA
HETATM    9  C   UNL     1      -5.906   1.438 -33.343  1.00  0.00     0.215 A 
HETATM   10  O   UNL     1      -5.200   2.323 -32.876  1.00  0.00    -0.285 OA
HETATM   11  C   UNL     1      -5.410   0.025 -33.522  1.00  0.00     0.112 A 
HETATM   12 CL   UNL     1      -3.812  -0.327 -32.981  1.00  0.00    -0.077 Cl
HETATM   13  H   UNL     1      -8.147  -1.288 -34.787  1.00  0.00     0.167 HD
HETATM   14  H   UNL     1      -9.501   0.954 -35.630  1.00  0.00     0.155 HD
ENDROOT
BRANCH   1  15
HETATM   15  C   UNL     1      -5.860  -2.283 -34.295  1.00  0.00    -0.008 A 
HETATM   16  C   UNL     1      -4.546  -2.701 -34.045  1.00  0.00     0.014 A 
HETATM   17  C   UNL     1      -4.187  -4.036 -34.234  1.00  0.00     0.001 A 
HETATM   18  C   UNL     1      -5.137  -4.960 -34.672  1.00  0.00     0.000 A 
HETATM   19  C   UNL     1      -6.446  -4.551 -34.921  1.00  0.00     0.001 A 
HETATM   20  C   UNL     1      -6.809  -3.216 -34.732  1.00  0.00     0.014 A 
ENDBRANCH   1  15
BRANCH   7  21
HETATM   21  C   UNL     1     -10.502   3.281 -34.584  1.00  0.00     0.055 A 
HETATM   22  C   UNL     1     -10.437   4.540 -35.194  1.00  0.00     0.031 A 
HETATM   23  C   UNL     1     -11.599   5.283 -35.436  1.00  0.00     0.002 A 
HETATM   24  C   UNL     1     -12.842   4.779 -35.068  1.00  0.00     0.000 A 
HETATM   25  C   UNL     1     -12.926   3.534 -34.455  1.00  0.00     0.002 A 
HETATM   26  C   UNL     1     -11.765   2.791 -34.214  1.00  0.00     0.031 A 
ENDBRANCH   7  21
TORSDOF 2
ENDMDL
MODEL 6
REMARK VINA RESULT:      -8.3      4.813      6.035
REMARK  2 active torsions:
REMARK  status: ('A' for Active; 'I' for Inactive)
REMARK    1  A    between atoms: C_4  and  C_5 
REMARK    2  A    between atoms: N_11  and  C_12 
ROOT
HETATM    1  C   UNL     1      -9.565   2.824 -33.733  1.00  0.00     0.069 A 
HETATM    2  N   UNL     1      -9.195   1.717 -34.479  1.00  0.00    -0.343 N 
HETATM    3  C   UNL     1      -8.285   0.811 -34.017  1.00  0.00     0.119 A 
HETATM    4  C   UNL     1      -7.768   0.920 -32.782  1.00  0.00     0.125 A 
HETATM    5  C   UNL     1      -6.903  -0.254 -32.576  1.00  0.00     0.280 A 
HETATM    6  O   UNL     1      -6.286  -0.495 -31.554  1.00  0.00    -0.265 OA
HETATM    7  N   UNL     1      -6.977  -0.982 -33.773  1.00  0.00    -0.236 N 
HETATM    8  N   UNL     1      -7.811  -0.301 -34.685  1.00  0.00    -0.179 NA
HETATM    9  C   UNL     1      -8.145   2.028 -31.895  1.00  0.00     0.215 A 
HETATM   10  O   UNL     1      -7.711   2.126 -30.753  1.00  0.00    -0.285 OA
HETATM   11  C   UNL     1      -9.102   3.036 -32.481  1.00  0.00     0.112 A 
HETATM   12 CL   UNL     1      -9.524   4.388 -31.500  1.00  0.00    -0.077 Cl
HETATM   13  H   UNL     1      -9.456   1.687 -35.460  1.00  0.00     0.167 HD
HETATM   14  H   UNL     1      -8.582  -0.883 -35.013  1.00  0.00     0.155 HD
ENDROOT
BRANCH   1  15
HETATM   15  C   UNL     1     -10.492   3.753 -34.400  1.00  0.00    -0.008 A 
HETATM   16  C   UNL     1     -11.828   3.388 -34.609  1.00  0.00     0.014 A 
HETATM   17  C   UNL     1     -12.707   4.274 -35.233  1.00  0.00     0.001 A 
HETATM   18  C   UNL     1     -12.258   5.528 -35.649  1.00  0.00     0.000 A 
HETATM   19  C   UNL     1     -10.929   5.897 -35.443  1.00  0.00     0.001 A 
HETATM   20  C   UNL     1     -10.047   5.014 -34.818  1.00  0.00     0.014 A 
ENDBRANCH   1  15
BRANCH   7  21
HETATM   21  C   UNL     1      -6.330  -2.181 -34.143  1.00  0.00     0.055 A 
HETATM   22  C   UNL     1      -4.937  -2.305 -34.079  1.00  0.00     0.031 A 
HETATM   23  C   UNL     1      -4.304  -3.501 -34.436  1.00  0.00     0.002 A 
HETATM   24  C   UNL     1      -5.056  -4.591 -34.867  1.00  0.00     0.000 A 
HETATM   25  C   UNL     1      -6.440  -4.485 -34.943  1.00  0.00     0.002 A 
HETATM   26  C   UNL     1      -7.072  -3.289 -34.585  1.00  0.00     0.031 A 
ENDBRANCH   7  21
TORSDOF 2
ENDMDL
MODEL 7
REMARK VINA RESULT:      -8.0      3.681      4.749
REMARK  2 active torsions:
REMARK  status: ('A' for Active; 'I' for Inactive)
REMARK    1  A    between atoms: C_4  and  C_5 
REMARK    2  A    between atoms: N_11  and  C_12 
ROOT
HETATM    1  C   UNL     1      -2.250   5.810 -31.320  1.00  0.00     0.069 A 
HETATM    2  N   UNL     1      -3.119   4.843 -30.845  1.00  0.00    -0.343 N 
HETATM    3  C   UNL     1      -4.136   4.352 -31.611  1.00  0.00     0.119 A 
HETATM    4  C   UNL     1      -4.285   4.737 -32.890  1.00  0.00     0.125 A 
HETATM    5  C   UNL     1      -5.407   3.959 -33.441  1.00  0.00     0.280 A 
HETATM    6  O   UNL     1      -5.811   4.035 -34.588  1.00  0.00    -0.265 OA
HETATM    7  N   UNL     1      -5.854   3.153 -32.384  1.00  0.00    -0.236 N 
HETATM    8  N   UNL     1      -5.085   3.422 -31.232  1.00  0.00    -0.179 NA
HETATM    9  C   UNL     1      -3.376   5.715 -33.500  1.00  0.00     0.215 A 
HETATM   10  O   UNL     1      -3.475   6.054 -34.673  1.00  0.00    -0.285 OA
HETATM   11  C   UNL     1      -2.313   6.275 -32.589  1.00  0.00     0.112 A 
HETATM   12 CL   UNL     1      -1.261   7.473 -33.243  1.00  0.00    -0.077 Cl
HETATM   13  H   UNL     1      -3.119   4.642 -29.850  1.00  0.00     0.167 HD
HETATM   14  H   UNL     1      -4.640   2.583 -30.859  1.00  0.00     0.155 HD
ENDROOT
BRANCH   1  15
HETATM   15  C   UNL     1      -1.258   6.300 -30.349  1.00  0.00    -0.008 A 
HETATM   16  C   UNL     1      -1.379   7.584 -29.802  1.00  0.00     0.014 A 
HETATM   17  C   UNL     1      -0.443   8.043 -28.875  1.00  0.00     0.001 A 
HETATM   18  C   UNL     1       0.617   7.223 -28.488  1.00  0.00     0.000 A 
HETATM   19  C   UNL     1       0.743   5.943 -29.028  1.00  0.00     0.001 A 
HETATM   20  C   UNL     1      -0.192   5.480 -29.955  1.00  0.00     0.014 A 
ENDBRANCH   1  15
BRANCH   7  21
HETATM   21  C   UNL     1      -6.918   2.226 -32.340  1.00  0.00     0.055 A 
HETATM   22  C   UNL     1      -8.084   2.493 -31.612  1.00  0.00     0.031 A 
HETATM   23  C   UNL     1      -9.140   1.575 -31.583  1.00  0.00     0.002 A 
HETATM   24  C   UNL     1      -9.044   0.374 -32.279  1.00  0.00     0.000 A 
HETATM   25  C   UNL     1      -7.891   0.088 -33.003  1.00  0.00     0.002 A 
HETATM   26  C   UNL     1      -6.837   1.007 -33.032  1.00  0.00     0.031 A 
ENDBRANCH   7  21
TORSDOF 2
ENDMDL
MODEL 8
REMARK VINA RESULT:      -7.9      2.567      3.411
REMARK  2 active torsions:
REMARK  status: ('A' for Active; 'I' for Inactive)
REMARK    1  A    between atoms: C_4  and  C_5 
REMARK    2  A    between atoms: N_11  and  C_12 
ROOT
HETATM    1  C   UNL     1      -2.992   5.697 -31.563  1.00  0.00     0.069 A 
HETATM    2  N   UNL     1      -3.011   4.341 -31.840  1.00  0.00    -0.343 N 
HETATM    3  C   UNL     1      -4.111   3.730 -32.368  1.00  0.00     0.119 A 
HETATM    4  C   UNL     1      -5.197   4.443 -32.711  1.00  0.00     0.125 A 
HETATM    5  C   UNL     1      -6.149   3.501 -33.324  1.00  0.00     0.280 A 
HETATM    6  O   UNL     1      -7.240   3.805 -33.774  1.00  0.00    -0.265 OA
HETATM    7  N   UNL     1      -5.516   2.250 -33.273  1.00  0.00    -0.236 N 
HETATM    8  N   UNL     1      -4.260   2.385 -32.645  1.00  0.00    -0.179 NA
HETATM    9  C   UNL     1      -5.248   5.896 -32.510  1.00  0.00     0.215 A 
HETATM   10  O   UNL     1      -6.216   6.568 -32.847  1.00  0.00    -0.285 OA
HETATM   11  C   UNL     1      -4.032   6.508 -31.861  1.00  0.00     0.112 A 
HETATM   12 CL   UNL     1      -4.071   8.202 -31.546  1.00  0.00    -0.077 Cl
HETATM   13  H   UNL     1      -2.268   3.761 -31.462  1.00  0.00     0.167 HD
HETATM   14  H   UNL     1      -3.496   2.050 -33.232  1.00  0.00     0.155 HD
ENDROOT
BRANCH   1  15
HETATM   15  C   UNL     1      -1.765   6.193 -30.918  1.00  0.00    -0.008 A 
HETATM   16  C   UNL     1      -0.584   6.331 -31.659  1.00  0.00     0.014 A 
HETATM   17  C   UNL     1       0.576   6.809 -31.048  1.00  0.00     0.001 A 
HETATM   18  C   UNL     1       0.562   7.154 -29.696  1.00  0.00     0.000 A 
HETATM   19  C   UNL     1      -0.610   7.021 -28.953  1.00  0.00     0.001 A 
HETATM   20  C   UNL     1      -1.772   6.543 -29.562  1.00  0.00     0.014 A 
ENDBRANCH   1  15
BRANCH   7  21
HETATM   21  C   UNL     1      -5.978   0.985 -33.697  1.00  0.00     0.055 A 
HETATM   22  C   UNL     1      -5.457  -0.197 -33.157  1.00  0.00     0.031 A 
HETATM   23  C   UNL     1      -5.927  -1.448 -33.574  1.00  0.00     0.002 A 
HETATM   24  C   UNL     1      -6.925  -1.534 -34.540  1.00  0.00     0.000 A 
HETATM   25  C   UNL     1      -7.450  -0.371 -35.094  1.00  0.00     0.002 A 
HETATM   26  C   UNL     1      -6.980   0.878 -34.676  1.00  0.00     0.031 A 
ENDBRANCH   7  21
TORSDOF 2
ENDMDL
MODEL 9
REMARK VINA RESULT:      -7.8      8.666     12.805
REMARK  2 active torsions:
REMARK  status: ('A' for Active; 'I' for Inactive)
REMARK    1  A    between atoms: C_4  and  C_5 
REMARK    2  A    between atoms: N_11  and  C_12 
ROOT
HETATM    1  C   UNL     1       0.607   7.758 -27.335  1.00  0.00     0.069 A 
HETATM    2  N   UNL     1       1.768   7.650 -26.587  1.00  0.00    -0.343 N 
HETATM    3  C   UNL     1       1.960   8.381 -25.450  1.00  0.00     0.119 A 
HETATM    4  C   UNL     1       0.992   9.178 -24.970  1.00  0.00     0.125 A 
HETATM    5  C   UNL     1       1.490   9.739 -23.703  1.00  0.00     0.280 A 
HETATM    6  O   UNL     1       0.864  10.493 -22.979  1.00  0.00    -0.265 OA
HETATM    7  N   UNL     1       2.779   9.207 -23.545  1.00  0.00    -0.236 N 
HETATM    8  N   UNL     1       3.087   8.388 -24.651  1.00  0.00    -0.179 NA
HETATM    9  C   UNL     1      -0.296   9.312 -25.662  1.00  0.00     0.215 A 
HETATM   10  O   UNL     1      -1.204  10.008 -25.223  1.00  0.00    -0.285 OA
HETATM   11  C   UNL     1      -0.429   8.536 -26.948  1.00  0.00     0.112 A 
HETATM   12 CL   UNL     1      -1.900   8.711 -27.829  1.00  0.00    -0.077 Cl
HETATM   13  H   UNL     1       2.563   7.172 -26.998  1.00  0.00     0.167 HD
HETATM   14  H   UNL     1       3.339   7.439 -24.372  1.00  0.00     0.155 HD
ENDROOT
BRANCH   1  15
HETATM   15  C   UNL     1       0.582   6.971 -28.579  1.00  0.00    -0.008 A 
HETATM   16  C   UNL     1       0.491   7.615 -29.820  1.00  0.00     0.014 A 
HETATM   17  C   UNL     1       0.476   6.868 -30.998  1.00  0.00     0.001 A 
HETATM   18  C   UNL     1       0.555   5.476 -30.944  1.00  0.00     0.000 A 
HETATM   19  C   UNL     1       0.647   4.829 -29.712  1.00  0.00     0.001 A 
HETATM   20  C   UNL     1       0.663   5.573 -28.531  1.00  0.00     0.014 A 
ENDBRANCH   1  15
BRANCH   7  21
HETATM   21  C   UNL     1       3.727   9.423 -22.521  1.00  0.00     0.055 A 
HETATM   22  C   UNL     1       4.291  10.686 -22.307  1.00  0.00     0.031 A 
HETATM   23  C   UNL     1       5.221  10.895 -21.283  1.00  0.00     0.002 A 
HETATM   24  C   UNL     1       5.603   9.841 -20.458  1.00  0.00     0.000 A 
HETATM   25  C   UNL     1       5.059   8.578 -20.658  1.00  0.00     0.002 A 
HETATM   26  C   UNL     1       4.128   8.370 -21.682  1.00  0.00     0.031 A 
ENDBRANCH   7  21
TORSDOF 2
ENDMDL
MODEL 10
REMARK VINA RESULT:      -7.8      3.643      8.785
REMARK  2 active torsions:
REMARK  status: ('A' for Active; 'I' for Inactive)
REMARK    1  A    between atoms: C_4  and  C_5 
REMARK    2  A    between atoms: N_11  and  C_12 
ROOT
HETATM    1  C   UNL     1      -3.895   4.100 -32.292  1.00  0.00     0.069 A 
HETATM    2  N   UNL     1      -3.323   4.446 -31.079  1.00  0.00    -0.343 N 
HETATM    3  C   UNL     1      -2.575   5.578 -30.933  1.00  0.00     0.119 A 
HETATM    4  C   UNL     1      -2.430   6.445 -31.950  1.00  0.00     0.125 A 
HETATM    5  C   UNL     1      -1.652   7.583 -31.432  1.00  0.00     0.280 A 
HETATM    6  O   UNL     1      -1.348   8.571 -32.077  1.00  0.00    -0.265 OA
HETATM    7  N   UNL     1      -1.380   7.266 -30.092  1.00  0.00    -0.236 N 
HETATM    8  N   UNL     1      -1.925   6.000 -29.790  1.00  0.00    -0.179 NA
HETATM    9  C   UNL     1      -3.049   6.194 -33.257  1.00  0.00     0.215 A 
HETATM   10  O   UNL     1      -2.956   6.987 -34.186  1.00  0.00    -0.285 OA
HETATM   11  C   UNL     1      -3.806   4.895 -33.382  1.00  0.00     0.112 A 
HETATM   12 CL   UNL     1      -4.496   4.527 -34.918  1.00  0.00    -0.077 Cl
HETATM   13  H   UNL     1      -3.295   3.747 -30.343  1.00  0.00     0.167 HD
HETATM   14  H   UNL     1      -2.569   6.035 -28.999  1.00  0.00     0.155 HD
ENDROOT
BRANCH   1  15
HETATM   15  C   UNL     1      -4.600   2.808 -32.313  1.00  0.00    -0.008 A 
HETATM   16  C   UNL     1      -3.879   1.612 -32.428  1.00  0.00     0.014 A 
HETATM   17  C   UNL     1      -4.550   0.389 -32.438  1.00  0.00     0.001 A 
HETATM   18  C   UNL     1      -5.940   0.352 -32.332  1.00  0.00     0.000 A 
HETATM   19  C   UNL     1      -6.663   1.539 -32.216  1.00  0.00     0.001 A 
HETATM   20  C   UNL     1      -5.996   2.765 -32.204  1.00  0.00     0.014 A 
ENDBRANCH   1  15
BRANCH   7  21
HETATM   21  C   UNL     1      -0.649   7.987 -29.124  1.00  0.00     0.055 A 
HETATM   22  C   UNL     1       0.689   7.679 -28.846  1.00  0.00     0.031 A 
HETATM   23  C   UNL     1       1.411   8.406 -27.892  1.00  0.00     0.002 A 
HETATM   24  C   UNL     1       0.805   9.449 -27.199  1.00  0.00     0.000 A 
HETATM   25  C   UNL     1      -0.525   9.765 -27.456  1.00  0.00     0.002 A 
HETATM   26  C   UNL     1      -1.246   9.039 -28.410  1.00  0.00     0.031 A 
ENDBRANCH   7  21
TORSDOF 2
ENDMDL
