MODEL 1
REMARK VINA RESULT:      -8.7      0.000      0.000
REMARK  2 active torsions:
REMARK  status: ('A' for Active; 'I' for Inactive)
REMARK    1  A    between atoms: C_2  and  N_3 
REMARK    2  A    between atoms: N_3  and  C_4 
ROOT
HETATM    1  C   UNL     1      -5.258   0.577 -33.005  1.00  0.00     0.143 A 
HETATM    2  N   UNL     1      -4.754   1.528 -32.181  1.00  0.00    -0.223 NA
HETATM    3  C   UNL     1      -3.758   1.224 -31.339  1.00  0.00     0.236 A 
HETATM    4  N   UNL     1      -3.161   0.046 -31.190  1.00  0.00    -0.234 NA
HETATM    5  C   UNL     1      -3.656  -0.885 -32.019  1.00  0.00     0.114 A 
HETATM    6  C   UNL     1      -4.673  -0.720 -32.954  1.00  0.00     0.053 A 
HETATM    7  S   UNL     1      -3.029  -2.467 -31.976  1.00  0.00    -0.073 SA
HETATM    8  C   UNL     1      -4.075  -2.979 -33.206  1.00  0.00    -0.008 A 
HETATM    9  C   UNL     1      -4.888  -1.963 -33.680  1.00  0.00    -0.028 A 
HETATM   10  C   UNL     1      -5.866  -2.220 -34.795  1.00  0.00     0.041 C 
HETATM   11  C   UNL     1      -5.599  -3.546 -35.524  1.00  0.00     0.005 C 
HETATM   12  C   UNL     1      -5.299  -4.685 -34.546  1.00  0.00     0.005 C 
HETATM   13  C   UNL     1      -4.043  -4.387 -33.717  1.00  0.00     0.047 C 
ENDROOT
BRANCH   1  14
HETATM   14  N   UNL     1      -6.328   0.877 -33.863  1.00  0.00    -0.340 N 
HETATM   15  H   UNL     1      -6.038   1.042 -34.814  1.00  0.00     0.167 HD
BRANCH  14  16
HETATM   16  C   UNL     1      -7.729   0.837 -33.712  1.00  0.00     0.036 A 
HETATM   17  C   UNL     1      -8.411  -0.129 -32.941  1.00  0.00     0.032 A 
HETATM   18  C   UNL     1      -9.806  -0.111 -32.800  1.00  0.00     0.042 A 
HETATM   19  C   UNL     1     -10.502   0.892 -33.431  1.00  0.00     0.105 A 
HETATM   20  C   UNL     1      -9.860   1.848 -34.175  1.00  0.00     0.107 A 
HETATM   21  O   UNL     1     -11.849   1.072 -33.403  1.00  0.00    -0.323 OA
HETATM   22  C   UNL     1      -8.488   1.849 -34.330  1.00  0.00     0.069 A 
HETATM   23  O   UNL     1     -10.720   2.756 -34.710  1.00  0.00    -0.323 OA
HETATM   24  C   UNL     1     -11.980   2.258 -34.214  1.00  0.00     0.352 A 
ENDBRANCH  14  16
ENDBRANCH   1  14
TORSDOF 2
ENDMDL
MODEL 2
REMARK VINA RESULT:      -8.6      1.635      2.484
REMARK  2 active torsions:
REMARK  status: ('A' for Active; 'I' for Inactive)
REMARK    1  A    between atoms: C_2  and  N_3 
REMARK    2  A    between atoms: N_3  and  C_4 
ROOT
HETATM    1  C   UNL     1      -7.549   0.469 -32.657  1.00  0.00     0.143 A 
HETATM    2  N   UNL     1      -7.343   1.683 -32.092  1.00  0.00    -0.223 NA
HETATM    3  C   UNL     1      -6.095   2.135 -31.915  1.00  0.00     0.236 A 
HETATM    4  N   UNL     1      -4.962   1.518 -32.233  1.00  0.00    -0.234 NA
HETATM    5  C   UNL     1      -5.176   0.324 -32.804  1.00  0.00     0.114 A 
HETATM    6  C   UNL     1      -6.405  -0.272 -33.067  1.00  0.00     0.053 A 
HETATM    7  S   UNL     1      -3.847  -0.629 -33.278  1.00  0.00    -0.073 SA
HETATM    8  C   UNL     1      -4.860  -1.856 -33.862  1.00  0.00    -0.008 A 
HETATM    9  C   UNL     1      -6.205  -1.553 -33.731  1.00  0.00    -0.028 A 
HETATM   10  C   UNL     1      -7.258  -2.510 -34.219  1.00  0.00     0.041 C 
HETATM   11  C   UNL     1      -6.688  -3.602 -35.139  1.00  0.00     0.005 C 
HETATM   12  C   UNL     1      -5.379  -4.180 -34.594  1.00  0.00     0.005 C 
HETATM   13  C   UNL     1      -4.298  -3.097 -34.487  1.00  0.00     0.047 C 
ENDROOT
BRANCH   1  14
HETATM   14  N   UNL     1      -8.853  -0.030 -32.811  1.00  0.00    -0.340 N 
HETATM   15  H   UNL     1      -9.006  -0.894 -32.316  1.00  0.00     0.167 HD
BRANCH  14  16
HETATM   16  C   UNL     1     -10.030   0.501 -33.374  1.00  0.00     0.036 A 
HETATM   17  C   UNL     1     -10.059   1.624 -34.228  1.00  0.00     0.032 A 
HETATM   18  C   UNL     1     -11.256   2.099 -34.784  1.00  0.00     0.042 A 
HETATM   19  C   UNL     1     -12.415   1.428 -34.482  1.00  0.00     0.105 A 
HETATM   20  C   UNL     1     -12.410   0.327 -33.665  1.00  0.00     0.107 A 
HETATM   21  O   UNL     1     -13.660   1.737 -34.930  1.00  0.00    -0.323 OA
HETATM   22  C   UNL     1     -11.245  -0.157 -33.104  1.00  0.00     0.069 A 
HETATM   23  O   UNL     1     -13.652  -0.201 -33.495  1.00  0.00    -0.323 OA
HETATM   24  C   UNL     1     -14.440   0.699 -34.303  1.00  0.00     0.352 A 
ENDBRANCH  14  16
ENDBRANCH   1  14
TORSDOF 2
ENDMDL
MODEL 3
REMARK VINA RESULT:      -8.3      3.578      6.762
REMARK  2 active torsions:
REMARK  status: ('A' for Active; 'I' for Inactive)
REMARK    1  A    between atoms: C_2  and  N_3 
REMARK    2  A    between atoms: N_3  and  C_4 
ROOT
HETATM    1  C   UNL     1      -7.390   2.444 -33.208  1.00  0.00     0.143 A 
HETATM    2  N   UNL     1      -6.350   3.310 -33.127  1.00  0.00    -0.223 NA
HETATM    3  C   UNL     1      -6.489   4.565 -33.571  1.00  0.00     0.236 A 
HETATM    4  N   UNL     1      -7.570   5.111 -34.118  1.00  0.00    -0.234 NA
HETATM    5  C   UNL     1      -8.598   4.252 -34.183  1.00  0.00     0.114 A 
HETATM    6  C   UNL     1      -8.613   2.929 -33.751  1.00  0.00     0.053 A 
HETATM    7  S   UNL     1     -10.075   4.759 -34.860  1.00  0.00    -0.073 SA
HETATM    8  C   UNL     1     -10.787   3.245 -34.589  1.00  0.00    -0.008 A 
HETATM    9  C   UNL     1      -9.933   2.352 -33.964  1.00  0.00    -0.028 A 
HETATM   10  C   UNL     1     -10.396   0.964 -33.615  1.00  0.00     0.041 C 
HETATM   11  C   UNL     1     -11.923   0.809 -33.699  1.00  0.00     0.005 C 
HETATM   12  C   UNL     1     -12.495   1.470 -34.956  1.00  0.00     0.005 C 
HETATM   13  C   UNL     1     -12.212   2.978 -34.966  1.00  0.00     0.047 C 
ENDROOT
BRANCH   1  14
HETATM   14  N   UNL     1      -7.241   1.115 -32.779  1.00  0.00    -0.340 N 
HETATM   15  H   UNL     1      -7.899   0.856 -32.062  1.00  0.00     0.167 HD
BRANCH  14  16
HETATM   16  C   UNL     1      -6.481   0.027 -33.252  1.00  0.00     0.036 A 
HETATM   17  C   UNL     1      -5.076  -0.057 -33.147  1.00  0.00     0.032 A 
HETATM   18  C   UNL     1      -4.366  -1.175 -33.610  1.00  0.00     0.042 A 
HETATM   19  C   UNL     1      -5.084  -2.207 -34.165  1.00  0.00     0.105 A 
HETATM   20  C   UNL     1      -6.450  -2.153 -34.265  1.00  0.00     0.107 A 
HETATM   21  O   UNL     1      -4.571  -3.365 -34.658  1.00  0.00    -0.323 OA
HETATM   22  C   UNL     1      -7.170  -1.062 -33.819  1.00  0.00     0.069 A 
HETATM   23  O   UNL     1      -6.975  -3.271 -34.833  1.00  0.00    -0.323 OA
HETATM   24  C   UNL     1      -5.776  -4.037 -35.078  1.00  0.00     0.352 A 
ENDBRANCH  14  16
ENDBRANCH   1  14
TORSDOF 2
ENDMDL
MODEL 4
REMARK VINA RESULT:      -8.2      1.620      1.978
REMARK  2 active torsions:
REMARK  status: ('A' for Active; 'I' for Inactive)
REMARK    1  A    between atoms: C_2  and  N_3 
REMARK    2  A    between atoms: N_3  and  C_4 
ROOT
HETATM    1  C   UNL     1      -7.058   0.682 -31.530  1.00  0.00     0.143 A 
HETATM    2  N   UNL     1      -6.688   1.626 -30.631  1.00  0.00    -0.223 NA
HETATM    3  C   UNL     1      -5.396   1.780 -30.317  1.00  0.00     0.236 A 
HETATM    4  N   UNL     1      -4.363   1.091 -30.791  1.00  0.00    -0.234 NA
HETATM    5  C   UNL     1      -4.737   0.167 -31.689  1.00  0.00     0.114 A 
HETATM    6  C   UNL     1      -6.030  -0.101 -32.128  1.00  0.00     0.053 A 
HETATM    7  S   UNL     1      -3.559  -0.829 -32.409  1.00  0.00    -0.073 SA
HETATM    8  C   UNL     1      -4.724  -1.637 -33.338  1.00  0.00    -0.008 A 
HETATM    9  C   UNL     1      -6.005  -1.151 -33.136  1.00  0.00    -0.028 A 
HETATM   10  C   UNL     1      -7.171  -1.726 -33.894  1.00  0.00     0.041 C 
HETATM   11  C   UNL     1      -6.736  -2.590 -35.088  1.00  0.00     0.005 C 
HETATM   12  C   UNL     1      -5.576  -3.522 -34.724  1.00  0.00     0.005 C 
HETATM   13  C   UNL     1      -4.339  -2.725 -34.293  1.00  0.00     0.047 C 
ENDROOT
BRANCH   1  14
HETATM   14  N   UNL     1      -8.414   0.487 -31.837  1.00  0.00    -0.340 N 
HETATM   15  H   UNL     1      -8.878  -0.138 -31.198  1.00  0.00     0.167 HD
BRANCH  14  16
HETATM   16  C   UNL     1      -9.298   1.104 -32.745  1.00  0.00     0.036 A 
HETATM   17  C   UNL     1     -10.509   0.527 -33.183  1.00  0.00     0.032 A 
HETATM   18  C   UNL     1     -11.368   1.193 -34.069  1.00  0.00     0.042 A 
HETATM   19  C   UNL     1     -11.001   2.445 -34.499  1.00  0.00     0.105 A 
HETATM   20  C   UNL     1      -9.835   3.031 -34.078  1.00  0.00     0.107 A 
HETATM   21  O   UNL     1     -11.705   3.239 -35.349  1.00  0.00    -0.323 OA
HETATM   22  C   UNL     1      -8.973   2.393 -33.207  1.00  0.00     0.069 A 
HETATM   23  O   UNL     1      -9.655   4.272 -34.606  1.00  0.00    -0.323 OA
HETATM   24  C   UNL     1     -10.847   4.397 -35.410  1.00  0.00     0.352 A 
ENDBRANCH  14  16
ENDBRANCH   1  14
TORSDOF 2
ENDMDL
MODEL 5
REMARK VINA RESULT:      -8.0      4.564      6.908
REMARK  2 active torsions:
REMARK  status: ('A' for Active; 'I' for Inactive)
REMARK    1  A    between atoms: C_2  and  N_3 
REMARK    2  A    between atoms: N_3  and  C_4 
ROOT
HETATM    1  C   UNL     1      -5.455   2.656 -32.993  1.00  0.00     0.143 A 
HETATM    2  N   UNL     1      -6.224   3.772 -32.979  1.00  0.00    -0.223 NA
HETATM    3  C   UNL     1      -7.475   3.728 -33.453  1.00  0.00     0.236 A 
HETATM    4  N   UNL     1      -8.104   2.679 -33.972  1.00  0.00    -0.234 NA
HETATM    5  C   UNL     1      -7.341   1.576 -33.970  1.00  0.00     0.114 A 
HETATM    6  C   UNL     1      -6.036   1.459 -33.500  1.00  0.00     0.053 A 
HETATM    7  S   UNL     1      -7.963   0.123 -34.602  1.00  0.00    -0.073 SA
HETATM    8  C   UNL     1      -6.529  -0.711 -34.259  1.00  0.00    -0.008 A 
HETATM    9  C   UNL     1      -5.577   0.085 -33.644  1.00  0.00    -0.028 A 
HETATM   10  C   UNL     1      -4.246  -0.487 -33.236  1.00  0.00     0.041 C 
HETATM   11  C   UNL     1      -4.230  -2.024 -33.255  1.00  0.00     0.005 C 
HETATM   12  C   UNL     1      -4.909  -2.587 -34.506  1.00  0.00     0.005 C 
HETATM   13  C   UNL     1      -6.384  -2.169 -34.571  1.00  0.00     0.047 C 
ENDROOT
BRANCH   1  14
HETATM   14  N   UNL     1      -4.129   2.701 -32.533  1.00  0.00    -0.340 N 
HETATM   15  H   UNL     1      -3.790   1.807 -32.217  1.00  0.00     0.167 HD
BRANCH  14  16
HETATM   16  C   UNL     1      -3.126   3.691 -32.571  1.00  0.00     0.036 A 
HETATM   17  C   UNL     1      -2.780   4.418 -33.730  1.00  0.00     0.032 A 
HETATM   18  C   UNL     1      -1.792   5.413 -33.710  1.00  0.00     0.042 A 
HETATM   19  C   UNL     1      -1.167   5.674 -32.514  1.00  0.00     0.105 A 
HETATM   20  C   UNL     1      -1.496   4.989 -31.373  1.00  0.00     0.107 A 
HETATM   21  O   UNL     1      -0.195   6.600 -32.303  1.00  0.00    -0.323 OA
HETATM   22  C   UNL     1      -2.464   4.004 -31.369  1.00  0.00     0.069 A 
HETATM   23  O   UNL     1      -0.775   5.397 -30.294  1.00  0.00    -0.323 OA
HETATM   24  C   UNL     1       0.047   6.422 -30.893  1.00  0.00     0.352 A 
ENDBRANCH  14  16
ENDBRANCH   1  14
TORSDOF 2
ENDMDL
MODEL 6
REMARK VINA RESULT:      -7.9      3.812      6.041
REMARK  2 active torsions:
REMARK  status: ('A' for Active; 'I' for Inactive)
REMARK    1  A    between atoms: C_2  and  N_3 
REMARK    2  A    between atoms: N_3  and  C_4 
ROOT
HETATM    1  C   UNL     1      -3.655   0.815 -31.516  1.00  0.00     0.143 A 
HETATM    2  N   UNL     1      -2.565   0.178 -31.024  1.00  0.00    -0.223 NA
HETATM    3  C   UNL     1      -2.273  -1.062 -31.434  1.00  0.00     0.236 A 
HETATM    4  N   UNL     1      -2.948  -1.801 -32.309  1.00  0.00    -0.234 NA
HETATM    5  C   UNL     1      -4.017  -1.158 -32.801  1.00  0.00     0.114 A 
HETATM    6  C   UNL     1      -4.440   0.130 -32.487  1.00  0.00     0.053 A 
HETATM    7  S   UNL     1      -5.019  -1.940 -33.933  1.00  0.00    -0.073 SA
HETATM    8  C   UNL     1      -6.037  -0.590 -34.054  1.00  0.00    -0.008 A 
HETATM    9  C   UNL     1      -5.621   0.470 -33.266  1.00  0.00    -0.028 A 
HETATM   10  C   UNL     1      -6.384   1.767 -33.262  1.00  0.00     0.041 C 
HETATM   11  C   UNL     1      -7.379   1.875 -34.428  1.00  0.00     0.005 C 
HETATM   12  C   UNL     1      -8.161   0.574 -34.632  1.00  0.00     0.005 C 
HETATM   13  C   UNL     1      -7.222  -0.590 -34.971  1.00  0.00     0.047 C 
ENDROOT
BRANCH   1  14
HETATM   14  N   UNL     1      -3.991   2.101 -31.062  1.00  0.00    -0.340 N 
HETATM   15  H   UNL     1      -4.402   2.100 -30.143  1.00  0.00     0.167 HD
BRANCH  14  16
HETATM   16  C   UNL     1      -3.727   3.397 -31.550  1.00  0.00     0.036 A 
HETATM   17  C   UNL     1      -4.334   4.567 -31.045  1.00  0.00     0.032 A 
HETATM   18  C   UNL     1      -4.017   5.838 -31.547  1.00  0.00     0.042 A 
HETATM   19  C   UNL     1      -3.081   5.918 -32.549  1.00  0.00     0.105 A 
HETATM   20  C   UNL     1      -2.470   4.796 -33.046  1.00  0.00     0.107 A 
HETATM   21  O   UNL     1      -2.647   7.057 -33.151  1.00  0.00    -0.323 OA
HETATM   22  C   UNL     1      -2.767   3.535 -32.569  1.00  0.00     0.069 A 
HETATM   23  O   UNL     1      -1.569   5.084 -34.024  1.00  0.00    -0.323 OA
HETATM   24  C   UNL     1      -1.686   6.521 -34.083  1.00  0.00     0.352 A 
ENDBRANCH  14  16
ENDBRANCH   1  14
TORSDOF 2
ENDMDL
MODEL 7
REMARK VINA RESULT:      -7.8      3.632      6.501
REMARK  2 active torsions:
REMARK  status: ('A' for Active; 'I' for Inactive)
REMARK    1  A    between atoms: C_2  and  N_3 
REMARK    2  A    between atoms: N_3  and  C_4 
ROOT
HETATM    1  C   UNL     1      -6.364   1.407 -32.243  1.00  0.00     0.143 A 
HETATM    2  N   UNL     1      -5.418   1.519 -31.279  1.00  0.00    -0.223 NA
HETATM    3  C   UNL     1      -5.687   2.192 -30.154  1.00  0.00     0.236 A 
HETATM    4  N   UNL     1      -6.822   2.805 -29.834  1.00  0.00    -0.234 NA
HETATM    5  C   UNL     1      -7.757   2.678 -30.787  1.00  0.00     0.114 A 
HETATM    6  C   UNL     1      -7.634   2.001 -31.996  1.00  0.00     0.053 A 
HETATM    7  S   UNL     1      -9.282   3.402 -30.570  1.00  0.00    -0.073 SA
HETATM    8  C   UNL     1      -9.834   2.827 -32.066  1.00  0.00    -0.008 A 
HETATM    9  C   UNL     1      -8.888   2.066 -32.732  1.00  0.00    -0.028 A 
HETATM   10  C   UNL     1      -9.205   1.445 -34.066  1.00  0.00     0.041 C 
HETATM   11  C   UNL     1     -10.708   1.459 -34.386  1.00  0.00     0.005 C 
HETATM   12  C   UNL     1     -11.353   2.804 -34.040  1.00  0.00     0.005 C 
HETATM   13  C   UNL     1     -11.226   3.110 -32.542  1.00  0.00     0.047 C 
ENDROOT
BRANCH   1  14
HETATM   14  N   UNL     1      -6.077   0.736 -33.443  1.00  0.00    -0.340 N 
HETATM   15  H   UNL     1      -5.816   1.358 -34.191  1.00  0.00     0.167 HD
BRANCH  14  16
HETATM   16  C   UNL     1      -5.921  -0.625 -33.776  1.00  0.00     0.036 A 
HETATM   17  C   UNL     1      -6.829  -1.351 -34.575  1.00  0.00     0.032 A 
HETATM   18  C   UNL     1      -6.615  -2.698 -34.900  1.00  0.00     0.042 A 
HETATM   19  C   UNL     1      -5.476  -3.300 -34.423  1.00  0.00     0.105 A 
HETATM   20  C   UNL     1      -4.573  -2.612 -33.655  1.00  0.00     0.107 A 
HETATM   21  O   UNL     1      -5.100  -4.589 -34.638  1.00  0.00    -0.323 OA
HETATM   22  C   UNL     1      -4.764  -1.285 -33.320  1.00  0.00     0.069 A 
HETATM   23  O   UNL     1      -3.510  -3.377 -33.289  1.00  0.00    -0.323 OA
HETATM   24  C   UNL     1      -3.851  -4.630 -33.919  1.00  0.00     0.352 A 
ENDBRANCH  14  16
ENDBRANCH   1  14
TORSDOF 2
ENDMDL
MODEL 8
REMARK VINA RESULT:      -7.6      3.783      6.591
REMARK  2 active torsions:
REMARK  status: ('A' for Active; 'I' for Inactive)
REMARK    1  A    between atoms: C_2  and  N_3 
REMARK    2  A    between atoms: N_3  and  C_4 
ROOT
HETATM    1  C   UNL     1      -4.270   1.959 -32.253  1.00  0.00     0.143 A 
HETATM    2  N   UNL     1      -3.015   2.466 -32.187  1.00  0.00    -0.223 NA
HETATM    3  C   UNL     1      -2.779   3.722 -32.587  1.00  0.00     0.236 A 
HETATM    4  N   UNL     1      -3.659   4.591 -33.074  1.00  0.00    -0.234 NA
HETATM    5  C   UNL     1      -4.900   4.086 -33.123  1.00  0.00     0.114 A 
HETATM    6  C   UNL     1      -5.304   2.813 -32.731  1.00  0.00     0.053 A 
HETATM    7  S   UNL     1      -6.173   5.043 -33.725  1.00  0.00    -0.073 SA
HETATM    8  C   UNL     1      -7.303   3.806 -33.471  1.00  0.00    -0.008 A 
HETATM    9  C   UNL     1      -6.742   2.671 -32.909  1.00  0.00    -0.028 A 
HETATM   10  C   UNL     1      -7.595   1.474 -32.584  1.00  0.00     0.041 C 
HETATM   11  C   UNL     1      -9.099   1.792 -32.611  1.00  0.00     0.005 C 
HETATM   12  C   UNL     1      -9.479   2.647 -33.824  1.00  0.00     0.005 C 
HETATM   13  C   UNL     1      -8.752   3.997 -33.800  1.00  0.00     0.047 C 
ENDROOT
BRANCH   1  14
HETATM   14  N   UNL     1      -4.520   0.631 -31.871  1.00  0.00    -0.340 N 
HETATM   15  H   UNL     1      -4.864   0.550 -30.928  1.00  0.00     0.167 HD
BRANCH  14  16
HETATM   16  C   UNL     1      -4.546  -0.588 -32.577  1.00  0.00     0.036 A 
HETATM   17  C   UNL     1      -5.268  -0.793 -33.772  1.00  0.00     0.032 A 
HETATM   18  C   UNL     1      -5.240  -2.019 -34.452  1.00  0.00     0.042 A 
HETATM   19  C   UNL     1      -4.473  -3.029 -33.924  1.00  0.00     0.105 A 
HETATM   20  C   UNL     1      -3.753  -2.850 -32.771  1.00  0.00     0.107 A 
HETATM   21  O   UNL     1      -4.321  -4.275 -34.444  1.00  0.00    -0.323 OA
HETATM   22  C   UNL     1      -3.767  -1.652 -32.083  1.00  0.00     0.069 A 
HETATM   23  O   UNL     1      -3.052  -3.960 -32.416  1.00  0.00    -0.323 OA
HETATM   24  C   UNL     1      -3.416  -4.860 -33.484  1.00  0.00     0.352 A 
ENDBRANCH  14  16
ENDBRANCH   1  14
TORSDOF 2
ENDMDL
MODEL 9
REMARK VINA RESULT:      -7.5      4.349      6.959
REMARK  2 active torsions:
REMARK  status: ('A' for Active; 'I' for Inactive)
REMARK    1  A    between atoms: C_2  and  N_3 
REMARK    2  A    between atoms: N_3  and  C_4 
ROOT
HETATM    1  C   UNL     1      -4.162   3.122 -31.190  1.00  0.00     0.143 A 
HETATM    2  N   UNL     1      -5.112   2.905 -30.248  1.00  0.00    -0.223 NA
HETATM    3  C   UNL     1      -5.699   3.943 -29.639  1.00  0.00     0.236 A 
HETATM    4  N   UNL     1      -5.463   5.235 -29.842  1.00  0.00    -0.234 NA
HETATM    5  C   UNL     1      -4.532   5.441 -30.784  1.00  0.00     0.114 A 
HETATM    6  C   UNL     1      -3.846   4.473 -31.512  1.00  0.00     0.053 A 
HETATM    7  S   UNL     1      -4.079   7.032 -31.184  1.00  0.00    -0.073 SA
HETATM    8  C   UNL     1      -2.972   6.489 -32.346  1.00  0.00    -0.008 A 
HETATM    9  C   UNL     1      -2.948   5.110 -32.464  1.00  0.00    -0.028 A 
HETATM   10  C   UNL     1      -2.045   4.441 -33.465  1.00  0.00     0.041 C 
HETATM   11  C   UNL     1      -1.480   5.423 -34.504  1.00  0.00     0.005 C 
HETATM   12  C   UNL     1      -1.006   6.728 -33.857  1.00  0.00     0.005 C 
HETATM   13  C   UNL     1      -2.165   7.453 -33.161  1.00  0.00     0.047 C 
ENDROOT
BRANCH   1  14
HETATM   14  N   UNL     1      -3.512   2.040 -31.805  1.00  0.00    -0.340 N 
HETATM   15  H   UNL     1      -2.511   2.071 -31.704  1.00  0.00     0.167 HD
BRANCH  14  16
HETATM   16  C   UNL     1      -3.972   0.843 -32.390  1.00  0.00     0.036 A 
HETATM   17  C   UNL     1      -3.315  -0.399 -32.265  1.00  0.00     0.032 A 
HETATM   18  C   UNL     1      -3.828  -1.569 -32.845  1.00  0.00     0.042 A 
HETATM   19  C   UNL     1      -5.010  -1.476 -33.540  1.00  0.00     0.105 A 
HETATM   20  C   UNL     1      -5.672  -0.282 -33.664  1.00  0.00     0.107 A 
HETATM   21  O   UNL     1      -5.656  -2.497 -34.161  1.00  0.00    -0.323 OA
HETATM   22  C   UNL     1      -5.185   0.882 -33.104  1.00  0.00     0.069 A 
HETATM   23  O   UNL     1      -6.824  -0.398 -34.378  1.00  0.00    -0.323 OA
HETATM   24  C   UNL     1      -6.808  -1.808 -34.688  1.00  0.00     0.352 A 
ENDBRANCH  14  16
ENDBRANCH   1  14
TORSDOF 2
ENDMDL
MODEL 10
REMARK VINA RESULT:      -7.5      5.126      7.318
REMARK  2 active torsions:
REMARK  status: ('A' for Active; 'I' for Inactive)
REMARK    1  A    between atoms: C_2  and  N_3 
REMARK    2  A    between atoms: N_3  and  C_4 
ROOT
HETATM    1  C   UNL     1      -6.386   4.203 -33.858  1.00  0.00     0.143 A 
HETATM    2  N   UNL     1      -7.445   4.985 -34.183  1.00  0.00    -0.223 NA
HETATM    3  C   UNL     1      -8.665   4.682 -33.724  1.00  0.00     0.236 A 
HETATM    4  N   UNL     1      -9.003   3.655 -32.950  1.00  0.00    -0.234 NA
HETATM    5  C   UNL     1      -7.948   2.895 -32.623  1.00  0.00     0.114 A 
HETATM    6  C   UNL     1      -6.624   3.088 -33.006  1.00  0.00     0.053 A 
HETATM    7  S   UNL     1      -8.174   1.522 -31.642  1.00  0.00    -0.073 SA
HETATM    8  C   UNL     1      -6.522   1.149 -31.680  1.00  0.00    -0.008 A 
HETATM    9  C   UNL     1      -5.780   2.064 -32.409  1.00  0.00    -0.028 A 
HETATM   10  C   UNL     1      -4.287   1.914 -32.534  1.00  0.00     0.041 C 
HETATM   11  C   UNL     1      -3.704   0.912 -31.525  1.00  0.00     0.005 C 
HETATM   12  C   UNL     1      -4.555  -0.358 -31.426  1.00  0.00     0.005 C 
HETATM   13  C   UNL     1      -5.975  -0.036 -30.945  1.00  0.00     0.047 C 
ENDROOT
BRANCH   1  14
HETATM   14  N   UNL     1      -5.109   4.492 -34.366  1.00  0.00    -0.340 N 
HETATM   15  H   UNL     1      -4.930   4.054 -35.255  1.00  0.00     0.167 HD
BRANCH  14  16
HETATM   16  C   UNL     1      -4.094   5.389 -33.976  1.00  0.00     0.036 A 
HETATM   17  C   UNL     1      -2.895   5.583 -34.694  1.00  0.00     0.032 A 
HETATM   18  C   UNL     1      -1.926   6.508 -34.279  1.00  0.00     0.042 A 
HETATM   19  C   UNL     1      -2.182   7.240 -33.145  1.00  0.00     0.105 A 
HETATM   20  C   UNL     1      -3.345   7.078 -32.438  1.00  0.00     0.107 A 
HETATM   21  O   UNL     1      -1.367   8.180 -32.598  1.00  0.00    -0.323 OA
HETATM   22  C   UNL     1      -4.312   6.171 -32.827  1.00  0.00     0.069 A 
HETATM   23  O   UNL     1      -3.415   7.897 -31.355  1.00  0.00    -0.323 OA
HETATM   24  C   UNL     1      -2.157   8.595 -31.464  1.00  0.00     0.352 A 
ENDBRANCH  14  16
ENDBRANCH   1  14
TORSDOF 2
ENDMDL
