MODEL 1
REMARK VINA RESULT:      -8.8      0.000      0.000
REMARK  5 active torsions:
REMARK  status: ('A' for Active; 'I' for Inactive)
REMARK    1  A    between atoms: O_2  and  C_3 
REMARK    2  A    between atoms: C_6  and  N_7 
REMARK       I    between atoms: N_7  and  C_8 
REMARK    3  A    between atoms: C_8  and  C_9 
REMARK    4  A    between atoms: C_9  and  N_10 
REMARK    5  A    between atoms: N_10  and  C_11 
ROOT
HETATM    1  C   UNL     1      -8.293   0.896 -34.585  1.00  0.00     0.195 C 
ENDROOT
BRANCH   1   2
HETATM    2  C   UNL     1      -9.635   0.814 -33.847  1.00  0.00     0.235 C 
HETATM    3  N   UNL     1     -10.636   1.560 -34.447  1.00  0.00    -0.326 N 
HETATM    4  H   UNL     1     -10.336   2.110 -35.248  1.00  0.00     0.169 HD
HETATM    5  O   UNL     1      -9.738   0.149 -32.817  1.00  0.00    -0.272 OA
BRANCH   3   6
HETATM    6  C   UNL     1     -11.989   1.647 -34.064  1.00  0.00     0.034 A 
HETATM    7  C   UNL     1     -12.470   2.547 -33.110  1.00  0.00     0.032 A 
HETATM    8  C   UNL     1     -13.828   2.578 -32.767  1.00  0.00     0.039 A 
HETATM    9  C   UNL     1     -14.726   1.704 -33.373  1.00  0.00     0.068 A 
HETATM   10  C   UNL     1     -14.250   0.796 -34.321  1.00  0.00     0.039 A 
HETATM   11  C   UNL     1     -12.893   0.768 -34.667  1.00  0.00     0.032 A 
BRANCH   9  12
HETATM   12  O   UNL     1     -16.070   1.634 -33.128  1.00  0.00    -0.356 OA
HETATM   13  C   UNL     1     -16.588   2.529 -32.151  1.00  0.00     0.210 C 
ENDBRANCH   9  12
ENDBRANCH   3   6
ENDBRANCH   1   2
BRANCH   1  14
HETATM   14  N   UNL     1      -7.833  -0.444 -35.046  1.00  0.00    -0.283 NA
HETATM   15  H   UNL     1      -8.535  -1.141 -34.792  1.00  0.00     0.128 HD
BRANCH  14  16
HETATM   16  C   UNL     1      -6.619  -0.794 -34.366  1.00  0.00     0.019 A 
HETATM   17  C   UNL     1      -6.081  -2.112 -34.387  1.00  0.00    -0.005 A 
HETATM   18  C   UNL     1      -4.791  -2.333 -33.840  1.00  0.00    -0.024 A 
HETATM   19  C   UNL     1      -6.764  -3.230 -34.919  1.00  0.00     0.014 A 
HETATM   20  C   UNL     1      -4.214  -3.613 -33.890  1.00  0.00     0.012 A 
HETATM   21  C   UNL     1      -4.090  -1.270 -33.249  1.00  0.00     0.012 A 
HETATM   22  C   UNL     1      -4.899  -4.687 -34.454  1.00  0.00     0.001 A 
HETATM   23  C   UNL     1      -6.180  -4.499 -34.958  1.00  0.00     0.001 A 
HETATM   24  C   UNL     1      -4.643   0.005 -33.192  1.00  0.00     0.003 A 
HETATM   25  C   UNL     1      -5.894   0.243 -33.751  1.00  0.00     0.024 A 
ENDBRANCH  14  16
ENDBRANCH   1  14
TORSDOF 5
ENDMDL
MODEL 2
REMARK VINA RESULT:      -8.2      5.198      8.890
REMARK  5 active torsions:
REMARK  status: ('A' for Active; 'I' for Inactive)
REMARK    1  A    between atoms: O_2  and  C_3 
REMARK    2  A    between atoms: C_6  and  N_7 
REMARK       I    between atoms: N_7  and  C_8 
REMARK    3  A    between atoms: C_8  and  C_9 
REMARK    4  A    between atoms: C_9  and  N_10 
REMARK    5  A    between atoms: N_10  and  C_11 
ROOT
HETATM    1  C   UNL     1      -4.184   2.857 -31.082  1.00  0.00     0.195 C 
ENDROOT
BRANCH   1   2
HETATM    2  C   UNL     1      -4.711   1.439 -31.339  1.00  0.00     0.235 C 
HETATM    3  N   UNL     1      -4.925   1.170 -32.682  1.00  0.00    -0.326 N 
HETATM    4  H   UNL     1      -4.771   1.960 -33.304  1.00  0.00     0.169 HD
HETATM    5  O   UNL     1      -4.921   0.675 -30.399  1.00  0.00    -0.272 OA
BRANCH   3   6
HETATM    6  C   UNL     1      -5.338  -0.047 -33.258  1.00  0.00     0.034 A 
HETATM    7  C   UNL     1      -4.468  -1.095 -33.565  1.00  0.00     0.032 A 
HETATM    8  C   UNL     1      -4.941  -2.280 -34.146  1.00  0.00     0.039 A 
HETATM    9  C   UNL     1      -6.295  -2.431 -34.430  1.00  0.00     0.068 A 
HETATM   10  C   UNL     1      -7.169  -1.383 -34.132  1.00  0.00     0.039 A 
HETATM   11  C   UNL     1      -6.696  -0.201 -33.548  1.00  0.00     0.032 A 
BRANCH   9  12
HETATM   12  O   UNL     1      -6.881  -3.531 -34.992  1.00  0.00    -0.356 OA
HETATM   13  C   UNL     1      -6.075  -4.700 -35.098  1.00  0.00     0.210 C 
ENDBRANCH   9  12
ENDBRANCH   3   6
ENDBRANCH   1   2
BRANCH   1  14
HETATM   14  N   UNL     1      -2.712   2.946 -31.293  1.00  0.00    -0.283 NA
HETATM   15  H   UNL     1      -2.255   3.081 -30.389  1.00  0.00     0.128 HD
BRANCH  14  16
HETATM   16  C   UNL     1      -2.412   4.095 -32.097  1.00  0.00     0.019 A 
HETATM   17  C   UNL     1      -1.422   5.051 -31.730  1.00  0.00    -0.005 A 
HETATM   18  C   UNL     1      -1.064   6.058 -32.663  1.00  0.00    -0.024 A 
HETATM   19  C   UNL     1      -0.773   5.065 -30.474  1.00  0.00     0.014 A 
HETATM   20  C   UNL     1      -0.057   6.985 -32.348  1.00  0.00     0.012 A 
HETATM   21  C   UNL     1      -1.716   6.126 -33.904  1.00  0.00     0.012 A 
HETATM   22  C   UNL     1       0.589   6.949 -31.114  1.00  0.00     0.001 A 
HETATM   23  C   UNL     1       0.224   5.997 -30.172  1.00  0.00     0.001 A 
HETATM   24  C   UNL     1      -2.713   5.215 -34.237  1.00  0.00     0.003 A 
HETATM   25  C   UNL     1      -3.054   4.204 -33.344  1.00  0.00     0.024 A 
ENDBRANCH  14  16
ENDBRANCH   1  14
TORSDOF 5
ENDMDL
MODEL 3
REMARK VINA RESULT:      -8.2      2.436      3.504
REMARK  5 active torsions:
REMARK  status: ('A' for Active; 'I' for Inactive)
REMARK    1  A    between atoms: O_2  and  C_3 
REMARK    2  A    between atoms: C_6  and  N_7 
REMARK       I    between atoms: N_7  and  C_8 
REMARK    3  A    between atoms: C_8  and  C_9 
REMARK    4  A    between atoms: C_9  and  N_10 
REMARK    5  A    between atoms: N_10  and  C_11 
ROOT
HETATM    1  C   UNL     1      -5.070   0.252 -31.633  1.00  0.00     0.195 C 
ENDROOT
BRANCH   1   2
HETATM    2  C   UNL     1      -6.491   0.826 -31.703  1.00  0.00     0.235 C 
HETATM    3  N   UNL     1      -7.151   0.509 -32.880  1.00  0.00    -0.326 N 
HETATM    4  H   UNL     1      -6.590   0.003 -33.560  1.00  0.00     0.169 HD
HETATM    5  O   UNL     1      -6.931   1.509 -30.780  1.00  0.00    -0.272 OA
BRANCH   3   6
HETATM    6  C   UNL     1      -8.480   0.822 -33.229  1.00  0.00     0.034 A 
HETATM    7  C   UNL     1      -9.581   0.043 -32.864  1.00  0.00     0.032 A 
HETATM    8  C   UNL     1     -10.879   0.404 -33.251  1.00  0.00     0.039 A 
HETATM    9  C   UNL     1     -11.093   1.551 -34.010  1.00  0.00     0.068 A 
HETATM   10  C   UNL     1      -9.995   2.329 -34.384  1.00  0.00     0.039 A 
HETATM   11  C   UNL     1      -8.698   1.970 -33.994  1.00  0.00     0.032 A 
BRANCH   9  12
HETATM   12  O   UNL     1     -12.304   2.012 -34.448  1.00  0.00    -0.356 OA
HETATM   13  C   UNL     1     -12.281   2.945 -35.522  1.00  0.00     0.210 C 
ENDBRANCH   9  12
ENDBRANCH   3   6
ENDBRANCH   1   2
BRANCH   1  14
HETATM   14  N   UNL     1      -4.610  -0.247 -32.960  1.00  0.00    -0.283 NA
HETATM   15  H   UNL     1      -5.374  -0.156 -33.632  1.00  0.00     0.128 HD
BRANCH  14  16
HETATM   16  C   UNL     1      -4.293  -1.643 -32.863  1.00  0.00     0.019 A 
HETATM   17  C   UNL     1      -4.918  -2.629 -33.679  1.00  0.00    -0.005 A 
HETATM   18  C   UNL     1      -4.423  -3.958 -33.644  1.00  0.00    -0.024 A 
HETATM   19  C   UNL     1      -6.021  -2.365 -34.523  1.00  0.00     0.014 A 
HETATM   20  C   UNL     1      -4.988  -4.942 -34.473  1.00  0.00     0.012 A 
HETATM   21  C   UNL     1      -3.366  -4.290 -32.783  1.00  0.00     0.012 A 
HETATM   22  C   UNL     1      -6.051  -4.641 -35.322  1.00  0.00     0.001 A 
HETATM   23  C   UNL     1      -6.576  -3.355 -35.339  1.00  0.00     0.001 A 
HETATM   24  C   UNL     1      -2.791  -3.330 -31.957  1.00  0.00     0.003 A 
HETATM   25  C   UNL     1      -3.246  -2.016 -32.001  1.00  0.00     0.024 A 
ENDBRANCH  14  16
ENDBRANCH   1  14
TORSDOF 5
ENDMDL
MODEL 4
REMARK VINA RESULT:      -8.2      1.963      2.597
REMARK  5 active torsions:
REMARK  status: ('A' for Active; 'I' for Inactive)
REMARK    1  A    between atoms: O_2  and  C_3 
REMARK    2  A    between atoms: C_6  and  N_7 
REMARK       I    between atoms: N_7  and  C_8 
REMARK    3  A    between atoms: C_8  and  C_9 
REMARK    4  A    between atoms: C_9  and  N_10 
REMARK    5  A    between atoms: N_10  and  C_11 
ROOT
HETATM    1  C   UNL     1      -6.873   2.045 -31.911  1.00  0.00     0.195 C 
ENDROOT
BRANCH   1   2
HETATM    2  C   UNL     1      -8.312   2.426 -32.285  1.00  0.00     0.235 C 
HETATM    3  N   UNL     1      -8.866   1.593 -33.243  1.00  0.00    -0.326 N 
HETATM    4  H   UNL     1      -8.233   0.890 -33.615  1.00  0.00     0.169 HD
HETATM    5  O   UNL     1      -8.851   3.400 -31.763  1.00  0.00    -0.272 OA
BRANCH   3   6
HETATM    6  C   UNL     1     -10.179   1.627 -33.753  1.00  0.00     0.034 A 
HETATM    7  C   UNL     1     -10.642   2.601 -34.641  1.00  0.00     0.032 A 
HETATM    8  C   UNL     1     -11.964   2.584 -35.106  1.00  0.00     0.039 A 
HETATM    9  C   UNL     1     -12.844   1.590 -34.686  1.00  0.00     0.068 A 
HETATM   10  C   UNL     1     -12.389   0.619 -33.792  1.00  0.00     0.039 A 
HETATM   11  C   UNL     1     -11.066   0.633 -33.330  1.00  0.00     0.032 A 
BRANCH   9  12
HETATM   12  O   UNL     1     -14.152   1.461 -35.065  1.00  0.00    -0.356 OA
HETATM   13  C   UNL     1     -14.974   0.635 -34.248  1.00  0.00     0.210 C 
ENDBRANCH   9  12
ENDBRANCH   3   6
ENDBRANCH   1   2
BRANCH   1  14
HETATM   14  N   UNL     1      -6.822   0.772 -31.138  1.00  0.00    -0.283 NA
HETATM   15  H   UNL     1      -6.711   0.990 -30.146  1.00  0.00     0.128 HD
BRANCH  14  16
HETATM   16  C   UNL     1      -5.671   0.015 -31.538  1.00  0.00     0.019 A 
HETATM   17  C   UNL     1      -5.690  -0.882 -32.644  1.00  0.00    -0.005 A 
HETATM   18  C   UNL     1      -4.467  -1.455 -33.079  1.00  0.00    -0.024 A 
HETATM   19  C   UNL     1      -6.866  -1.249 -33.337  1.00  0.00     0.014 A 
HETATM   20  C   UNL     1      -4.447  -2.306 -34.197  1.00  0.00     0.012 A 
HETATM   21  C   UNL     1      -3.276  -1.170 -32.394  1.00  0.00     0.012 A 
HETATM   22  C   UNL     1      -5.620  -2.619 -34.881  1.00  0.00     0.001 A 
HETATM   23  C   UNL     1      -6.832  -2.100 -34.445  1.00  0.00     0.001 A 
HETATM   24  C   UNL     1      -3.275  -0.328 -31.287  1.00  0.00     0.003 A 
HETATM   25  C   UNL     1      -4.461   0.265 -30.866  1.00  0.00     0.024 A 
ENDBRANCH  14  16
ENDBRANCH   1  14
TORSDOF 5
ENDMDL
MODEL 5
REMARK VINA RESULT:      -8.1      5.252      8.239
REMARK  5 active torsions:
REMARK  status: ('A' for Active; 'I' for Inactive)
REMARK    1  A    between atoms: O_2  and  C_3 
REMARK    2  A    between atoms: C_6  and  N_7 
REMARK       I    between atoms: N_7  and  C_8 
REMARK    3  A    between atoms: C_8  and  C_9 
REMARK    4  A    between atoms: C_9  and  N_10 
REMARK    5  A    between atoms: N_10  and  C_11 
ROOT
HETATM    1  C   UNL     1      -4.775   0.702 -31.873  1.00  0.00     0.195 C 
ENDROOT
BRANCH   1   2
HETATM    2  C   UNL     1      -4.629   2.212 -32.102  1.00  0.00     0.235 C 
HETATM    3  N   UNL     1      -3.310   2.635 -32.137  1.00  0.00    -0.326 N 
HETATM    4  H   UNL     1      -2.624   1.909 -31.942  1.00  0.00     0.169 HD
HETATM    5  O   UNL     1      -5.626   2.923 -32.214  1.00  0.00    -0.272 OA
BRANCH   3   6
HETATM    6  C   UNL     1      -2.832   3.935 -32.394  1.00  0.00     0.034 A 
HETATM    7  C   UNL     1      -2.235   4.319 -33.597  1.00  0.00     0.032 A 
HETATM    8  C   UNL     1      -1.771   5.628 -33.787  1.00  0.00     0.039 A 
HETATM    9  C   UNL     1      -1.898   6.572 -32.772  1.00  0.00     0.068 A 
HETATM   10  C   UNL     1      -2.486   6.192 -31.565  1.00  0.00     0.039 A 
HETATM   11  C   UNL     1      -2.953   4.884 -31.376  1.00  0.00     0.032 A 
BRANCH   9  12
HETATM   12  O   UNL     1      -1.489   7.876 -32.832  1.00  0.00    -0.356 OA
HETATM   13  C   UNL     1      -1.828   8.702 -31.723  1.00  0.00     0.210 C 
ENDBRANCH   9  12
ENDBRANCH   3   6
ENDBRANCH   1   2
BRANCH   1  14
HETATM   14  N   UNL     1      -4.014  -0.086 -32.883  1.00  0.00    -0.283 NA
HETATM   15  H   UNL     1      -3.521   0.558 -33.503  1.00  0.00     0.128 HD
BRANCH  14  16
HETATM   16  C   UNL     1      -4.930  -0.838 -33.693  1.00  0.00     0.019 A 
HETATM   17  C   UNL     1      -4.814  -2.245 -33.875  1.00  0.00    -0.005 A 
HETATM   18  C   UNL     1      -5.858  -2.936 -34.543  1.00  0.00    -0.024 A 
HETATM   19  C   UNL     1      -3.706  -3.005 -33.436  1.00  0.00     0.014 A 
HETATM   20  C   UNL     1      -5.794  -4.331 -34.696  1.00  0.00     0.012 A 
HETATM   21  C   UNL     1      -6.956  -2.225 -35.050  1.00  0.00     0.012 A 
HETATM   22  C   UNL     1      -4.704  -5.056 -34.219  1.00  0.00     0.001 A 
HETATM   23  C   UNL     1      -3.654  -4.392 -33.599  1.00  0.00     0.001 A 
HETATM   24  C   UNL     1      -7.039  -0.843 -34.906  1.00  0.00     0.003 A 
HETATM   25  C   UNL     1      -6.038  -0.156 -34.228  1.00  0.00     0.024 A 
ENDBRANCH  14  16
ENDBRANCH   1  14
TORSDOF 5
ENDMDL
MODEL 6
REMARK VINA RESULT:      -8.0      5.961      8.212
REMARK  5 active torsions:
REMARK  status: ('A' for Active; 'I' for Inactive)
REMARK    1  A    between atoms: O_2  and  C_3 
REMARK    2  A    between atoms: C_6  and  N_7 
REMARK       I    between atoms: N_7  and  C_8 
REMARK    3  A    between atoms: C_8  and  C_9 
REMARK    4  A    between atoms: C_9  and  N_10 
REMARK    5  A    between atoms: N_10  and  C_11 
ROOT
HETATM    1  C   UNL     1      -4.305   0.727 -32.061  1.00  0.00     0.195 C 
ENDROOT
BRANCH   1   2
HETATM    2  C   UNL     1      -4.313   2.218 -32.426  1.00  0.00     0.235 C 
HETATM    3  N   UNL     1      -3.145   2.874 -32.071  1.00  0.00    -0.326 N 
HETATM    4  H   UNL     1      -2.474   2.304 -31.562  1.00  0.00     0.169 HD
HETATM    5  O   UNL     1      -5.299   2.720 -32.961  1.00  0.00    -0.272 OA
BRANCH   3   6
HETATM    6  C   UNL     1      -2.806   4.218 -32.322  1.00  0.00     0.034 A 
HETATM    7  C   UNL     1      -2.085   4.640 -33.442  1.00  0.00     0.032 A 
HETATM    8  C   UNL     1      -1.772   5.993 -33.630  1.00  0.00     0.039 A 
HETATM    9  C   UNL     1      -2.176   6.944 -32.697  1.00  0.00     0.068 A 
HETATM   10  C   UNL     1      -2.890   6.527 -31.572  1.00  0.00     0.039 A 
HETATM   11  C   UNL     1      -3.206   5.175 -31.386  1.00  0.00     0.032 A 
BRANCH   9  12
HETATM   12  O   UNL     1      -1.936   8.289 -32.764  1.00  0.00    -0.356 OA
HETATM   13  C   UNL     1      -2.051   9.020 -31.548  1.00  0.00     0.210 C 
ENDBRANCH   9  12
ENDBRANCH   3   6
ENDBRANCH   1   2
BRANCH   1  14
HETATM   14  N   UNL     1      -4.875  -0.112 -33.152  1.00  0.00    -0.283 NA
HETATM   15  H   UNL     1      -5.894  -0.089 -33.090  1.00  0.00     0.128 HD
BRANCH  14  16
HETATM   16  C   UNL     1      -4.468  -1.476 -32.969  1.00  0.00     0.019 A 
HETATM   17  C   UNL     1      -5.005  -2.546 -33.740  1.00  0.00    -0.005 A 
HETATM   18  C   UNL     1      -4.423  -3.834 -33.619  1.00  0.00    -0.024 A 
HETATM   19  C   UNL     1      -6.102  -2.405 -34.621  1.00  0.00     0.014 A 
HETATM   20  C   UNL     1      -4.900  -4.899 -34.402  1.00  0.00     0.012 A 
HETATM   21  C   UNL     1      -3.369  -4.045 -32.718  1.00  0.00     0.012 A 
HETATM   22  C   UNL     1      -5.960  -4.718 -35.289  1.00  0.00     0.001 A 
HETATM   23  C   UNL     1      -6.569  -3.474 -35.391  1.00  0.00     0.001 A 
HETATM   24  C   UNL     1      -2.880  -3.003 -31.936  1.00  0.00     0.003 A 
HETATM   25  C   UNL     1      -3.420  -1.728 -32.064  1.00  0.00     0.024 A 
ENDBRANCH  14  16
ENDBRANCH   1  14
TORSDOF 5
ENDMDL
MODEL 7
REMARK VINA RESULT:      -8.0      5.954      9.570
REMARK  5 active torsions:
REMARK  status: ('A' for Active; 'I' for Inactive)
REMARK    1  A    between atoms: O_2  and  C_3 
REMARK    2  A    between atoms: C_6  and  N_7 
REMARK       I    between atoms: N_7  and  C_8 
REMARK    3  A    between atoms: C_8  and  C_9 
REMARK    4  A    between atoms: C_9  and  N_10 
REMARK    5  A    between atoms: N_10  and  C_11 
ROOT
HETATM    1  C   UNL     1      -4.623   2.910 -32.617  1.00  0.00     0.195 C 
ENDROOT
BRANCH   1   2
HETATM    2  C   UNL     1      -3.370   3.342 -31.845  1.00  0.00     0.235 C 
HETATM    3  N   UNL     1      -3.052   4.679 -32.022  1.00  0.00    -0.326 N 
HETATM    4  H   UNL     1      -3.644   5.174 -32.683  1.00  0.00     0.169 HD
HETATM    5  O   UNL     1      -2.743   2.525 -31.172  1.00  0.00    -0.272 OA
BRANCH   3   6
HETATM    6  C   UNL     1      -2.011   5.402 -31.407  1.00  0.00     0.034 A 
HETATM    7  C   UNL     1      -0.658   5.215 -31.699  1.00  0.00     0.032 A 
HETATM    8  C   UNL     1       0.332   5.961 -31.045  1.00  0.00     0.039 A 
HETATM    9  C   UNL     1      -0.020   6.907 -30.086  1.00  0.00     0.068 A 
HETATM   10  C   UNL     1      -1.371   7.092 -29.784  1.00  0.00     0.039 A 
HETATM   11  C   UNL     1      -2.360   6.349 -30.440  1.00  0.00     0.032 A 
BRANCH   9  12
HETATM   12  O   UNL     1       0.845   7.697 -29.380  1.00  0.00    -0.356 OA
HETATM   13  C   UNL     1       0.868   7.516 -27.969  1.00  0.00     0.210 C 
ENDBRANCH   9  12
ENDBRANCH   3   6
ENDBRANCH   1   2
BRANCH   1  14
HETATM   14  N   UNL     1      -5.117   1.578 -32.169  1.00  0.00    -0.283 NA
HETATM   15  H   UNL     1      -4.316   0.990 -31.931  1.00  0.00     0.128 HD
BRANCH  14  16
HETATM   16  C   UNL     1      -5.810   0.935 -33.249  1.00  0.00     0.019 A 
HETATM   17  C   UNL     1      -5.528  -0.400 -33.654  1.00  0.00    -0.005 A 
HETATM   18  C   UNL     1      -6.376  -1.018 -34.609  1.00  0.00    -0.024 A 
HETATM   19  C   UNL     1      -4.436  -1.155 -33.165  1.00  0.00     0.014 A 
HETATM   20  C   UNL     1      -6.151  -2.351 -34.992  1.00  0.00     0.012 A 
HETATM   21  C   UNL     1      -7.441  -0.298 -35.169  1.00  0.00     0.012 A 
HETATM   22  C   UNL     1      -5.087  -3.080 -34.464  1.00  0.00     0.001 A 
HETATM   23  C   UNL     1      -4.222  -2.478 -33.559  1.00  0.00     0.001 A 
HETATM   24  C   UNL     1      -7.682   1.022 -34.800  1.00  0.00     0.003 A 
HETATM   25  C   UNL     1      -6.878   1.632 -33.844  1.00  0.00     0.024 A 
ENDBRANCH  14  16
ENDBRANCH   1  14
TORSDOF 5
ENDMDL
MODEL 8
REMARK VINA RESULT:      -7.8      4.550      7.685
REMARK  5 active torsions:
REMARK  status: ('A' for Active; 'I' for Inactive)
REMARK    1  A    between atoms: O_2  and  C_3 
REMARK    2  A    between atoms: C_6  and  N_7 
REMARK       I    between atoms: N_7  and  C_8 
REMARK    3  A    between atoms: C_8  and  C_9 
REMARK    4  A    between atoms: C_9  and  N_10 
REMARK    5  A    between atoms: N_10  and  C_11 
ROOT
HETATM    1  C   UNL     1      -8.039   2.131 -31.714  1.00  0.00     0.195 C 
ENDROOT
BRANCH   1   2
HETATM    2  C   UNL     1      -6.764   2.981 -31.642  1.00  0.00     0.235 C 
HETATM    3  N   UNL     1      -6.074   3.036 -32.842  1.00  0.00    -0.326 N 
HETATM    4  H   UNL     1      -6.463   2.458 -33.584  1.00  0.00     0.169 HD
HETATM    5  O   UNL     1      -6.434   3.517 -30.585  1.00  0.00    -0.272 OA
BRANCH   3   6
HETATM    6  C   UNL     1      -4.912   3.777 -33.131  1.00  0.00     0.034 A 
HETATM    7  C   UNL     1      -4.898   4.916 -33.940  1.00  0.00     0.032 A 
HETATM    8  C   UNL     1      -3.705   5.605 -34.196  1.00  0.00     0.039 A 
HETATM    9  C   UNL     1      -2.506   5.162 -33.646  1.00  0.00     0.068 A 
HETATM   10  C   UNL     1      -2.512   4.019 -32.843  1.00  0.00     0.039 A 
HETATM   11  C   UNL     1      -3.705   3.333 -32.584  1.00  0.00     0.032 A 
BRANCH   9  12
HETATM   12  O   UNL     1      -1.279   5.742 -33.817  1.00  0.00    -0.356 OA
HETATM   13  C   UNL     1      -1.197   7.142 -33.575  1.00  0.00     0.210 C 
ENDBRANCH   9  12
ENDBRANCH   3   6
ENDBRANCH   1   2
BRANCH   1  14
HETATM   14  N   UNL     1      -7.799   0.736 -31.249  1.00  0.00    -0.283 NA
HETATM   15  H   UNL     1      -7.168   0.757 -30.446  1.00  0.00     0.128 HD
BRANCH  14  16
HETATM   16  C   UNL     1      -7.142  -0.008 -32.286  1.00  0.00     0.019 A 
HETATM   17  C   UNL     1      -5.779  -0.410 -32.195  1.00  0.00    -0.005 A 
HETATM   18  C   UNL     1      -5.259  -1.290 -33.179  1.00  0.00    -0.024 A 
HETATM   19  C   UNL     1      -4.897   0.028 -31.180  1.00  0.00     0.014 A 
HETATM   20  C   UNL     1      -3.931  -1.742 -33.089  1.00  0.00     0.012 A 
HETATM   21  C   UNL     1      -6.072  -1.713 -34.241  1.00  0.00     0.012 A 
HETATM   22  C   UNL     1      -3.099  -1.320 -32.054  1.00  0.00     0.001 A 
HETATM   23  C   UNL     1      -3.578  -0.426 -31.105  1.00  0.00     0.001 A 
HETATM   24  C   UNL     1      -7.390  -1.279 -34.346  1.00  0.00     0.003 A 
HETATM   25  C   UNL     1      -7.923  -0.440 -33.373  1.00  0.00     0.024 A 
ENDBRANCH  14  16
ENDBRANCH   1  14
TORSDOF 5
ENDMDL
MODEL 9
REMARK VINA RESULT:      -7.8      1.267      2.591
REMARK  5 active torsions:
REMARK  status: ('A' for Active; 'I' for Inactive)
REMARK    1  A    between atoms: O_2  and  C_3 
REMARK    2  A    between atoms: C_6  and  N_7 
REMARK       I    between atoms: N_7  and  C_8 
REMARK    3  A    between atoms: C_8  and  C_9 
REMARK    4  A    between atoms: C_9  and  N_10 
REMARK    5  A    between atoms: N_10  and  C_11 
ROOT
HETATM    1  C   UNL     1      -8.195   1.357 -34.264  1.00  0.00     0.195 C 
ENDROOT
BRANCH   1   2
HETATM    2  C   UNL     1      -9.597   1.966 -34.142  1.00  0.00     0.235 C 
HETATM    3  N   UNL     1     -10.590   1.019 -33.948  1.00  0.00    -0.326 N 
HETATM    4  H   UNL     1     -10.271   0.054 -33.979  1.00  0.00     0.169 HD
HETATM    5  O   UNL     1      -9.757   3.182 -34.238  1.00  0.00    -0.272 OA
BRANCH   3   6
HETATM    6  C   UNL     1     -11.963   1.248 -33.733  1.00  0.00     0.034 A 
HETATM    7  C   UNL     1     -12.493   2.478 -33.336  1.00  0.00     0.032 A 
HETATM    8  C   UNL     1     -13.870   2.638 -33.130  1.00  0.00     0.039 A 
HETATM    9  C   UNL     1     -14.738   1.566 -33.317  1.00  0.00     0.068 A 
HETATM   10  C   UNL     1     -14.213   0.332 -33.706  1.00  0.00     0.039 A 
HETATM   11  C   UNL     1     -12.837   0.173 -33.915  1.00  0.00     0.032 A 
BRANCH   9  12
HETATM   12  O   UNL     1     -16.095   1.592 -33.151  1.00  0.00    -0.356 OA
HETATM   13  C   UNL     1     -16.605   2.526 -32.206  1.00  0.00     0.210 C 
ENDBRANCH   9  12
ENDBRANCH   3   6
ENDBRANCH   1   2
BRANCH   1  14
HETATM   14  N   UNL     1      -7.868   0.486 -33.101  1.00  0.00    -0.283 NA
HETATM   15  H   UNL     1      -7.534   1.070 -32.332  1.00  0.00     0.128 HD
BRANCH  14  16
HETATM   16  C   UNL     1      -6.798  -0.404 -33.453  1.00  0.00     0.019 A 
HETATM   17  C   UNL     1      -5.541  -0.395 -32.785  1.00  0.00    -0.005 A 
HETATM   18  C   UNL     1      -4.605  -1.421 -33.075  1.00  0.00    -0.024 A 
HETATM   19  C   UNL     1      -5.159   0.590 -31.845  1.00  0.00     0.014 A 
HETATM   20  C   UNL     1      -3.376  -1.465 -32.397  1.00  0.00     0.012 A 
HETATM   21  C   UNL     1      -4.909  -2.393 -34.040  1.00  0.00     0.012 A 
HETATM   22  C   UNL     1      -3.044  -0.499 -31.449  1.00  0.00     0.001 A 
HETATM   23  C   UNL     1      -3.930   0.536 -31.181  1.00  0.00     0.001 A 
HETATM   24  C   UNL     1      -6.122  -2.368 -34.721  1.00  0.00     0.003 A 
HETATM   25  C   UNL     1      -7.062  -1.386 -34.426  1.00  0.00     0.024 A 
ENDBRANCH  14  16
ENDBRANCH   1  14
TORSDOF 5
ENDMDL
MODEL 10
REMARK VINA RESULT:      -7.8      5.172      8.834
REMARK  5 active torsions:
REMARK  status: ('A' for Active; 'I' for Inactive)
REMARK    1  A    between atoms: O_2  and  C_3 
REMARK    2  A    between atoms: C_6  and  N_7 
REMARK       I    between atoms: N_7  and  C_8 
REMARK    3  A    between atoms: C_8  and  C_9 
REMARK    4  A    between atoms: C_9  and  N_10 
REMARK    5  A    between atoms: N_10  and  C_11 
ROOT
HETATM    1  C   UNL     1      -6.296   3.170 -34.054  1.00  0.00     0.195 C 
ENDROOT
BRANCH   1   2
HETATM    2  C   UNL     1      -5.321   4.282 -33.645  1.00  0.00     0.235 C 
HETATM    3  N   UNL     1      -4.074   3.806 -33.273  1.00  0.00    -0.326 N 
HETATM    4  H   UNL     1      -3.992   2.793 -33.257  1.00  0.00     0.169 HD
HETATM    5  O   UNL     1      -5.684   5.457 -33.648  1.00  0.00    -0.272 OA
BRANCH   3   6
HETATM    6  C   UNL     1      -2.941   4.561 -32.910  1.00  0.00     0.034 A 
HETATM    7  C   UNL     1      -2.152   5.265 -33.823  1.00  0.00     0.032 A 
HETATM    8  C   UNL     1      -1.031   5.991 -33.399  1.00  0.00     0.039 A 
HETATM    9  C   UNL     1      -0.683   6.022 -32.052  1.00  0.00     0.068 A 
HETATM   10  C   UNL     1      -1.463   5.314 -31.136  1.00  0.00     0.039 A 
HETATM   11  C   UNL     1      -2.586   4.591 -31.559  1.00  0.00     0.032 A 
BRANCH   9  12
HETATM   12  O   UNL     1       0.381   6.691 -31.511  1.00  0.00    -0.356 OA
HETATM   13  C   UNL     1       0.263   7.081 -30.148  1.00  0.00     0.210 C 
ENDBRANCH   9  12
ENDBRANCH   3   6
ENDBRANCH   1   2
BRANCH   1  14
HETATM   14  N   UNL     1      -6.435   2.138 -32.989  1.00  0.00    -0.283 NA
HETATM   15  H   UNL     1      -5.757   2.330 -32.250  1.00  0.00     0.128 HD
BRANCH  14  16
HETATM   16  C   UNL     1      -6.120   0.846 -33.529  1.00  0.00     0.019 A 
HETATM   17  C   UNL     1      -5.093   0.020 -32.991  1.00  0.00    -0.005 A 
HETATM   18  C   UNL     1      -4.965  -1.310 -33.469  1.00  0.00    -0.024 A 
HETATM   19  C   UNL     1      -4.175   0.450 -32.006  1.00  0.00     0.014 A 
HETATM   20  C   UNL     1      -3.991  -2.164 -32.924  1.00  0.00     0.012 A 
HETATM   21  C   UNL     1      -5.812  -1.773 -34.487  1.00  0.00     0.012 A 
HETATM   22  C   UNL     1      -3.125  -1.720 -31.927  1.00  0.00     0.001 A 
HETATM   23  C   UNL     1      -3.209  -0.409 -31.475  1.00  0.00     0.001 A 
HETATM   24  C   UNL     1      -6.784  -0.944 -35.038  1.00  0.00     0.003 A 
HETATM   25  C   UNL     1      -6.942   0.352 -34.559  1.00  0.00     0.024 A 
ENDBRANCH  14  16
ENDBRANCH   1  14
TORSDOF 5
ENDMDL
