MODEL 1
REMARK VINA RESULT:      -9.7      0.000      0.000
REMARK  5 active torsions:
REMARK  status: ('A' for Active; 'I' for Inactive)
REMARK    1  A    between atoms: C_9  and  C_10 
REMARK       I    between atoms: C_10  and  N_11 
REMARK    2  A    between atoms: N_11  and  C_12 
REMARK    3  A    between atoms: C_12  and  C_13 
REMARK    4  A    between atoms: C_15  and  O_16 
REMARK    5  A    between atoms: O_16  and  C_17 
ROOT
HETATM    1  C   UNL     1      -4.813   0.601 -32.943  1.00  0.00     0.273 C 
HETATM    2  N   UNL     1      -4.166   1.699 -32.422  1.00  0.00    -0.351 N 
HETATM    3  O   UNL     1      -5.844   0.674 -33.605  1.00  0.00    -0.266 OA
HETATM    4  H   UNL     1      -3.357   1.494 -31.842  1.00  0.00     0.163 HD
ENDROOT
BRANCH   2   5
HETATM    5  C   UNL     1      -4.647   3.042 -32.577  1.00  0.00     0.161 C 
BRANCH   5   6
HETATM    6  C   UNL     1      -3.550   3.981 -32.991  1.00  0.00    -0.035 A 
HETATM    7  C   UNL     1      -2.369   4.066 -32.248  1.00  0.00     0.066 A 
HETATM    8  C   UNL     1      -1.390   4.962 -32.648  1.00  0.00     0.164 A 
HETATM    9  N   UNL     1      -1.495   5.749 -33.738  1.00  0.00    -0.237 NA
HETATM   10  C   UNL     1      -2.630   5.631 -34.460  1.00  0.00     0.120 A 
HETATM   11  C   UNL     1      -3.671   4.776 -34.134  1.00  0.00     0.028 A 
BRANCH   8  12
HETATM   12  O   UNL     1      -0.259   5.018 -31.858  1.00  0.00    -0.329 OA
BRANCH  12  13
HETATM   13  C   UNL     1      -0.495   5.405 -30.505  1.00  0.00     0.130 C 
HETATM   14  C   UNL     1       0.637   4.958 -29.579  1.00  0.00     0.032 C 
HETATM   15  C   UNL     1       0.658   6.019 -28.495  1.00  0.00     0.002 C 
HETATM   16  C   UNL     1       0.470   7.306 -29.281  1.00  0.00     0.002 C 
HETATM   17  C   UNL     1      -0.484   6.942 -30.417  1.00  0.00     0.032 C 
ENDBRANCH  12  13
ENDBRANCH   8  12
ENDBRANCH   5   6
ENDBRANCH   2   5
BRANCH   1  18
HETATM   18  C   UNL     1      -4.132  -0.668 -32.633  1.00  0.00     0.157 A 
HETATM   19  C   UNL     1      -4.375  -1.946 -33.216  1.00  0.00     0.029 A 
HETATM   20  C   UNL     1      -5.255  -2.471 -34.185  1.00  0.00     0.023 A 
HETATM   21  C   UNL     1      -3.464  -2.801 -32.609  1.00  0.00     0.063 A 
HETATM   22  C   UNL     1      -5.195  -3.837 -34.508  1.00  0.00    -0.061 A 
HETATM   23  C   UNL     1      -6.122  -4.416 -35.538  1.00  0.00     0.048 C 
HETATM   24  C   UNL     1      -4.253  -4.660 -33.878  1.00  0.00     0.009 A 
HETATM   25  C   UNL     1      -3.369  -4.161 -32.915  1.00  0.00     0.032 A 
HETATM   26  N   UNL     1      -2.767  -2.019 -31.730  1.00  0.00    -0.277 N 
HETATM   27  H   UNL     1      -2.018  -2.310 -31.113  1.00  0.00     0.189 HD
HETATM   28  N   UNL     1      -3.144  -0.727 -31.711  1.00  0.00    -0.168 NA
ENDBRANCH   1  18
TORSDOF 5
ENDMDL
MODEL 2
REMARK VINA RESULT:      -9.2      0.927      1.097
REMARK  5 active torsions:
REMARK  status: ('A' for Active; 'I' for Inactive)
REMARK    1  A    between atoms: C_9  and  C_10 
REMARK       I    between atoms: C_10  and  N_11 
REMARK    2  A    between atoms: N_11  and  C_12 
REMARK    3  A    between atoms: C_12  and  C_13 
REMARK    4  A    between atoms: C_15  and  O_16 
REMARK    5  A    between atoms: O_16  and  C_17 
ROOT
HETATM    1  C   UNL     1      -5.047   0.265 -32.964  1.00  0.00     0.273 C 
HETATM    2  N   UNL     1      -4.879   1.207 -31.974  1.00  0.00    -0.351 N 
HETATM    3  O   UNL     1      -5.722   0.454 -33.971  1.00  0.00    -0.266 OA
HETATM    4  H   UNL     1      -4.345   0.901 -31.166  1.00  0.00     0.163 HD
ENDROOT
BRANCH   2   5
HETATM    5  C   UNL     1      -5.501   2.500 -32.007  1.00  0.00     0.161 C 
BRANCH   5   6
HETATM    6  C   UNL     1      -4.681   3.492 -32.782  1.00  0.00    -0.035 A 
HETATM    7  C   UNL     1      -3.346   3.730 -32.442  1.00  0.00     0.066 A 
HETATM    8  C   UNL     1      -2.629   4.670 -33.164  1.00  0.00     0.164 A 
HETATM    9  N   UNL     1      -3.137   5.361 -34.205  1.00  0.00    -0.237 NA
HETATM   10  C   UNL     1      -4.418   5.096 -34.539  1.00  0.00     0.120 A 
HETATM   11  C   UNL     1      -5.220   4.185 -33.868  1.00  0.00     0.028 A 
BRANCH   8  12
HETATM   12  O   UNL     1      -1.325   4.879 -32.763  1.00  0.00    -0.329 OA
BRANCH  12  13
HETATM   13  C   UNL     1      -1.179   5.729 -31.627  1.00  0.00     0.130 C 
HETATM   14  C   UNL     1      -0.331   5.077 -30.533  1.00  0.00     0.032 C 
HETATM   15  C   UNL     1       0.345   6.252 -29.852  1.00  0.00     0.002 C 
HETATM   16  C   UNL     1       0.744   7.136 -31.021  1.00  0.00     0.002 C 
HETATM   17  C   UNL     1      -0.384   6.981 -32.040  1.00  0.00     0.032 C 
ENDBRANCH  12  13
ENDBRANCH   8  12
ENDBRANCH   5   6
ENDBRANCH   2   5
BRANCH   1  18
HETATM   18  C   UNL     1      -4.321  -0.988 -32.693  1.00  0.00     0.157 A 
HETATM   19  C   UNL     1      -4.529  -2.259 -33.304  1.00  0.00     0.029 A 
HETATM   20  C   UNL     1      -5.403  -2.790 -34.275  1.00  0.00     0.023 A 
HETATM   21  C   UNL     1      -3.583  -3.097 -32.728  1.00  0.00     0.063 A 
HETATM   22  C   UNL     1      -5.303  -4.145 -34.632  1.00  0.00    -0.061 A 
HETATM   23  C   UNL     1      -6.224  -4.730 -35.664  1.00  0.00     0.048 C 
HETATM   24  C   UNL     1      -4.326  -4.952 -34.032  1.00  0.00     0.009 A 
HETATM   25  C   UNL     1      -3.447  -4.446 -33.068  1.00  0.00     0.032 A 
HETATM   26  N   UNL     1      -2.901  -2.314 -31.839  1.00  0.00    -0.277 N 
HETATM   27  H   UNL     1      -2.135  -2.595 -31.238  1.00  0.00     0.189 HD
HETATM   28  N   UNL     1      -3.320  -1.037 -31.784  1.00  0.00    -0.168 NA
ENDBRANCH   1  18
TORSDOF 5
ENDMDL
MODEL 3
REMARK VINA RESULT:      -9.2      2.306      3.154
REMARK  5 active torsions:
REMARK  status: ('A' for Active; 'I' for Inactive)
REMARK    1  A    between atoms: C_9  and  C_10 
REMARK       I    between atoms: C_10  and  N_11 
REMARK    2  A    between atoms: N_11  and  C_12 
REMARK    3  A    between atoms: C_12  and  C_13 
REMARK    4  A    between atoms: C_15  and  O_16 
REMARK    5  A    between atoms: O_16  and  C_17 
ROOT
HETATM    1  C   UNL     1      -6.617   2.920 -33.308  1.00  0.00     0.273 C 
HETATM    2  N   UNL     1      -6.012   3.791 -34.186  1.00  0.00    -0.351 N 
HETATM    3  O   UNL     1      -6.776   3.163 -32.116  1.00  0.00    -0.266 OA
HETATM    4  H   UNL     1      -5.889   3.442 -35.132  1.00  0.00     0.163 HD
ENDROOT
BRANCH   2   5
HETATM    5  C   UNL     1      -5.481   5.064 -33.790  1.00  0.00     0.161 C 
BRANCH   5   6
HETATM    6  C   UNL     1      -3.978   5.061 -33.780  1.00  0.00    -0.035 A 
HETATM    7  C   UNL     1      -3.276   4.758 -32.610  1.00  0.00     0.066 A 
HETATM    8  C   UNL     1      -1.891   4.790 -32.634  1.00  0.00     0.164 A 
HETATM    9  N   UNL     1      -1.168   5.071 -33.737  1.00  0.00    -0.237 NA
HETATM   10  C   UNL     1      -1.862   5.330 -34.865  1.00  0.00     0.120 A 
HETATM   11  C   UNL     1      -3.247   5.338 -34.937  1.00  0.00     0.028 A 
BRANCH   8  12
HETATM   12  O   UNL     1      -1.256   4.509 -31.440  1.00  0.00    -0.329 OA
BRANCH  12  13
HETATM   13  C   UNL     1      -0.236   5.437 -31.075  1.00  0.00     0.130 C 
HETATM   14  C   UNL     1      -0.821   6.761 -30.579  1.00  0.00     0.032 C 
HETATM   15  C   UNL     1       0.205   7.255 -29.576  1.00  0.00     0.002 C 
HETATM   16  C   UNL     1       0.575   5.990 -28.821  1.00  0.00     0.002 C 
HETATM   17  C   UNL     1       0.537   4.877 -29.868  1.00  0.00     0.032 C 
ENDBRANCH  12  13
ENDBRANCH   8  12
ENDBRANCH   5   6
ENDBRANCH   2   5
BRANCH   1  18
HETATM   18  C   UNL     1      -7.063   1.673 -33.952  1.00  0.00     0.157 A 
HETATM   19  C   UNL     1      -6.433   0.395 -33.896  1.00  0.00     0.029 A 
HETATM   20  C   UNL     1      -5.273  -0.141 -33.300  1.00  0.00     0.023 A 
HETATM   21  C   UNL     1      -7.252  -0.446 -34.639  1.00  0.00     0.063 A 
HETATM   22  C   UNL     1      -4.969  -1.502 -33.476  1.00  0.00    -0.061 A 
HETATM   23  C   UNL     1      -3.739  -2.093 -32.850  1.00  0.00     0.048 C 
HETATM   24  C   UNL     1      -5.829  -2.316 -34.225  1.00  0.00     0.009 A 
HETATM   25  C   UNL     1      -6.986  -1.806 -34.823  1.00  0.00     0.032 A 
HETATM   26  N   UNL     1      -8.273   0.347 -35.084  1.00  0.00    -0.277 N 
HETATM   27  H   UNL     1      -9.059   0.066 -35.659  1.00  0.00     0.189 HD
HETATM   28  N   UNL     1      -8.192   1.632 -34.696  1.00  0.00    -0.168 NA
ENDBRANCH   1  18
TORSDOF 5
ENDMDL
MODEL 4
REMARK VINA RESULT:      -8.9      1.567      2.130
REMARK  5 active torsions:
REMARK  status: ('A' for Active; 'I' for Inactive)
REMARK    1  A    between atoms: C_9  and  C_10 
REMARK       I    between atoms: C_10  and  N_11 
REMARK    2  A    between atoms: N_11  and  C_12 
REMARK    3  A    between atoms: C_12  and  C_13 
REMARK    4  A    between atoms: C_15  and  O_16 
REMARK    5  A    between atoms: O_16  and  C_17 
ROOT
HETATM    1  C   UNL     1      -4.599   0.834 -32.025  1.00  0.00     0.273 C 
HETATM    2  N   UNL     1      -4.717   2.201 -32.138  1.00  0.00    -0.351 N 
HETATM    3  O   UNL     1      -3.926   0.282 -31.160  1.00  0.00    -0.266 OA
HETATM    4  H   UNL     1      -5.255   2.529 -32.934  1.00  0.00     0.163 HD
ENDROOT
BRANCH   2   5
HETATM    5  C   UNL     1      -4.041   3.123 -31.268  1.00  0.00     0.161 C 
BRANCH   5   6
HETATM    6  C   UNL     1      -2.989   3.907 -32.000  1.00  0.00    -0.035 A 
HETATM    7  C   UNL     1      -1.895   4.441 -31.314  1.00  0.00     0.066 A 
HETATM    8  C   UNL     1      -0.958   5.180 -32.019  1.00  0.00     0.164 A 
HETATM    9  N   UNL     1      -1.023   5.397 -33.348  1.00  0.00    -0.237 NA
HETATM   10  C   UNL     1      -2.070   4.848 -34.000  1.00  0.00     0.120 A 
HETATM   11  C   UNL     1      -3.065   4.107 -33.381  1.00  0.00     0.028 A 
BRANCH   8  12
HETATM   12  O   UNL     1       0.084   5.704 -31.281  1.00  0.00    -0.329 OA
BRANCH  12  13
HETATM   13  C   UNL     1      -0.251   6.051 -29.939  1.00  0.00     0.130 C 
HETATM   14  C   UNL     1       0.757   5.487 -28.935  1.00  0.00     0.032 C 
HETATM   15  C   UNL     1       0.748   6.500 -27.806  1.00  0.00     0.002 C 
HETATM   16  C   UNL     1       0.721   7.827 -28.544  1.00  0.00     0.002 C 
HETATM   17  C   UNL     1      -0.145   7.578 -29.778  1.00  0.00     0.032 C 
ENDBRANCH  12  13
ENDBRANCH   8  12
ENDBRANCH   5   6
ENDBRANCH   2   5
BRANCH   1  18
HETATM   18  C   UNL     1      -5.374   0.105 -33.043  1.00  0.00     0.157 A 
HETATM   19  C   UNL     1      -5.163  -1.228 -33.503  1.00  0.00     0.029 A 
HETATM   20  C   UNL     1      -4.245  -2.263 -33.232  1.00  0.00     0.023 A 
HETATM   21  C   UNL     1      -6.166  -1.452 -34.437  1.00  0.00     0.063 A 
HETATM   22  C   UNL     1      -4.360  -3.487 -33.913  1.00  0.00    -0.061 A 
HETATM   23  C   UNL     1      -3.393  -4.603 -33.639  1.00  0.00     0.048 C 
HETATM   24  C   UNL     1      -5.394  -3.673 -34.840  1.00  0.00     0.009 A 
HETATM   25  C   UNL     1      -6.317  -2.661 -35.122  1.00  0.00     0.032 A 
HETATM   26  N   UNL     1      -6.881  -0.288 -34.485  1.00  0.00    -0.277 N 
HETATM   27  H   UNL     1      -7.690  -0.090 -35.062  1.00  0.00     0.189 HD
HETATM   28  N   UNL     1      -6.431   0.678 -33.664  1.00  0.00    -0.168 NA
ENDBRANCH   1  18
TORSDOF 5
ENDMDL
MODEL 5
REMARK VINA RESULT:      -8.9      2.239      9.491
REMARK  5 active torsions:
REMARK  status: ('A' for Active; 'I' for Inactive)
REMARK    1  A    between atoms: C_9  and  C_10 
REMARK       I    between atoms: C_10  and  N_11 
REMARK    2  A    between atoms: N_11  and  C_12 
REMARK    3  A    between atoms: C_12  and  C_13 
REMARK    4  A    between atoms: C_15  and  O_16 
REMARK    5  A    between atoms: O_16  and  C_17 
ROOT
HETATM    1  C   UNL     1      -1.374   4.867 -31.552  1.00  0.00     0.273 C 
HETATM    2  N   UNL     1      -2.351   3.956 -31.222  1.00  0.00    -0.351 N 
HETATM    3  O   UNL     1      -1.266   5.369 -32.667  1.00  0.00    -0.266 OA
HETATM    4  H   UNL     1      -2.292   3.573 -30.283  1.00  0.00     0.163 HD
ENDROOT
BRANCH   2   5
HETATM    5  C   UNL     1      -3.328   3.477 -32.159  1.00  0.00     0.161 C 
BRANCH   5   6
HETATM    6  C   UNL     1      -4.179   2.389 -31.567  1.00  0.00    -0.035 A 
HETATM    7  C   UNL     1      -4.071   1.073 -32.027  1.00  0.00     0.066 A 
HETATM    8  C   UNL     1      -4.890   0.101 -31.474  1.00  0.00     0.164 A 
HETATM    9  N   UNL     1      -5.778   0.343 -30.488  1.00  0.00    -0.237 NA
HETATM   10  C   UNL     1      -5.846   1.613 -30.035  1.00  0.00     0.120 A 
HETATM   11  C   UNL     1      -5.080   2.656 -30.534  1.00  0.00     0.028 A 
BRANCH   8  12
HETATM   12  O   UNL     1      -4.755  -1.172 -31.989  1.00  0.00    -0.329 OA
BRANCH  12  13
HETATM   13  C   UNL     1      -5.007  -1.279 -33.388  1.00  0.00     0.130 C 
HETATM   14  C   UNL     1      -4.464  -2.588 -33.967  1.00  0.00     0.032 C 
HETATM   15  C   UNL     1      -5.413  -2.899 -35.109  1.00  0.00     0.002 C 
HETATM   16  C   UNL     1      -6.772  -2.563 -34.519  1.00  0.00     0.002 C 
HETATM   17  C   UNL     1      -6.527  -1.355 -33.617  1.00  0.00     0.032 C 
ENDBRANCH  12  13
ENDBRANCH   8  12
ENDBRANCH   5   6
ENDBRANCH   2   5
BRANCH   1  18
HETATM   18  C   UNL     1      -0.482   5.187 -30.425  1.00  0.00     0.157 A 
HETATM   19  C   UNL     1      -0.464   6.381 -29.646  1.00  0.00     0.029 A 
HETATM   20  C   UNL     1      -1.177   7.598 -29.634  1.00  0.00     0.023 A 
HETATM   21  C   UNL     1       0.533   6.182 -28.700  1.00  0.00     0.063 A 
HETATM   22  C   UNL     1      -0.861   8.577 -28.676  1.00  0.00    -0.061 A 
HETATM   23  C   UNL     1      -1.609   9.879 -28.645  1.00  0.00     0.048 C 
HETATM   24  C   UNL     1       0.145   8.328 -27.734  1.00  0.00     0.009 A 
HETATM   25  C   UNL     1       0.864   7.128 -27.726  1.00  0.00     0.032 A 
HETATM   26  N   UNL     1       1.037   4.939 -28.964  1.00  0.00    -0.277 N 
HETATM   27  H   UNL     1       1.782   4.463 -28.469  1.00  0.00     0.189 HD
HETATM   28  N   UNL     1       0.455   4.309 -30.001  1.00  0.00    -0.168 NA
ENDBRANCH   1  18
TORSDOF 5
ENDMDL
MODEL 6
REMARK VINA RESULT:      -8.7      1.645      2.213
REMARK  5 active torsions:
REMARK  status: ('A' for Active; 'I' for Inactive)
REMARK    1  A    between atoms: C_9  and  C_10 
REMARK       I    between atoms: C_10  and  N_11 
REMARK    2  A    between atoms: N_11  and  C_12 
REMARK    3  A    between atoms: C_12  and  C_13 
REMARK    4  A    between atoms: C_15  and  O_16 
REMARK    5  A    between atoms: O_16  and  C_17 
ROOT
HETATM    1  C   UNL     1      -4.128   2.146 -31.402  1.00  0.00     0.273 C 
HETATM    2  N   UNL     1      -3.456   3.074 -32.165  1.00  0.00    -0.351 N 
HETATM    3  O   UNL     1      -5.044   2.434 -30.638  1.00  0.00    -0.266 OA
HETATM    4  H   UNL     1      -2.679   2.711 -32.709  1.00  0.00     0.163 HD
ENDROOT
BRANCH   2   5
HETATM    5  C   UNL     1      -3.742   4.480 -32.124  1.00  0.00     0.161 C 
BRANCH   5   6
HETATM    6  C   UNL     1      -2.485   5.301 -32.062  1.00  0.00    -0.035 A 
HETATM    7  C   UNL     1      -1.633   5.212 -30.957  1.00  0.00     0.066 A 
HETATM    8  C   UNL     1      -0.495   6.004 -30.925  1.00  0.00     0.164 A 
HETATM    9  N   UNL     1      -0.140   6.846 -31.917  1.00  0.00    -0.237 NA
HETATM   10  C   UNL     1      -0.959   6.895 -32.989  1.00  0.00     0.120 A 
HETATM   11  C   UNL     1      -2.125   6.154 -33.108  1.00  0.00     0.028 A 
BRANCH   8  12
HETATM   12  O   UNL     1       0.291   5.891 -29.796  1.00  0.00    -0.329 OA
BRANCH  12  13
HETATM   13  C   UNL     1      -0.052   6.786 -28.739  1.00  0.00     0.130 C 
HETATM   14  C   UNL     1       0.057   6.116 -27.367  1.00  0.00     0.032 C 
HETATM   15  C   UNL     1       0.435   7.254 -26.438  1.00  0.00     0.002 C 
HETATM   16  C   UNL     1       1.462   8.025 -27.250  1.00  0.00     0.002 C 
HETATM   17  C   UNL     1       0.981   7.926 -28.697  1.00  0.00     0.032 C 
ENDBRANCH  12  13
ENDBRANCH   8  12
ENDBRANCH   5   6
ENDBRANCH   2   5
BRANCH   1  18
HETATM   18  C   UNL     1      -3.641   0.771 -31.608  1.00  0.00     0.157 A 
HETATM   19  C   UNL     1      -4.223  -0.241 -32.425  1.00  0.00     0.029 A 
HETATM   20  C   UNL     1      -5.359  -0.350 -33.253  1.00  0.00     0.023 A 
HETATM   21  C   UNL     1      -3.380  -1.337 -32.301  1.00  0.00     0.063 A 
HETATM   22  C   UNL     1      -5.615  -1.558 -33.924  1.00  0.00    -0.061 A 
HETATM   23  C   UNL     1      -6.819  -1.695 -34.811  1.00  0.00     0.048 C 
HETATM   24  C   UNL     1      -4.731  -2.635 -33.778  1.00  0.00     0.009 A 
HETATM   25  C   UNL     1      -3.597  -2.548 -32.964  1.00  0.00     0.032 A 
HETATM   26  N   UNL     1      -2.391  -0.936 -31.446  1.00  0.00    -0.277 N 
HETATM   27  H   UNL     1      -1.599  -1.482 -31.127  1.00  0.00     0.189 HD
HETATM   28  N   UNL     1      -2.516   0.327 -31.001  1.00  0.00    -0.168 NA
ENDBRANCH   1  18
TORSDOF 5
ENDMDL
MODEL 7
REMARK VINA RESULT:      -8.4      2.036      3.252
REMARK  5 active torsions:
REMARK  status: ('A' for Active; 'I' for Inactive)
REMARK    1  A    between atoms: C_9  and  C_10 
REMARK       I    between atoms: C_10  and  N_11 
REMARK    2  A    between atoms: N_11  and  C_12 
REMARK    3  A    between atoms: C_12  and  C_13 
REMARK    4  A    between atoms: C_15  and  O_16 
REMARK    5  A    between atoms: O_16  and  C_17 
ROOT
HETATM    1  C   UNL     1      -5.249   2.637 -31.935  1.00  0.00     0.273 C 
HETATM    2  N   UNL     1      -3.979   2.766 -32.450  1.00  0.00    -0.351 N 
HETATM    3  O   UNL     1      -5.551   2.957 -30.789  1.00  0.00    -0.266 OA
HETATM    4  H   UNL     1      -3.851   2.407 -33.392  1.00  0.00     0.163 HD
ENDROOT
BRANCH   2   5
HETATM    5  C   UNL     1      -2.868   3.263 -31.688  1.00  0.00     0.161 C 
BRANCH   5   6
HETATM    6  C   UNL     1      -2.220   4.442 -32.356  1.00  0.00    -0.035 A 
HETATM    7  C   UNL     1      -1.589   5.431 -31.595  1.00  0.00     0.066 A 
HETATM    8  C   UNL     1      -1.023   6.516 -32.245  1.00  0.00     0.164 A 
HETATM    9  N   UNL     1      -1.021   6.668 -33.585  1.00  0.00    -0.237 NA
HETATM   10  C   UNL     1      -1.607   5.688 -34.305  1.00  0.00     0.120 A 
HETATM   11  C   UNL     1      -2.212   4.572 -33.746  1.00  0.00     0.028 A 
BRANCH   8  12
HETATM   12  O   UNL     1      -0.440   7.472 -31.438  1.00  0.00    -0.329 OA
BRANCH  12  13
HETATM   13  C   UNL     1      -0.709   7.322 -30.046  1.00  0.00     0.130 C 
HETATM   14  C   UNL     1       0.563   7.434 -29.203  1.00  0.00     0.032 C 
HETATM   15  C   UNL     1       0.077   8.021 -27.891  1.00  0.00     0.002 C 
HETATM   16  C   UNL     1      -0.911   9.083 -28.342  1.00  0.00     0.002 C 
HETATM   17  C   UNL     1      -1.588   8.497 -29.580  1.00  0.00     0.032 C 
ENDBRANCH  12  13
ENDBRANCH   8  12
ENDBRANCH   5   6
ENDBRANCH   2   5
BRANCH   1  18
HETATM   18  C   UNL     1      -6.210   2.088 -32.907  1.00  0.00     0.157 A 
HETATM   19  C   UNL     1      -6.188   0.798 -33.513  1.00  0.00     0.029 A 
HETATM   20  C   UNL     1      -5.350  -0.335 -33.462  1.00  0.00     0.023 A 
HETATM   21  C   UNL     1      -7.314   0.759 -34.325  1.00  0.00     0.063 A 
HETATM   22  C   UNL     1      -5.666  -1.466 -34.233  1.00  0.00    -0.061 A 
HETATM   23  C   UNL     1      -4.788  -2.683 -34.193  1.00  0.00     0.048 C 
HETATM   24  C   UNL     1      -6.818  -1.465 -35.031  1.00  0.00     0.009 A 
HETATM   25  C   UNL     1      -7.665  -0.353 -35.095  1.00  0.00     0.032 A 
HETATM   26  N   UNL     1      -7.911   1.980 -34.171  1.00  0.00    -0.277 N 
HETATM   27  H   UNL     1      -8.761   2.306 -34.616  1.00  0.00     0.189 HD
HETATM   28  N   UNL     1      -7.273   2.812 -33.328  1.00  0.00    -0.168 NA
ENDBRANCH   1  18
TORSDOF 5
ENDMDL
MODEL 8
REMARK VINA RESULT:      -8.3      3.188      6.044
REMARK  5 active torsions:
REMARK  status: ('A' for Active; 'I' for Inactive)
REMARK    1  A    between atoms: C_9  and  C_10 
REMARK       I    between atoms: C_10  and  N_11 
REMARK    2  A    between atoms: N_11  and  C_12 
REMARK    3  A    between atoms: C_12  and  C_13 
REMARK    4  A    between atoms: C_15  and  O_16 
REMARK    5  A    between atoms: O_16  and  C_17 
ROOT
HETATM    1  C   UNL     1      -3.911   2.544 -31.690  1.00  0.00     0.273 C 
HETATM    2  N   UNL     1      -3.910   3.162 -32.921  1.00  0.00    -0.351 N 
HETATM    3  O   UNL     1      -4.147   3.130 -30.639  1.00  0.00    -0.266 OA
HETATM    4  H   UNL     1      -3.639   2.574 -33.704  1.00  0.00     0.163 HD
ENDROOT
BRANCH   2   5
HETATM    5  C   UNL     1      -4.158   4.565 -33.096  1.00  0.00     0.161 C 
BRANCH   5   6
HETATM    6  C   UNL     1      -5.628   4.875 -33.080  1.00  0.00    -0.035 A 
HETATM    7  C   UNL     1      -6.554   3.952 -33.575  1.00  0.00     0.066 A 
HETATM    8  C   UNL     1      -7.899   4.284 -33.566  1.00  0.00     0.164 A 
HETATM    9  N   UNL     1      -8.381   5.447 -33.080  1.00  0.00    -0.237 NA
HETATM   10  C   UNL     1      -7.475   6.312 -32.577  1.00  0.00     0.120 A 
HETATM   11  C   UNL     1      -6.108   6.077 -32.555  1.00  0.00     0.028 A 
BRANCH   8  12
HETATM   12  O   UNL     1      -8.761   3.344 -34.094  1.00  0.00    -0.329 OA
BRANCH  12  13
HETATM   13  C   UNL     1      -8.505   2.003 -33.682  1.00  0.00     0.130 C 
HETATM   14  C   UNL     1      -8.593   1.846 -32.162  1.00  0.00     0.032 C 
HETATM   15  C   UNL     1      -9.070   0.419 -31.973  1.00  0.00     0.002 C 
HETATM   16  C   UNL     1     -10.133   0.273 -33.049  1.00  0.00     0.002 C 
HETATM   17  C   UNL     1      -9.618   1.092 -34.231  1.00  0.00     0.032 C 
ENDBRANCH  12  13
ENDBRANCH   8  12
ENDBRANCH   5   6
ENDBRANCH   2   5
BRANCH   1  18
HETATM   18  C   UNL     1      -3.612   1.104 -31.771  1.00  0.00     0.157 A 
HETATM   19  C   UNL     1      -4.283   0.122 -32.558  1.00  0.00     0.029 A 
HETATM   20  C   UNL     1      -5.371   0.108 -33.454  1.00  0.00     0.023 A 
HETATM   21  C   UNL     1      -3.612  -1.067 -32.303  1.00  0.00     0.063 A 
HETATM   22  C   UNL     1      -5.755  -1.100 -34.060  1.00  0.00    -0.061 A 
HETATM   23  C   UNL     1      -6.911  -1.137 -35.017  1.00  0.00     0.048 C 
HETATM   24  C   UNL     1      -5.043  -2.275 -33.781  1.00  0.00     0.009 A 
HETATM   25  C   UNL     1      -3.959  -2.283 -32.897  1.00  0.00     0.032 A 
HETATM   26  N   UNL     1      -2.630  -0.742 -31.410  1.00  0.00    -0.277 N 
HETATM   27  H   UNL     1      -1.944  -1.366 -31.001  1.00  0.00     0.189 HD
HETATM   28  N   UNL     1      -2.600   0.556 -31.059  1.00  0.00    -0.168 NA
ENDBRANCH   1  18
TORSDOF 5
ENDMDL
MODEL 9
REMARK VINA RESULT:      -8.1      5.525      8.304
REMARK  5 active torsions:
REMARK  status: ('A' for Active; 'I' for Inactive)
REMARK    1  A    between atoms: C_9  and  C_10 
REMARK       I    between atoms: C_10  and  N_11 
REMARK    2  A    between atoms: N_11  and  C_12 
REMARK    3  A    between atoms: C_12  and  C_13 
REMARK    4  A    between atoms: C_15  and  O_16 
REMARK    5  A    between atoms: O_16  and  C_17 
ROOT
HETATM    1  C   UNL     1      -9.985   5.211 -34.620  1.00  0.00     0.273 C 
HETATM    2  N   UNL     1      -9.404   5.205 -33.372  1.00  0.00    -0.351 N 
HETATM    3  O   UNL     1      -9.514   5.809 -35.583  1.00  0.00    -0.266 OA
HETATM    4  H   UNL     1      -9.928   4.721 -32.649  1.00  0.00     0.163 HD
ENDROOT
BRANCH   2   5
HETATM    5  C   UNL     1      -8.200   5.923 -33.062  1.00  0.00     0.161 C 
BRANCH   5   6
HETATM    6  C   UNL     1      -6.999   5.020 -33.064  1.00  0.00    -0.035 A 
HETATM    7  C   UNL     1      -7.136   3.655 -32.796  1.00  0.00     0.066 A 
HETATM    8  C   UNL     1      -6.002   2.859 -32.783  1.00  0.00     0.164 A 
HETATM    9  N   UNL     1      -4.761   3.319 -33.042  1.00  0.00    -0.237 NA
HETATM   10  C   UNL     1      -4.652   4.634 -33.329  1.00  0.00     0.120 A 
HETATM   11  C   UNL     1      -5.724   5.512 -33.352  1.00  0.00     0.028 A 
BRANCH   8  12
HETATM   12  O   UNL     1      -6.198   1.525 -32.485  1.00  0.00    -0.329 OA
BRANCH  12  13
HETATM   13  C   UNL     1      -5.980   0.632 -33.574  1.00  0.00     0.130 C 
HETATM   14  C   UNL     1      -6.484  -0.780 -33.264  1.00  0.00     0.032 C 
HETATM   15  C   UNL     1      -6.899  -1.321 -34.619  1.00  0.00     0.002 C 
HETATM   16  C   UNL     1      -7.602  -0.135 -35.255  1.00  0.00     0.002 C 
HETATM   17  C   UNL     1      -6.829   1.091 -34.773  1.00  0.00     0.032 C 
ENDBRANCH  12  13
ENDBRANCH   8  12
ENDBRANCH   5   6
ENDBRANCH   2   5
BRANCH   1  18
HETATM   18  C   UNL     1     -11.222   4.414 -34.682  1.00  0.00     0.157 A 
HETATM   19  C   UNL     1     -11.404   3.062 -34.267  1.00  0.00     0.029 A 
HETATM   20  C   UNL     1     -10.592   2.051 -33.715  1.00  0.00     0.023 A 
HETATM   21  C   UNL     1     -12.744   2.786 -34.507  1.00  0.00     0.063 A 
HETATM   22  C   UNL     1     -11.149   0.793 -33.429  1.00  0.00    -0.061 A 
HETATM   23  C   UNL     1     -10.302  -0.298 -32.840  1.00  0.00     0.048 C 
HETATM   24  C   UNL     1     -12.509   0.562 -33.678  1.00  0.00     0.009 A 
HETATM   25  C   UNL     1     -13.333   1.552 -34.223  1.00  0.00     0.032 A 
HETATM   26  N   UNL     1     -13.259   3.936 -35.038  1.00  0.00    -0.277 N 
HETATM   27  H   UNL     1     -14.214   4.099 -35.334  1.00  0.00     0.189 HD
HETATM   28  N   UNL     1     -12.371   4.939 -35.165  1.00  0.00    -0.168 NA
ENDBRANCH   1  18
TORSDOF 5
ENDMDL
MODEL 10
REMARK VINA RESULT:      -8.1      2.171      9.605
REMARK  5 active torsions:
REMARK  status: ('A' for Active; 'I' for Inactive)
REMARK    1  A    between atoms: C_9  and  C_10 
REMARK       I    between atoms: C_10  and  N_11 
REMARK    2  A    between atoms: N_11  and  C_12 
REMARK    3  A    between atoms: C_12  and  C_13 
REMARK    4  A    between atoms: C_15  and  O_16 
REMARK    5  A    between atoms: O_16  and  C_17 
ROOT
HETATM    1  C   UNL     1      -2.255   4.772 -31.581  1.00  0.00     0.273 C 
HETATM    2  N   UNL     1      -3.182   3.906 -31.045  1.00  0.00    -0.351 N 
HETATM    3  O   UNL     1      -1.388   4.427 -32.378  1.00  0.00    -0.266 OA
HETATM    4  H   UNL     1      -3.805   4.308 -30.351  1.00  0.00     0.163 HD
ENDROOT
BRANCH   2   5
HETATM    5  C   UNL     1      -3.210   2.502 -31.345  1.00  0.00     0.161 C 
BRANCH   5   6
HETATM    6  C   UNL     1      -4.394   2.140 -32.195  1.00  0.00    -0.035 A 
HETATM    7  C   UNL     1      -4.841   0.817 -32.265  1.00  0.00     0.066 A 
HETATM    8  C   UNL     1      -5.921   0.518 -33.081  1.00  0.00     0.164 A 
HETATM    9  N   UNL     1      -6.594   1.439 -33.800  1.00  0.00    -0.237 NA
HETATM   10  C   UNL     1      -6.168   2.716 -33.696  1.00  0.00     0.120 A 
HETATM   11  C   UNL     1      -5.090   3.111 -32.919  1.00  0.00     0.028 A 
BRANCH   8  12
HETATM   12  O   UNL     1      -6.296  -0.810 -33.129  1.00  0.00    -0.329 OA
BRANCH  12  13
HETATM   13  C   UNL     1      -5.742  -1.547 -34.217  1.00  0.00     0.130 C 
HETATM   14  C   UNL     1      -4.608  -2.469 -33.762  1.00  0.00     0.032 C 
HETATM   15  C   UNL     1      -4.683  -3.637 -34.728  1.00  0.00     0.002 C 
HETATM   16  C   UNL     1      -6.177  -3.885 -34.842  1.00  0.00     0.002 C 
HETATM   17  C   UNL     1      -6.817  -2.499 -34.771  1.00  0.00     0.032 C 
ENDBRANCH  12  13
ENDBRANCH   8  12
ENDBRANCH   5   6
ENDBRANCH   2   5
BRANCH   1  18
HETATM   18  C   UNL     1      -2.422   6.157 -31.107  1.00  0.00     0.157 A 
HETATM   19  C   UNL     1      -1.658   6.828 -30.108  1.00  0.00     0.029 A 
HETATM   20  C   UNL     1      -0.583   6.498 -29.257  1.00  0.00     0.023 A 
HETATM   21  C   UNL     1      -2.188   8.111 -30.048  1.00  0.00     0.063 A 
HETATM   22  C   UNL     1      -0.080   7.464 -28.369  1.00  0.00    -0.061 A 
HETATM   23  C   UNL     1       1.064   7.134 -27.455  1.00  0.00     0.048 C 
HETATM   24  C   UNL     1      -0.638   8.749 -28.350  1.00  0.00     0.009 A 
HETATM   25  C   UNL     1      -1.704   9.099 -29.187  1.00  0.00     0.032 A 
HETATM   26  N   UNL     1      -3.199   8.126 -30.967  1.00  0.00    -0.277 N 
HETATM   27  H   UNL     1      -3.808   8.904 -31.195  1.00  0.00     0.189 HD
HETATM   28  N   UNL     1      -3.376   6.965 -31.623  1.00  0.00    -0.168 NA
ENDBRANCH   1  18
TORSDOF 5
ENDMDL
