MODEL 1
REMARK VINA RESULT:      -8.4      0.000      0.000
REMARK  5 active torsions:
REMARK  status: ('A' for Active; 'I' for Inactive)
REMARK    1  A    between atoms: C_6  and  C_7 
REMARK    2  A    between atoms: C_12  and  C_13 
REMARK    3  A    between atoms: C_13  and  N_14 
REMARK    4  A    between atoms: C_17  and  C_19 
REMARK    5  A    between atoms: C_17  and  O_18 
ROOT
HETATM    1  C   UNL     1      -3.770  -1.445 -32.528  1.00  0.00     0.096 A 
HETATM    2  N   UNL     1      -2.780  -1.371 -31.631  1.00  0.00    -0.174 NA
HETATM    3  N   UNL     1      -2.776  -0.104 -31.209  1.00  0.00    -0.288 N 
HETATM    4  H   UNL     1      -2.099   0.165 -30.499  1.00  0.00     0.188 HD
HETATM    5  C   UNL     1      -3.733   0.661 -31.810  1.00  0.00     0.120 A 
HETATM    6  C   UNL     1      -4.407  -0.171 -32.688  1.00  0.00     0.016 A 
ENDROOT
BRANCH   6   7
HETATM    7  C   UNL     1      -5.573   0.169 -33.538  1.00  0.00     0.277 C 
BRANCH   7   8
HETATM    8  N   UNL     1      -6.764   0.636 -32.745  1.00  0.00    -0.064 N 
HETATM    9  H   UNL     1      -6.574   0.452 -31.748  1.00  0.00     0.280 HD
HETATM   10  C   UNL     1      -8.075  -0.053 -33.072  1.00  0.00     0.282 C 
HETATM   11  C   UNL     1      -9.120   0.854 -32.419  1.00  0.00     0.180 C 
HETATM   12  C   UNL     1      -8.480   2.247 -32.350  1.00  0.00     0.076 C 
HETATM   13  C   UNL     1      -7.077   2.093 -32.915  1.00  0.00     0.238 C 
BRANCH  11  14
HETATM   14  C   UNL     1     -10.393   0.814 -33.264  1.00  0.00     0.419 C 
HETATM   15  F   UNL     1     -10.103   0.873 -34.578  1.00  0.00    -0.168 F 
HETATM   16  F   UNL     1     -11.084  -0.317 -33.027  1.00  0.00    -0.168 F 
HETATM   17  F   UNL     1     -11.184   1.867 -32.963  1.00  0.00    -0.168 F 
ENDBRANCH  11  14
BRANCH  11  18
HETATM   18  O   UNL     1      -9.305   0.410 -31.058  1.00  0.00    -0.379 OA
HETATM   19  H   UNL     1      -9.533  -0.543 -31.066  1.00  0.00     0.211 HD
ENDBRANCH  11  18
ENDBRANCH   7   8
ENDBRANCH   6   7
BRANCH   1  20
HETATM   20  C   UNL     1      -4.087  -2.721 -33.164  1.00  0.00    -0.003 A 
HETATM   21  C   UNL     1      -5.126  -2.830 -34.094  1.00  0.00     0.037 A 
HETATM   22  C   UNL     1      -5.429  -4.068 -34.663  1.00  0.00     0.035 A 
HETATM   23  C   UNL     1      -4.692  -5.202 -34.333  1.00  0.00     0.024 A 
HETATM   24 CL   UNL     1      -6.738  -4.182 -35.772  1.00  0.00    -0.084 Cl
HETATM   25  C   UNL     1      -3.636  -5.098 -33.429  1.00  0.00     0.003 A 
HETATM   26  C   UNL     1      -3.336  -3.863 -32.848  1.00  0.00     0.014 A 
ENDBRANCH   1  20
TORSDOF 5
ENDMDL
MODEL 2
REMARK VINA RESULT:      -8.3      4.651      5.901
REMARK  5 active torsions:
REMARK  status: ('A' for Active; 'I' for Inactive)
REMARK    1  A    between atoms: C_6  and  C_7 
REMARK    2  A    between atoms: C_12  and  C_13 
REMARK    3  A    between atoms: C_13  and  N_14 
REMARK    4  A    between atoms: C_17  and  C_19 
REMARK    5  A    between atoms: C_17  and  O_18 
ROOT
HETATM    1  C   UNL     1      -6.219   0.497 -31.441  1.00  0.00     0.096 A 
HETATM    2  N   UNL     1      -6.379  -0.032 -30.223  1.00  0.00    -0.174 NA
HETATM    3  N   UNL     1      -6.370   1.004 -29.381  1.00  0.00    -0.288 N 
HETATM    4  H   UNL     1      -6.497   0.820 -28.389  1.00  0.00     0.188 HD
HETATM    5  C   UNL     1      -6.199   2.201 -30.012  1.00  0.00     0.120 A 
HETATM    6  C   UNL     1      -6.090   1.922 -31.363  1.00  0.00     0.016 A 
ENDROOT
BRANCH   6   7
HETATM    7  C   UNL     1      -5.950   2.891 -32.477  1.00  0.00     0.277 C 
BRANCH   7   8
HETATM    8  N   UNL     1      -4.726   3.758 -32.354  1.00  0.00    -0.064 N 
HETATM    9  H   UNL     1      -4.778   4.253 -31.450  1.00  0.00     0.280 HD
HETATM   10  C   UNL     1      -4.571   4.822 -33.423  1.00  0.00     0.282 C 
HETATM   11  C   UNL     1      -3.116   5.266 -33.268  1.00  0.00     0.180 C 
HETATM   12  C   UNL     1      -2.379   4.073 -32.645  1.00  0.00     0.076 C 
HETATM   13  C   UNL     1      -3.433   3.002 -32.415  1.00  0.00     0.238 C 
BRANCH  11  14
HETATM   14  C   UNL     1      -2.578   5.658 -34.644  1.00  0.00     0.419 C 
HETATM   15  F   UNL     1      -2.163   6.939 -34.653  1.00  0.00    -0.168 F 
HETATM   16  F   UNL     1      -1.544   4.869 -34.992  1.00  0.00    -0.168 F 
HETATM   17  F   UNL     1      -3.546   5.526 -35.577  1.00  0.00    -0.168 F 
ENDBRANCH  11  14
BRANCH  11  18
HETATM   18  O   UNL     1      -3.078   6.333 -32.298  1.00  0.00    -0.379 OA
HETATM   19  H   UNL     1      -3.821   6.213 -31.669  1.00  0.00     0.211 HD
ENDBRANCH  11  18
ENDBRANCH   7   8
ENDBRANCH   6   7
BRANCH   1  20
HETATM   20  C   UNL     1      -6.230  -0.366 -32.621  1.00  0.00    -0.003 A 
HETATM   21  C   UNL     1      -5.240  -1.334 -32.819  1.00  0.00     0.037 A 
HETATM   22  C   UNL     1      -5.256  -2.123 -33.971  1.00  0.00     0.035 A 
HETATM   23  C   UNL     1      -6.261  -1.973 -34.923  1.00  0.00     0.024 A 
HETATM   24 CL   UNL     1      -4.005  -3.279 -34.212  1.00  0.00    -0.084 Cl
HETATM   25  C   UNL     1      -7.266  -1.029 -34.719  1.00  0.00     0.003 A 
HETATM   26  C   UNL     1      -7.250  -0.230 -33.574  1.00  0.00     0.014 A 
ENDBRANCH   1  20
TORSDOF 5
ENDMDL
MODEL 3
REMARK VINA RESULT:      -8.2      4.414      5.877
REMARK  5 active torsions:
REMARK  status: ('A' for Active; 'I' for Inactive)
REMARK    1  A    between atoms: C_6  and  C_7 
REMARK    2  A    between atoms: C_12  and  C_13 
REMARK    3  A    between atoms: C_13  and  N_14 
REMARK    4  A    between atoms: C_17  and  C_19 
REMARK    5  A    between atoms: C_17  and  O_18 
ROOT
HETATM    1  C   UNL     1      -7.767   0.683 -32.372  1.00  0.00     0.096 A 
HETATM    2  N   UNL     1      -8.621   0.338 -31.402  1.00  0.00    -0.174 NA
HETATM    3  N   UNL     1      -9.311   1.447 -31.126  1.00  0.00    -0.288 N 
HETATM    4  H   UNL     1     -10.038   1.397 -30.416  1.00  0.00     0.188 HD
HETATM    5  C   UNL     1      -8.930   2.515 -31.883  1.00  0.00     0.120 A 
HETATM    6  C   UNL     1      -7.916   2.067 -32.712  1.00  0.00     0.016 A 
ENDROOT
BRANCH   6   7
HETATM    7  C   UNL     1      -7.205   2.833 -33.764  1.00  0.00     0.277 C 
BRANCH   7   8
HETATM    8  N   UNL     1      -6.093   3.689 -33.221  1.00  0.00    -0.064 N 
HETATM    9  H   UNL     1      -6.466   4.226 -32.423  1.00  0.00     0.280 HD
HETATM   10  C   UNL     1      -5.515   4.700 -34.192  1.00  0.00     0.282 C 
HETATM   11  C   UNL     1      -4.212   5.131 -33.516  1.00  0.00     0.180 C 
HETATM   12  C   UNL     1      -3.800   3.958 -32.617  1.00  0.00     0.076 C 
HETATM   13  C   UNL     1      -4.895   2.913 -32.762  1.00  0.00     0.238 C 
BRANCH  11  14
HETATM   14  C   UNL     1      -3.184   5.451 -34.601  1.00  0.00     0.419 C 
HETATM   15  F   UNL     1      -2.707   6.702 -34.459  1.00  0.00    -0.168 F 
HETATM   16  F   UNL     1      -2.152   4.589 -34.547  1.00  0.00    -0.168 F 
HETATM   17  F   UNL     1      -3.753   5.358 -35.823  1.00  0.00    -0.168 F 
ENDBRANCH  11  14
BRANCH  11  18
HETATM   18  O   UNL     1      -4.511   6.241 -32.644  1.00  0.00    -0.379 OA
HETATM   19  H   UNL     1      -5.103   5.928 -31.928  1.00  0.00     0.211 HD
ENDBRANCH  11  18
ENDBRANCH   7   8
ENDBRANCH   6   7
BRANCH   1  20
HETATM   20  C   UNL     1      -6.876  -0.319 -32.954  1.00  0.00    -0.003 A 
HETATM   21  C   UNL     1      -5.673  -0.668 -32.331  1.00  0.00     0.037 A 
HETATM   22  C   UNL     1      -4.825  -1.605 -32.925  1.00  0.00     0.035 A 
HETATM   23  C   UNL     1      -5.171  -2.218 -34.126  1.00  0.00     0.024 A 
HETATM   24 CL   UNL     1      -3.333  -1.987 -32.159  1.00  0.00    -0.084 Cl
HETATM   25  C   UNL     1      -6.380  -1.896 -34.739  1.00  0.00     0.003 A 
HETATM   26  C   UNL     1      -7.228  -0.951 -34.156  1.00  0.00     0.014 A 
ENDBRANCH   1  20
TORSDOF 5
ENDMDL
MODEL 4
REMARK VINA RESULT:      -8.2      1.548      2.060
REMARK  5 active torsions:
REMARK  status: ('A' for Active; 'I' for Inactive)
REMARK    1  A    between atoms: C_6  and  C_7 
REMARK    2  A    between atoms: C_12  and  C_13 
REMARK    3  A    between atoms: C_13  and  N_14 
REMARK    4  A    between atoms: C_17  and  C_19 
REMARK    5  A    between atoms: C_17  and  O_18 
ROOT
HETATM    1  C   UNL     1      -4.532  -0.074 -32.477  1.00  0.00     0.096 A 
HETATM    2  N   UNL     1      -3.336   0.515 -32.586  1.00  0.00    -0.174 NA
HETATM    3  N   UNL     1      -3.357   1.528 -31.716  1.00  0.00    -0.288 N 
HETATM    4  H   UNL     1      -2.523   2.104 -31.627  1.00  0.00     0.188 HD
HETATM    5  C   UNL     1      -4.539   1.627 -31.042  1.00  0.00     0.120 A 
HETATM    6  C   UNL     1      -5.345   0.603 -31.509  1.00  0.00     0.016 A 
ENDROOT
BRANCH   6   7
HETATM    7  C   UNL     1      -6.709   0.246 -31.050  1.00  0.00     0.277 C 
BRANCH   7   8
HETATM    8  N   UNL     1      -7.760   1.216 -31.516  1.00  0.00    -0.064 N 
HETATM    9  H   UNL     1      -7.850   1.955 -30.801  1.00  0.00     0.280 HD
HETATM   10  C   UNL     1      -9.146   0.631 -31.713  1.00  0.00     0.282 C 
HETATM   11  C   UNL     1      -9.871   1.710 -32.520  1.00  0.00     0.180 C 
HETATM   12  C   UNL     1      -8.774   2.480 -33.268  1.00  0.00     0.076 C 
HETATM   13  C   UNL     1      -7.456   1.859 -32.837  1.00  0.00     0.238 C 
BRANCH  11  14
HETATM   14  C   UNL     1     -10.875   1.029 -33.449  1.00  0.00     0.419 C 
HETATM   15  F   UNL     1     -10.436   1.038 -34.723  1.00  0.00    -0.168 F 
HETATM   16  F   UNL     1     -11.078  -0.248 -33.074  1.00  0.00    -0.168 F 
HETATM   17  F   UNL     1     -12.059   1.677 -33.410  1.00  0.00    -0.168 F 
ENDBRANCH  11  14
BRANCH  11  18
HETATM   18  O   UNL     1     -10.468   2.635 -31.587  1.00  0.00    -0.379 OA
HETATM   19  H   UNL     1     -11.309   2.252 -31.259  1.00  0.00     0.211 HD
ENDBRANCH  11  18
ENDBRANCH   7   8
ENDBRANCH   6   7
BRANCH   1  20
HETATM   20  C   UNL     1      -4.836  -1.265 -33.266  1.00  0.00    -0.003 A 
HETATM   21  C   UNL     1      -4.020  -2.400 -33.211  1.00  0.00     0.037 A 
HETATM   22  C   UNL     1      -4.316  -3.512 -34.000  1.00  0.00     0.035 A 
HETATM   23  C   UNL     1      -5.432  -3.518 -34.833  1.00  0.00     0.024 A 
HETATM   24 CL   UNL     1      -3.274  -4.879 -33.944  1.00  0.00    -0.084 Cl
HETATM   25  C   UNL     1      -6.265  -2.402 -34.874  1.00  0.00     0.003 A 
HETATM   26  C   UNL     1      -5.968  -1.281 -34.095  1.00  0.00     0.014 A 
ENDBRANCH   1  20
TORSDOF 5
ENDMDL
MODEL 5
REMARK VINA RESULT:      -8.1      3.250      4.873
REMARK  5 active torsions:
REMARK  status: ('A' for Active; 'I' for Inactive)
REMARK    1  A    between atoms: C_6  and  C_7 
REMARK    2  A    between atoms: C_12  and  C_13 
REMARK    3  A    between atoms: C_13  and  N_14 
REMARK    4  A    between atoms: C_17  and  C_19 
REMARK    5  A    between atoms: C_17  and  O_18 
ROOT
HETATM    1  C   UNL     1      -7.845   0.288 -34.031  1.00  0.00     0.096 A 
HETATM    2  N   UNL     1      -8.123   1.024 -35.113  1.00  0.00    -0.174 NA
HETATM    3  N   UNL     1      -9.076   1.875 -34.728  1.00  0.00    -0.288 N 
HETATM    4  H   UNL     1      -9.425   2.548 -35.408  1.00  0.00     0.188 HD
HETATM    5  C   UNL     1      -9.440   1.715 -33.423  1.00  0.00     0.120 A 
HETATM    6  C   UNL     1      -8.665   0.682 -32.924  1.00  0.00     0.016 A 
ENDROOT
BRANCH   6   7
HETATM    7  C   UNL     1      -8.641   0.162 -31.535  1.00  0.00     0.277 C 
BRANCH   7   8
HETATM    8  N   UNL     1      -7.544   0.764 -30.699  1.00  0.00    -0.064 N 
HETATM    9  H   UNL     1      -7.964   1.096 -29.816  1.00  0.00     0.280 HD
HETATM   10  C   UNL     1      -6.834   1.954 -31.315  1.00  0.00     0.282 C 
HETATM   11  C   UNL     1      -5.580   2.100 -30.451  1.00  0.00     0.180 C 
HETATM   12  C   UNL     1      -5.307   0.705 -29.872  1.00  0.00     0.076 C 
HETATM   13  C   UNL     1      -6.431  -0.186 -30.376  1.00  0.00     0.238 C 
BRANCH  11  14
HETATM   14  C   UNL     1      -4.443   2.624 -31.328  1.00  0.00     0.419 C 
HETATM   15  F   UNL     1      -4.827   2.707 -32.616  1.00  0.00    -0.168 F 
HETATM   16  F   UNL     1      -4.052   3.845 -30.917  1.00  0.00    -0.168 F 
HETATM   17  F   UNL     1      -3.382   1.791 -31.261  1.00  0.00    -0.168 F 
ENDBRANCH  11  14
BRANCH  11  18
HETATM   18  O   UNL     1      -5.906   2.958 -29.337  1.00  0.00    -0.379 OA
HETATM   19  H   UNL     1      -5.825   3.892 -29.626  1.00  0.00     0.211 HD
ENDBRANCH  11  18
ENDBRANCH   7   8
ENDBRANCH   6   7
BRANCH   1  20
HETATM   20  C   UNL     1      -6.796  -0.728 -34.086  1.00  0.00    -0.003 A 
HETATM   21  C   UNL     1      -7.069  -2.029 -34.524  1.00  0.00     0.037 A 
HETATM   22  C   UNL     1      -6.055  -2.988 -34.536  1.00  0.00     0.035 A 
HETATM   23  C   UNL     1      -4.762  -2.663 -34.137  1.00  0.00     0.024 A 
HETATM   24 CL   UNL     1      -6.426  -4.591 -35.039  1.00  0.00    -0.084 Cl
HETATM   25  C   UNL     1      -4.475  -1.363 -33.725  1.00  0.00     0.003 A 
HETATM   26  C   UNL     1      -5.488  -0.401 -33.701  1.00  0.00     0.014 A 
ENDBRANCH   1  20
TORSDOF 5
ENDMDL
MODEL 6
REMARK VINA RESULT:      -8.0      3.643      5.048
REMARK  5 active torsions:
REMARK  status: ('A' for Active; 'I' for Inactive)
REMARK    1  A    between atoms: C_6  and  C_7 
REMARK    2  A    between atoms: C_12  and  C_13 
REMARK    3  A    between atoms: C_13  and  N_14 
REMARK    4  A    between atoms: C_17  and  C_19 
REMARK    5  A    between atoms: C_17  and  O_18 
ROOT
HETATM    1  C   UNL     1      -7.627  -0.155 -34.175  1.00  0.00     0.096 A 
HETATM    2  N   UNL     1      -8.293   0.153 -35.294  1.00  0.00    -0.174 NA
HETATM    3  N   UNL     1      -9.159   1.106 -34.940  1.00  0.00    -0.288 N 
HETATM    4  H   UNL     1      -9.762   1.500 -35.658  1.00  0.00     0.188 HD
HETATM    5  C   UNL     1      -9.086   1.428 -33.616  1.00  0.00     0.120 A 
HETATM    6  C   UNL     1      -8.100   0.625 -33.070  1.00  0.00     0.016 A 
ENDROOT
BRANCH   6   7
HETATM    7  C   UNL     1      -7.600   0.632 -31.674  1.00  0.00     0.277 C 
BRANCH   7   8
HETATM    8  N   UNL     1      -6.800   1.862 -31.341  1.00  0.00    -0.064 N 
HETATM    9  H   UNL     1      -7.457   2.652 -31.244  1.00  0.00     0.280 HD
HETATM   10  C   UNL     1      -5.775   2.274 -32.381  1.00  0.00     0.282 C 
HETATM   11  C   UNL     1      -4.896   3.274 -31.629  1.00  0.00     0.180 C 
HETATM   12  C   UNL     1      -5.019   2.907 -30.144  1.00  0.00     0.076 C 
HETATM   13  C   UNL     1      -5.998   1.745 -30.079  1.00  0.00     0.238 C 
BRANCH  11  14
HETATM   14  C   UNL     1      -3.468   3.163 -32.163  1.00  0.00     0.419 C 
HETATM   15  F   UNL     1      -3.193   1.902 -32.548  1.00  0.00    -0.168 F 
HETATM   16  F   UNL     1      -3.291   3.982 -33.217  1.00  0.00    -0.168 F 
HETATM   17  F   UNL     1      -2.584   3.509 -31.202  1.00  0.00    -0.168 F 
ENDBRANCH  11  14
BRANCH  11  18
HETATM   18  O   UNL     1      -5.481   4.585 -31.785  1.00  0.00    -0.379 OA
HETATM   19  H   UNL     1      -4.760   5.237 -31.915  1.00  0.00     0.211 HD
ENDBRANCH  11  18
ENDBRANCH   7   8
ENDBRANCH   6   7
BRANCH   1  20
HETATM   20  C   UNL     1      -6.553  -1.146 -34.213  1.00  0.00    -0.003 A 
HETATM   21  C   UNL     1      -6.768  -2.428 -34.728  1.00  0.00     0.037 A 
HETATM   22  C   UNL     1      -5.734  -3.366 -34.722  1.00  0.00     0.035 A 
HETATM   23  C   UNL     1      -4.476  -3.035 -34.227  1.00  0.00     0.024 A 
HETATM   24 CL   UNL     1      -6.035  -4.949 -35.324  1.00  0.00    -0.084 Cl
HETATM   25  C   UNL     1      -4.245  -1.751 -33.737  1.00  0.00     0.003 A 
HETATM   26  C   UNL     1      -5.279  -0.812 -33.730  1.00  0.00     0.014 A 
ENDBRANCH   1  20
TORSDOF 5
ENDMDL
MODEL 7
REMARK VINA RESULT:      -7.9      2.616      3.864
REMARK  5 active torsions:
REMARK  status: ('A' for Active; 'I' for Inactive)
REMARK    1  A    between atoms: C_6  and  C_7 
REMARK    2  A    between atoms: C_12  and  C_13 
REMARK    3  A    between atoms: C_13  and  N_14 
REMARK    4  A    between atoms: C_17  and  C_19 
REMARK    5  A    between atoms: C_17  and  O_18 
ROOT
HETATM    1  C   UNL     1      -6.990   0.655 -32.233  1.00  0.00     0.096 A 
HETATM    2  N   UNL     1      -6.962   0.713 -30.896  1.00  0.00    -0.174 NA
HETATM    3  N   UNL     1      -7.792   1.706 -30.567  1.00  0.00    -0.288 N 
HETATM    4  H   UNL     1      -7.931   1.910 -29.579  1.00  0.00     0.188 HD
HETATM    5  C   UNL     1      -8.359   2.309 -31.651  1.00  0.00     0.120 A 
HETATM    6  C   UNL     1      -7.861   1.660 -32.767  1.00  0.00     0.016 A 
ENDROOT
BRANCH   6   7
HETATM    7  C   UNL     1      -8.215   1.904 -34.186  1.00  0.00     0.277 C 
BRANCH   7   8
HETATM    8  N   UNL     1      -9.639   1.541 -34.510  1.00  0.00    -0.064 N 
HETATM    9  H   UNL     1      -9.640   1.030 -35.406  1.00  0.00     0.280 HD
HETATM   10  C   UNL     1     -10.589   2.711 -34.676  1.00  0.00     0.282 C 
HETATM   11  C   UNL     1     -11.969   2.054 -34.617  1.00  0.00     0.180 C 
HETATM   12  C   UNL     1     -11.783   0.762 -33.809  1.00  0.00     0.076 C 
HETATM   13  C   UNL     1     -10.303   0.689 -33.470  1.00  0.00     0.238 C 
BRANCH  11  14
HETATM   14  C   UNL     1     -12.947   3.035 -33.973  1.00  0.00     0.419 C 
HETATM   15  F   UNL     1     -12.484   3.471 -32.787  1.00  0.00    -0.168 F 
HETATM   16  F   UNL     1     -13.147   4.099 -34.774  1.00  0.00    -0.168 F 
HETATM   17  F   UNL     1     -14.138   2.433 -33.761  1.00  0.00    -0.168 F 
ENDBRANCH  11  14
BRANCH  11  18
HETATM   18  O   UNL     1     -12.329   1.659 -35.958  1.00  0.00    -0.379 OA
HETATM   19  H   UNL     1     -12.592   2.459 -36.461  1.00  0.00     0.211 HD
ENDBRANCH  11  18
ENDBRANCH   7   8
ENDBRANCH   6   7
BRANCH   1  20
HETATM   20  C   UNL     1      -6.219  -0.367 -32.937  1.00  0.00    -0.003 A 
HETATM   21  C   UNL     1      -6.852  -1.424 -33.599  1.00  0.00     0.037 A 
HETATM   22  C   UNL     1      -6.090  -2.405 -34.236  1.00  0.00     0.035 A 
HETATM   23  C   UNL     1      -4.700  -2.336 -34.241  1.00  0.00     0.024 A 
HETATM   24 CL   UNL     1      -6.891  -3.717 -35.008  1.00  0.00    -0.084 Cl
HETATM   25  C   UNL     1      -4.062  -1.271 -33.608  1.00  0.00     0.003 A 
HETATM   26  C   UNL     1      -4.818  -0.292 -32.959  1.00  0.00     0.014 A 
ENDBRANCH   1  20
TORSDOF 5
ENDMDL
MODEL 8
REMARK VINA RESULT:      -7.8      2.146      2.949
REMARK  5 active torsions:
REMARK  status: ('A' for Active; 'I' for Inactive)
REMARK    1  A    between atoms: C_6  and  C_7 
REMARK    2  A    between atoms: C_12  and  C_13 
REMARK    3  A    between atoms: C_13  and  N_14 
REMARK    4  A    between atoms: C_17  and  C_19 
REMARK    5  A    between atoms: C_17  and  O_18 
ROOT
HETATM    1  C   UNL     1      -5.881  -0.546 -33.500  1.00  0.00     0.096 A 
HETATM    2  N   UNL     1      -4.767   0.147 -33.242  1.00  0.00    -0.174 NA
HETATM    3  N   UNL     1      -5.183   1.345 -32.823  1.00  0.00    -0.288 N 
HETATM    4  H   UNL     1      -4.481   2.031 -32.554  1.00  0.00     0.188 HD
HETATM    5  C   UNL     1      -6.542   1.461 -32.805  1.00  0.00     0.120 A 
HETATM    6  C   UNL     1      -7.046   0.250 -33.246  1.00  0.00     0.016 A 
ENDROOT
BRANCH   6   7
HETATM    7  C   UNL     1      -8.469  -0.150 -33.352  1.00  0.00     0.277 C 
BRANCH   7   8
HETATM    8  N   UNL     1      -9.416   1.018 -33.298  1.00  0.00    -0.064 N 
HETATM    9  H   UNL     1      -9.201   1.562 -32.448  1.00  0.00     0.280 HD
HETATM   10  C   UNL     1     -10.888   0.661 -33.224  1.00  0.00     0.282 C 
HETATM   11  C   UNL     1     -11.586   1.981 -33.557  1.00  0.00     0.180 C 
HETATM   12  C   UNL     1     -10.585   2.783 -34.400  1.00  0.00     0.076 C 
HETATM   13  C   UNL     1      -9.331   1.928 -34.487  1.00  0.00     0.238 C 
BRANCH  11  14
HETATM   14  C   UNL     1     -12.888   1.670 -34.295  1.00  0.00     0.419 C 
HETATM   15  F   UNL     1     -12.938   0.375 -34.660  1.00  0.00    -0.168 F 
HETATM   16  F   UNL     1     -13.952   1.938 -33.515  1.00  0.00    -0.168 F 
HETATM   17  F   UNL     1     -12.979   2.422 -35.413  1.00  0.00    -0.168 F 
ENDBRANCH  11  14
BRANCH  11  18
HETATM   18  O   UNL     1     -11.771   2.709 -32.324  1.00  0.00    -0.379 OA
HETATM   19  H   UNL     1     -10.913   3.102 -32.060  1.00  0.00     0.211 HD
ENDBRANCH  11  18
ENDBRANCH   7   8
ENDBRANCH   6   7
BRANCH   1  20
HETATM   20  C   UNL     1      -5.793  -1.937 -33.940  1.00  0.00    -0.003 A 
HETATM   21  C   UNL     1      -4.628  -2.686 -33.745  1.00  0.00     0.037 A 
HETATM   22  C   UNL     1      -4.559  -4.003 -34.205  1.00  0.00     0.035 A 
HETATM   23  C   UNL     1      -5.648  -4.593 -34.841  1.00  0.00     0.024 A 
HETATM   24 CL   UNL     1      -3.101  -4.889 -33.990  1.00  0.00    -0.084 Cl
HETATM   25  C   UNL     1      -6.822  -3.862 -35.015  1.00  0.00     0.003 A 
HETATM   26  C   UNL     1      -6.893  -2.541 -34.566  1.00  0.00     0.014 A 
ENDBRANCH   1  20
TORSDOF 5
ENDMDL
MODEL 9
REMARK VINA RESULT:      -7.8      1.711      2.381
REMARK  5 active torsions:
REMARK  status: ('A' for Active; 'I' for Inactive)
REMARK    1  A    between atoms: C_6  and  C_7 
REMARK    2  A    between atoms: C_12  and  C_13 
REMARK    3  A    between atoms: C_13  and  N_14 
REMARK    4  A    between atoms: C_17  and  C_19 
REMARK    5  A    between atoms: C_17  and  O_18 
ROOT
HETATM    1  C   UNL     1      -4.179   0.943 -31.917  1.00  0.00     0.096 A 
HETATM    2  N   UNL     1      -3.354   1.880 -32.400  1.00  0.00    -0.174 NA
HETATM    3  N   UNL     1      -3.693   3.009 -31.774  1.00  0.00    -0.288 N 
HETATM    4  H   UNL     1      -3.168   3.854 -31.988  1.00  0.00     0.188 HD
HETATM    5  C   UNL     1      -4.724   2.844 -30.897  1.00  0.00     0.120 A 
HETATM    6  C   UNL     1      -5.082   1.508 -30.957  1.00  0.00     0.016 A 
ENDROOT
BRANCH   6   7
HETATM    7  C   UNL     1      -6.114   0.812 -30.152  1.00  0.00     0.277 C 
BRANCH   7   8
HETATM    8  N   UNL     1      -7.493   0.914 -30.745  1.00  0.00    -0.064 N 
HETATM    9  H   UNL     1      -8.148   0.427 -30.112  1.00  0.00     0.280 HD
HETATM   10  C   UNL     1      -7.662   0.283 -32.113  1.00  0.00     0.282 C 
HETATM   11  C   UNL     1      -8.995   0.855 -32.601  1.00  0.00     0.180 C 
HETATM   12  C   UNL     1      -9.172   2.189 -31.863  1.00  0.00     0.076 C 
HETATM   13  C   UNL     1      -7.970   2.322 -30.941  1.00  0.00     0.238 C 
BRANCH  11  14
HETATM   14  C   UNL     1      -8.931   1.008 -34.120  1.00  0.00     0.419 C 
HETATM   15  F   UNL     1      -8.254   2.121 -34.465  1.00  0.00    -0.168 F 
HETATM   16  F   UNL     1      -8.322  -0.055 -34.679  1.00  0.00    -0.168 F 
HETATM   17  F   UNL     1     -10.178   1.102 -34.631  1.00  0.00    -0.168 F 
ENDBRANCH  11  14
BRANCH  11  18
HETATM   18  O   UNL     1     -10.048  -0.020 -32.143  1.00  0.00    -0.379 OA
HETATM   19  H   UNL     1     -10.303  -0.616 -32.878  1.00  0.00     0.211 HD
ENDBRANCH  11  18
ENDBRANCH   7   8
ENDBRANCH   6   7
BRANCH   1  20
HETATM   20  C   UNL     1      -4.051  -0.444 -32.359  1.00  0.00    -0.003 A 
HETATM   21  C   UNL     1      -4.727  -0.909 -33.491  1.00  0.00     0.037 A 
HETATM   22  C   UNL     1      -4.612  -2.247 -33.873  1.00  0.00     0.035 A 
HETATM   23  C   UNL     1      -3.813  -3.127 -33.150  1.00  0.00     0.024 A 
HETATM   24 CL   UNL     1      -5.487  -2.803 -35.246  1.00  0.00    -0.084 Cl
HETATM   25  C   UNL     1      -3.114  -2.666 -32.036  1.00  0.00     0.003 A 
HETATM   26  C   UNL     1      -3.233  -1.331 -31.643  1.00  0.00     0.014 A 
ENDBRANCH   1  20
TORSDOF 5
ENDMDL
MODEL 10
REMARK VINA RESULT:      -7.8     13.126     14.287
REMARK  5 active torsions:
REMARK  status: ('A' for Active; 'I' for Inactive)
REMARK    1  A    between atoms: C_6  and  C_7 
REMARK    2  A    between atoms: C_12  and  C_13 
REMARK    3  A    between atoms: C_13  and  N_14 
REMARK    4  A    between atoms: C_17  and  C_19 
REMARK    5  A    between atoms: C_17  and  O_18 
ROOT
HETATM    1  C   UNL     1      -6.526 -12.799 -39.801  1.00  0.00     0.096 A 
HETATM    2  N   UNL     1      -5.920 -12.033 -40.715  1.00  0.00    -0.174 NA
HETATM    3  N   UNL     1      -4.623 -12.060 -40.397  1.00  0.00    -0.288 N 
HETATM    4  H   UNL     1      -3.972 -11.547 -40.988  1.00  0.00     0.188 HD
HETATM    5  C   UNL     1      -4.360 -12.816 -39.293  1.00  0.00     0.120 A 
HETATM    6  C   UNL     1      -5.576 -13.317 -38.861  1.00  0.00     0.016 A 
ENDROOT
BRANCH   6   7
HETATM    7  C   UNL     1      -5.820 -14.244 -37.729  1.00  0.00     0.277 C 
BRANCH   7   8
HETATM    8  N   UNL     1      -5.965 -13.536 -36.409  1.00  0.00    -0.064 N 
HETATM    9  H   UNL     1      -5.643 -12.563 -36.533  1.00  0.00     0.280 HD
HETATM   10  C   UNL     1      -5.158 -14.118 -35.265  1.00  0.00     0.282 C 
HETATM   11  C   UNL     1      -5.777 -13.463 -34.030  1.00  0.00     0.180 C 
HETATM   12  C   UNL     1      -7.216 -13.104 -34.424  1.00  0.00     0.076 C 
HETATM   13  C   UNL     1      -7.368 -13.515 -35.879  1.00  0.00     0.238 C 
BRANCH  11  14
HETATM   14  C   UNL     1      -5.696 -14.449 -32.865  1.00  0.00     0.419 C 
HETATM   15  F   UNL     1      -4.810 -15.429 -33.123  1.00  0.00    -0.168 F 
HETATM   16  F   UNL     1      -5.323 -13.819 -31.735  1.00  0.00    -0.168 F 
HETATM   17  F   UNL     1      -6.902 -15.021 -32.655  1.00  0.00    -0.168 F 
ENDBRANCH  11  14
BRANCH  11  18
HETATM   18  O   UNL     1      -5.085 -12.218 -33.794  1.00  0.00    -0.379 OA
HETATM   19  H   UNL     1      -4.143 -12.331 -34.040  1.00  0.00     0.211 HD
ENDBRANCH  11  18
ENDBRANCH   7   8
ENDBRANCH   6   7
BRANCH   1  20
HETATM   20  C   UNL     1      -7.967 -13.029 -39.878  1.00  0.00    -0.003 A 
HETATM   21  C   UNL     1      -8.852 -11.990 -40.183  1.00  0.00     0.037 A 
HETATM   22  C   UNL     1     -10.227 -12.232 -40.219  1.00  0.00     0.035 A 
HETATM   23  C   UNL     1     -10.733 -13.506 -39.975  1.00  0.00     0.024 A 
HETATM   24 CL   UNL     1     -11.297 -10.928 -40.555  1.00  0.00    -0.084 Cl
HETATM   25  C   UNL     1      -9.856 -14.552 -39.698  1.00  0.00     0.003 A 
HETATM   26  C   UNL     1      -8.480 -14.315 -39.650  1.00  0.00     0.014 A 
ENDBRANCH   1  20
TORSDOF 5
ENDMDL
