MODEL 1
REMARK VINA RESULT:      -8.9      0.000      0.000
REMARK  3 active torsions:
REMARK  status: ('A' for Active; 'I' for Inactive)
REMARK    1  A    between atoms: C_4  and  N_5 
REMARK       I    between atoms: N_5  and  C_6 
REMARK    2  A    between atoms: C_6  and  C_7 
REMARK    3  A    between atoms: C_7  and  C_8 
ROOT
HETATM    1  C   UNL     1     -10.408   2.168 -33.919  1.00  0.00     0.286 C 
HETATM    2  N   UNL     1     -11.435   2.372 -35.057  1.00  0.00    -0.056 N 
HETATM    3  H   UNL     1     -11.197   3.284 -35.475  1.00  0.00     0.278 HD
HETATM    4  H   UNL     1     -11.273   1.687 -35.808  1.00  0.00     0.278 HD
HETATM    5  C   UNL     1     -12.901   2.423 -34.663  1.00  0.00     0.209 C 
HETATM    6  C   UNL     1     -13.101   3.287 -33.385  1.00  0.00     0.115 C 
HETATM    7  N   UNL     1     -12.064   3.127 -32.366  1.00  0.00    -0.353 N 
HETATM    8  C   UNL     1     -10.738   3.068 -32.721  1.00  0.00     0.249 C 
HETATM    9  O   UNL     1      -9.898   3.657 -32.055  1.00  0.00    -0.271 OA
HETATM   10  C   UNL     1     -13.494   1.010 -34.637  1.00  0.00     0.035 C 
HETATM   11  C   UNL     1     -14.866   0.948 -33.977  1.00  0.00     0.002 C 
HETATM   12  C   UNL     1     -14.857   1.627 -32.614  1.00  0.00     0.002 C 
HETATM   13  C   UNL     1     -14.485   3.099 -32.759  1.00  0.00     0.027 C 
HETATM   14  H   UNL     1     -12.170   3.719 -31.542  1.00  0.00     0.163 HD
ENDROOT
BRANCH   1  15
HETATM   15  C   UNL     1     -10.393   0.705 -33.483  1.00  0.00     0.146 C 
BRANCH  15  16
HETATM   16  C   UNL     1      -9.009   0.294 -33.028  1.00  0.00     0.224 C 
HETATM   17  N   UNL     1      -8.172   0.080 -34.106  1.00  0.00    -0.327 N 
HETATM   18  H   UNL     1      -8.438   0.469 -35.002  1.00  0.00     0.169 HD
HETATM   19  O   UNL     1      -8.740   0.198 -31.842  1.00  0.00    -0.273 OA
BRANCH  17  20
HETATM   20  C   UNL     1      -6.978  -0.666 -34.121  1.00  0.00     0.035 A 
HETATM   21  C   UNL     1      -5.765  -0.195 -33.615  1.00  0.00     0.036 A 
HETATM   22  C   UNL     1      -4.641  -1.036 -33.566  1.00  0.00    -0.059 A 
HETATM   23  C   UNL     1      -3.337  -0.541 -33.014  1.00  0.00     0.048 C 
HETATM   24  C   UNL     1      -4.739  -2.344 -34.059  1.00  0.00     0.013 A 
HETATM   25  C   UNL     1      -5.947  -2.830 -34.568  1.00  0.00    -0.059 A 
HETATM   26  C   UNL     1      -7.058  -1.980 -34.601  1.00  0.00     0.036 A 
HETATM   27  C   UNL     1      -6.031  -4.230 -35.102  1.00  0.00     0.048 C 
ENDBRANCH  17  20
ENDBRANCH  15  16
ENDBRANCH   1  15
TORSDOF 3
ENDMDL
MODEL 2
REMARK VINA RESULT:      -8.6      0.955      2.030
REMARK  3 active torsions:
REMARK  status: ('A' for Active; 'I' for Inactive)
REMARK    1  A    between atoms: C_4  and  N_5 
REMARK       I    between atoms: N_5  and  C_6 
REMARK    2  A    between atoms: C_6  and  C_7 
REMARK    3  A    between atoms: C_7  and  C_8 
ROOT
HETATM    1  C   UNL     1      -9.898   2.563 -33.469  1.00  0.00     0.286 C 
HETATM    2  N   UNL     1     -10.745   2.786 -34.743  1.00  0.00    -0.056 N 
HETATM    3  H   UNL     1     -10.538   3.752 -35.039  1.00  0.00     0.278 HD
HETATM    4  H   UNL     1     -10.397   2.194 -35.509  1.00  0.00     0.278 HD
HETATM    5  C   UNL     1     -12.253   2.673 -34.598  1.00  0.00     0.209 C 
HETATM    6  C   UNL     1     -12.741   3.388 -33.305  1.00  0.00     0.115 C 
HETATM    7  N   UNL     1     -11.869   3.221 -32.144  1.00  0.00    -0.353 N 
HETATM    8  C   UNL     1     -10.504   3.312 -32.274  1.00  0.00     0.249 C 
HETATM    9  O   UNL     1      -9.845   3.903 -31.431  1.00  0.00    -0.271 OA
HETATM   10  C   UNL     1     -12.697   1.218 -34.786  1.00  0.00     0.035 C 
HETATM   11  C   UNL     1     -14.143   0.974 -34.373  1.00  0.00     0.002 C 
HETATM   12  C   UNL     1     -14.421   1.517 -32.977  1.00  0.00     0.002 C 
HETATM   13  C   UNL     1     -14.180   3.022 -32.939  1.00  0.00     0.027 C 
HETATM   14  H   UNL     1     -12.164   3.720 -31.304  1.00  0.00     0.163 HD
ENDROOT
BRANCH   1  15
HETATM   15  C   UNL     1      -9.805   1.072 -33.157  1.00  0.00     0.146 C 
BRANCH  15  16
HETATM   16  C   UNL     1      -8.735   0.412 -33.999  1.00  0.00     0.224 C 
HETATM   17  N   UNL     1      -8.318  -0.778 -33.435  1.00  0.00    -0.327 N 
HETATM   18  H   UNL     1      -8.914  -1.213 -32.742  1.00  0.00     0.169 HD
HETATM   19  O   UNL     1      -8.350   0.922 -35.039  1.00  0.00    -0.273 OA
BRANCH  17  20
HETATM   20  C   UNL     1      -7.114  -1.463 -33.686  1.00  0.00     0.035 A 
HETATM   21  C   UNL     1      -7.043  -2.679 -34.369  1.00  0.00     0.036 A 
HETATM   22  C   UNL     1      -5.796  -3.249 -34.677  1.00  0.00    -0.059 A 
HETATM   23  C   UNL     1      -5.711  -4.549 -35.420  1.00  0.00     0.048 C 
HETATM   24  C   UNL     1      -4.624  -2.603 -34.263  1.00  0.00     0.013 A 
HETATM   25  C   UNL     1      -4.679  -1.386 -33.579  1.00  0.00    -0.059 A 
HETATM   26  C   UNL     1      -5.930  -0.828 -33.289  1.00  0.00     0.036 A 
HETATM   27  C   UNL     1      -3.413  -0.713 -33.134  1.00  0.00     0.048 C 
ENDBRANCH  17  20
ENDBRANCH  15  16
ENDBRANCH   1  15
TORSDOF 3
ENDMDL
MODEL 3
REMARK VINA RESULT:      -8.4      1.876      2.850
REMARK  3 active torsions:
REMARK  status: ('A' for Active; 'I' for Inactive)
REMARK    1  A    between atoms: C_4  and  N_5 
REMARK       I    between atoms: N_5  and  C_6 
REMARK    2  A    between atoms: C_6  and  C_7 
REMARK    3  A    between atoms: C_7  and  C_8 
ROOT
HETATM    1  C   UNL     1     -11.818   1.522 -33.685  1.00  0.00     0.286 C 
HETATM    2  N   UNL     1     -11.641   2.591 -32.582  1.00  0.00    -0.056 N 
HETATM    3  H   UNL     1     -12.374   2.385 -31.886  1.00  0.00     0.278 HD
HETATM    4  H   UNL     1     -10.754   2.442 -32.082  1.00  0.00     0.278 HD
HETATM    5  C   UNL     1     -11.806   4.044 -32.994  1.00  0.00     0.209 C 
HETATM    6  C   UNL     1     -13.032   4.216 -33.937  1.00  0.00     0.115 C 
HETATM    7  N   UNL     1     -13.212   3.143 -34.913  1.00  0.00    -0.353 N 
HETATM    8  C   UNL     1     -13.052   1.828 -34.545  1.00  0.00     0.249 C 
HETATM    9  O   UNL     1     -13.828   0.977 -34.956  1.00  0.00    -0.271 OA
HETATM   10  C   UNL     1     -10.471   4.609 -33.492  1.00  0.00     0.035 C 
HETATM   11  C   UNL     1     -10.614   5.957 -34.190  1.00  0.00     0.002 C 
HETATM   12  C   UNL     1     -11.693   5.914 -35.263  1.00  0.00     0.002 C 
HETATM   13  C   UNL     1     -13.044   5.574 -34.642  1.00  0.00     0.027 C 
HETATM   14  H   UNL     1     -14.035   3.230 -35.509  1.00  0.00     0.163 HD
ENDROOT
BRANCH   1  15
HETATM   15  C   UNL     1     -10.571   1.465 -34.563  1.00  0.00     0.146 C 
BRANCH  15  16
HETATM   16  C   UNL     1      -9.419   0.825 -33.820  1.00  0.00     0.224 C 
HETATM   17  N   UNL     1      -8.309   0.699 -34.633  1.00  0.00    -0.327 N 
HETATM   18  H   UNL     1      -8.266   1.262 -35.473  1.00  0.00     0.169 HD
HETATM   19  O   UNL     1      -9.530   0.499 -32.649  1.00  0.00    -0.273 OA
BRANCH  17  20
HETATM   20  C   UNL     1      -7.214  -0.167 -34.450  1.00  0.00     0.035 A 
HETATM   21  C   UNL     1      -6.004   0.226 -33.877  1.00  0.00     0.036 A 
HETATM   22  C   UNL     1      -4.995  -0.720 -33.628  1.00  0.00    -0.059 A 
HETATM   23  C   UNL     1      -3.696  -0.308 -33.003  1.00  0.00     0.048 C 
HETATM   24  C   UNL     1      -5.203  -2.057 -33.990  1.00  0.00     0.013 A 
HETATM   25  C   UNL     1      -6.410  -2.466 -34.564  1.00  0.00    -0.059 A 
HETATM   26  C   UNL     1      -7.407  -1.511 -34.797  1.00  0.00     0.036 A 
HETATM   27  C   UNL     1      -6.611  -3.901 -34.956  1.00  0.00     0.048 C 
ENDBRANCH  17  20
ENDBRANCH  15  16
ENDBRANCH   1  15
TORSDOF 3
ENDMDL
MODEL 4
REMARK VINA RESULT:      -8.3      5.311      8.645
REMARK  3 active torsions:
REMARK  status: ('A' for Active; 'I' for Inactive)
REMARK    1  A    between atoms: C_4  and  N_5 
REMARK       I    between atoms: N_5  and  C_6 
REMARK    2  A    between atoms: C_6  and  C_7 
REMARK    3  A    between atoms: C_7  and  C_8 
ROOT
HETATM    1  C   UNL     1      -3.150   3.860 -33.123  1.00  0.00     0.286 C 
HETATM    2  N   UNL     1      -2.056   4.646 -33.883  1.00  0.00    -0.056 N 
HETATM    3  H   UNL     1      -1.342   3.944 -34.129  1.00  0.00     0.278 HD
HETATM    4  H   UNL     1      -2.422   4.979 -34.785  1.00  0.00     0.278 HD
HETATM    5  C   UNL     1      -1.353   5.759 -33.127  1.00  0.00     0.209 C 
HETATM    6  C   UNL     1      -1.005   5.311 -31.678  1.00  0.00     0.115 C 
HETATM    7  N   UNL     1      -2.030   4.501 -31.022  1.00  0.00    -0.353 N 
HETATM    8  C   UNL     1      -2.676   3.500 -31.708  1.00  0.00     0.249 C 
HETATM    9  O   UNL     1      -2.899   2.428 -31.163  1.00  0.00    -0.271 OA
HETATM   10  C   UNL     1      -2.131   7.072 -33.271  1.00  0.00     0.035 C 
HETATM   11  C   UNL     1      -1.655   8.159 -32.314  1.00  0.00     0.002 C 
HETATM   12  C   UNL     1      -1.590   7.646 -30.881  1.00  0.00     0.002 C 
HETATM   13  C   UNL     1      -0.609   6.484 -30.779  1.00  0.00     0.027 C 
HETATM   14  H   UNL     1      -1.791   4.171 -30.086  1.00  0.00     0.163 HD
ENDROOT
BRANCH   1  15
HETATM   15  C   UNL     1      -4.431   4.685 -33.048  1.00  0.00     0.146 C 
BRANCH  15  16
HETATM   16  C   UNL     1      -5.634   3.843 -33.413  1.00  0.00     0.224 C 
HETATM   17  N   UNL     1      -5.727   2.726 -32.605  1.00  0.00    -0.327 N 
HETATM   18  H   UNL     1      -5.212   2.724 -31.734  1.00  0.00     0.169 HD
HETATM   19  O   UNL     1      -6.388   4.180 -34.312  1.00  0.00    -0.273 OA
BRANCH  17  20
HETATM   20  C   UNL     1      -6.439   1.541 -32.869  1.00  0.00     0.035 A 
HETATM   21  C   UNL     1      -7.815   1.407 -32.678  1.00  0.00     0.036 A 
HETATM   22  C   UNL     1      -8.475   0.228 -33.065  1.00  0.00    -0.059 A 
HETATM   23  C   UNL     1      -9.955   0.080 -32.873  1.00  0.00     0.048 C 
HETATM   24  C   UNL     1      -7.734  -0.824 -33.618  1.00  0.00     0.013 A 
HETATM   25  C   UNL     1      -6.355  -0.704 -33.816  1.00  0.00    -0.059 A 
HETATM   26  C   UNL     1      -5.717   0.481 -33.431  1.00  0.00     0.036 A 
HETATM   27  C   UNL     1      -5.575  -1.847 -34.399  1.00  0.00     0.048 C 
ENDBRANCH  17  20
ENDBRANCH  15  16
ENDBRANCH   1  15
TORSDOF 3
ENDMDL
MODEL 5
REMARK VINA RESULT:      -8.2      4.826      7.821
REMARK  3 active torsions:
REMARK  status: ('A' for Active; 'I' for Inactive)
REMARK    1  A    between atoms: C_4  and  N_5 
REMARK       I    between atoms: N_5  and  C_6 
REMARK    2  A    between atoms: C_6  and  C_7 
REMARK    3  A    between atoms: C_7  and  C_8 
ROOT
HETATM    1  C   UNL     1      -4.494   3.554 -31.247  1.00  0.00     0.286 C 
HETATM    2  N   UNL     1      -3.937   4.853 -30.620  1.00  0.00    -0.056 N 
HETATM    3  H   UNL     1      -4.766   5.433 -30.420  1.00  0.00     0.278 HD
HETATM    4  H   UNL     1      -3.525   4.653 -29.698  1.00  0.00     0.278 HD
HETATM    5  C   UNL     1      -2.999   5.685 -31.475  1.00  0.00     0.209 C 
HETATM    6  C   UNL     1      -3.526   5.790 -32.936  1.00  0.00     0.115 C 
HETATM    7  N   UNL     1      -4.120   4.563 -33.464  1.00  0.00    -0.353 N 
HETATM    8  C   UNL     1      -4.961   3.801 -32.688  1.00  0.00     0.249 C 
HETATM    9  O   UNL     1      -5.971   3.315 -33.174  1.00  0.00    -0.271 OA
HETATM   10  C   UNL     1      -1.553   5.205 -31.300  1.00  0.00     0.035 C 
HETATM   11  C   UNL     1      -0.598   5.791 -32.334  1.00  0.00     0.002 C 
HETATM   12  C   UNL     1      -1.130   5.608 -33.748  1.00  0.00     0.002 C 
HETATM   13  C   UNL     1      -2.469   6.322 -33.906  1.00  0.00     0.027 C 
HETATM   14  H   UNL     1      -4.502   4.636 -34.407  1.00  0.00     0.163 HD
ENDROOT
BRANCH   1  15
HETATM   15  C   UNL     1      -3.427   2.462 -31.225  1.00  0.00     0.146 C 
BRANCH  15  16
HETATM   16  C   UNL     1      -4.047   1.100 -31.448  1.00  0.00     0.224 C 
HETATM   17  N   UNL     1      -3.812   0.647 -32.732  1.00  0.00    -0.327 N 
HETATM   18  H   UNL     1      -3.066   1.081 -33.261  1.00  0.00     0.169 HD
HETATM   19  O   UNL     1      -4.653   0.531 -30.554  1.00  0.00    -0.273 OA
BRANCH  17  20
HETATM   20  C   UNL     1      -4.525  -0.347 -33.428  1.00  0.00     0.035 A 
HETATM   21  C   UNL     1      -4.100  -1.672 -33.535  1.00  0.00     0.036 A 
HETATM   22  C   UNL     1      -4.919  -2.632 -34.154  1.00  0.00    -0.059 A 
HETATM   23  C   UNL     1      -4.474  -4.060 -34.264  1.00  0.00     0.048 C 
HETATM   24  C   UNL     1      -6.152  -2.241 -34.691  1.00  0.00     0.013 A 
HETATM   25  C   UNL     1      -6.591  -0.918 -34.591  1.00  0.00    -0.059 A 
HETATM   26  C   UNL     1      -5.766   0.023 -33.964  1.00  0.00     0.036 A 
HETATM   27  C   UNL     1      -7.910  -0.514 -35.182  1.00  0.00     0.048 C 
ENDBRANCH  17  20
ENDBRANCH  15  16
ENDBRANCH   1  15
TORSDOF 3
ENDMDL
MODEL 6
REMARK VINA RESULT:      -8.2      4.631      6.499
REMARK  3 active torsions:
REMARK  status: ('A' for Active; 'I' for Inactive)
REMARK    1  A    between atoms: C_4  and  N_5 
REMARK       I    between atoms: N_5  and  C_6 
REMARK    2  A    between atoms: C_6  and  C_7 
REMARK    3  A    between atoms: C_7  and  C_8 
ROOT
HETATM    1  C   UNL     1      -6.850   3.217 -32.770  1.00  0.00     0.286 C 
HETATM    2  N   UNL     1      -5.794   3.342 -31.648  1.00  0.00    -0.056 N 
HETATM    3  H   UNL     1      -6.279   3.821 -30.874  1.00  0.00     0.278 HD
HETATM    4  H   UNL     1      -5.559   2.411 -31.277  1.00  0.00     0.278 HD
HETATM    5  C   UNL     1      -4.543   4.144 -31.962  1.00  0.00     0.209 C 
HETATM    6  C   UNL     1      -4.900   5.450 -32.727  1.00  0.00     0.115 C 
HETATM    7  N   UNL     1      -5.960   5.309 -33.724  1.00  0.00    -0.353 N 
HETATM    8  C   UNL     1      -7.089   4.574 -33.446  1.00  0.00     0.249 C 
HETATM    9  O   UNL     1      -8.187   4.982 -33.794  1.00  0.00    -0.271 OA
HETATM   10  C   UNL     1      -3.481   3.242 -32.601  1.00  0.00     0.035 C 
HETATM   11  C   UNL     1      -2.319   4.021 -33.206  1.00  0.00     0.002 C 
HETATM   12  C   UNL     1      -2.813   5.125 -34.130  1.00  0.00     0.002 C 
HETATM   13  C   UNL     1      -3.675   6.117 -33.356  1.00  0.00     0.027 C 
HETATM   14  H   UNL     1      -6.226   6.171 -34.202  1.00  0.00     0.163 HD
ENDROOT
BRANCH   1  15
HETATM   15  C   UNL     1      -6.395   2.193 -33.806  1.00  0.00     0.146 C 
BRANCH  15  16
HETATM   16  C   UNL     1      -6.185   0.838 -33.166  1.00  0.00     0.224 C 
HETATM   17  N   UNL     1      -5.288   0.076 -33.890  1.00  0.00    -0.327 N 
HETATM   18  H   UNL     1      -4.681   0.550 -34.547  1.00  0.00     0.169 HD
HETATM   19  O   UNL     1      -6.762   0.534 -32.135  1.00  0.00    -0.273 OA
BRANCH  17  20
HETATM   20  C   UNL     1      -5.135  -1.323 -33.853  1.00  0.00     0.035 A 
HETATM   21  C   UNL     1      -5.837  -2.200 -34.680  1.00  0.00     0.036 A 
HETATM   22  C   UNL     1      -5.552  -3.576 -34.661  1.00  0.00    -0.059 A 
HETATM   23  C   UNL     1      -6.295  -4.524 -35.555  1.00  0.00     0.048 C 
HETATM   24  C   UNL     1      -4.578  -4.064 -33.781  1.00  0.00     0.013 A 
HETATM   25  C   UNL     1      -3.866  -3.197 -32.947  1.00  0.00    -0.059 A 
HETATM   26  C   UNL     1      -4.158  -1.829 -32.985  1.00  0.00     0.036 A 
HETATM   27  C   UNL     1      -2.833  -3.740 -32.001  1.00  0.00     0.048 C 
ENDBRANCH  17  20
ENDBRANCH  15  16
ENDBRANCH   1  15
TORSDOF 3
ENDMDL
MODEL 7
REMARK VINA RESULT:      -7.8      5.195      8.305
REMARK  3 active torsions:
REMARK  status: ('A' for Active; 'I' for Inactive)
REMARK    1  A    between atoms: C_4  and  N_5 
REMARK       I    between atoms: N_5  and  C_6 
REMARK    2  A    between atoms: C_6  and  C_7 
REMARK    3  A    between atoms: C_7  and  C_8 
ROOT
HETATM    1  C   UNL     1      -4.204   0.247 -31.498  1.00  0.00     0.286 C 
HETATM    2  N   UNL     1      -5.707   0.519 -31.257  1.00  0.00    -0.056 N 
HETATM    3  H   UNL     1      -5.963  -0.076 -30.454  1.00  0.00     0.278 HD
HETATM    4  H   UNL     1      -5.844   1.483 -30.926  1.00  0.00     0.278 HD
HETATM    5  C   UNL     1      -6.660   0.182 -32.391  1.00  0.00     0.209 C 
HETATM    6  C   UNL     1      -6.296  -1.188 -33.032  1.00  0.00     0.115 C 
HETATM    7  N   UNL     1      -4.863  -1.442 -33.168  1.00  0.00    -0.353 N 
HETATM    8  C   UNL     1      -3.996  -1.128 -32.148  1.00  0.00     0.249 C 
HETATM    9  O   UNL     1      -3.090  -1.894 -31.855  1.00  0.00    -0.271 OA
HETATM   10  C   UNL     1      -6.791   1.374 -33.346  1.00  0.00     0.035 C 
HETATM   11  C   UNL     1      -7.494   1.021 -34.652  1.00  0.00     0.002 C 
HETATM   12  C   UNL     1      -6.874  -0.209 -35.300  1.00  0.00     0.002 C 
HETATM   13  C   UNL     1      -6.998  -1.414 -34.373  1.00  0.00     0.027 C 
HETATM   14  H   UNL     1      -4.617  -2.355 -33.552  1.00  0.00     0.163 HD
ENDROOT
BRANCH   1  15
HETATM   15  C   UNL     1      -3.610   1.338 -32.386  1.00  0.00     0.146 C 
BRANCH  15  16
HETATM   16  C   UNL     1      -3.664   2.682 -31.694  1.00  0.00     0.224 C 
HETATM   17  N   UNL     1      -3.006   3.650 -32.429  1.00  0.00    -0.327 N 
HETATM   18  H   UNL     1      -2.827   3.465 -33.408  1.00  0.00     0.169 HD
HETATM   19  O   UNL     1      -4.243   2.819 -30.628  1.00  0.00    -0.273 OA
BRANCH  17  20
HETATM   20  C   UNL     1      -2.507   4.881 -31.963  1.00  0.00     0.035 A 
HETATM   21  C   UNL     1      -1.154   5.128 -31.728  1.00  0.00     0.036 A 
HETATM   22  C   UNL     1      -0.719   6.415 -31.367  1.00  0.00    -0.059 A 
HETATM   23  C   UNL     1       0.734   6.691 -31.122  1.00  0.00     0.048 C 
HETATM   24  C   UNL     1      -1.661   7.441 -31.215  1.00  0.00     0.013 A 
HETATM   25  C   UNL     1      -3.019   7.208 -31.448  1.00  0.00    -0.059 A 
HETATM   26  C   UNL     1      -3.433   5.922 -31.815  1.00  0.00     0.036 A 
HETATM   27  C   UNL     1      -4.015   8.317 -31.269  1.00  0.00     0.048 C 
ENDBRANCH  17  20
ENDBRANCH  15  16
ENDBRANCH   1  15
TORSDOF 3
ENDMDL
MODEL 8
REMARK VINA RESULT:      -7.8      4.816      7.059
REMARK  3 active torsions:
REMARK  status: ('A' for Active; 'I' for Inactive)
REMARK    1  A    between atoms: C_4  and  N_5 
REMARK       I    between atoms: N_5  and  C_6 
REMARK    2  A    between atoms: C_6  and  C_7 
REMARK    3  A    between atoms: C_7  and  C_8 
ROOT
HETATM    1  C   UNL     1      -6.219   3.017 -31.371  1.00  0.00     0.286 C 
HETATM    2  N   UNL     1      -6.171   3.073 -32.915  1.00  0.00    -0.056 N 
HETATM    3  H   UNL     1      -6.643   3.955 -33.168  1.00  0.00     0.278 HD
HETATM    4  H   UNL     1      -5.200   3.192 -33.236  1.00  0.00     0.278 HD
HETATM    5  C   UNL     1      -6.869   1.956 -33.670  1.00  0.00     0.209 C 
HETATM    6  C   UNL     1      -8.251   1.634 -33.030  1.00  0.00     0.115 C 
HETATM    7  N   UNL     1      -8.275   1.671 -31.569  1.00  0.00    -0.353 N 
HETATM    8  C   UNL     1      -7.634   2.675 -30.883  1.00  0.00     0.249 C 
HETATM    9  O   UNL     1      -8.165   3.189 -29.910  1.00  0.00    -0.271 OA
HETATM   10  C   UNL     1      -5.914   0.774 -33.872  1.00  0.00     0.035 C 
HETATM   11  C   UNL     1      -6.617  -0.488 -34.358  1.00  0.00     0.002 C 
HETATM   12  C   UNL     1      -7.821  -0.823 -33.488  1.00  0.00     0.002 C 
HETATM   13  C   UNL     1      -8.837   0.313 -33.532  1.00  0.00     0.027 C 
HETATM   14  H   UNL     1      -9.187   1.498 -31.145  1.00  0.00     0.163 HD
ENDROOT
BRANCH   1  15
HETATM   15  C   UNL     1      -5.225   1.980 -30.854  1.00  0.00     0.146 C 
BRANCH  15  16
HETATM   16  C   UNL     1      -3.802   2.444 -31.074  1.00  0.00     0.224 C 
HETATM   17  N   UNL     1      -3.708   3.821 -31.003  1.00  0.00    -0.327 N 
HETATM   18  H   UNL     1      -4.461   4.328 -30.556  1.00  0.00     0.169 HD
HETATM   19  O   UNL     1      -2.903   1.643 -31.272  1.00  0.00    -0.273 OA
BRANCH  17  20
HETATM   20  C   UNL     1      -2.682   4.632 -31.523  1.00  0.00     0.035 A 
HETATM   21  C   UNL     1      -1.796   5.362 -30.730  1.00  0.00     0.036 A 
HETATM   22  C   UNL     1      -0.730   6.064 -31.317  1.00  0.00    -0.059 A 
HETATM   23  C   UNL     1       0.233   6.842 -30.471  1.00  0.00     0.048 C 
HETATM   24  C   UNL     1      -0.582   6.050 -32.710  1.00  0.00     0.013 A 
HETATM   25  C   UNL     1      -1.461   5.323 -33.517  1.00  0.00    -0.059 A 
HETATM   26  C   UNL     1      -2.512   4.623 -32.914  1.00  0.00     0.036 A 
HETATM   27  C   UNL     1      -1.294   5.328 -35.009  1.00  0.00     0.048 C 
ENDBRANCH  17  20
ENDBRANCH  15  16
ENDBRANCH   1  15
TORSDOF 3
ENDMDL
MODEL 9
REMARK VINA RESULT:      -7.8      2.640      7.635
REMARK  3 active torsions:
REMARK  status: ('A' for Active; 'I' for Inactive)
REMARK    1  A    between atoms: C_4  and  N_5 
REMARK       I    between atoms: N_5  and  C_6 
REMARK    2  A    between atoms: C_6  and  C_7 
REMARK    3  A    between atoms: C_7  and  C_8 
ROOT
HETATM    1  C   UNL     1      -6.517   2.259 -30.614  1.00  0.00     0.286 C 
HETATM    2  N   UNL     1      -6.663   0.755 -30.289  1.00  0.00    -0.056 N 
HETATM    3  H   UNL     1      -6.489   0.680 -29.275  1.00  0.00     0.278 HD
HETATM    4  H   UNL     1      -7.640   0.458 -30.412  1.00  0.00     0.278 HD
HETATM    5  C   UNL     1      -5.705  -0.198 -30.982  1.00  0.00     0.209 C 
HETATM    6  C   UNL     1      -4.258   0.375 -30.985  1.00  0.00     0.115 C 
HETATM    7  N   UNL     1      -4.168   1.815 -31.215  1.00  0.00    -0.353 N 
HETATM    8  C   UNL     1      -5.041   2.679 -30.597  1.00  0.00     0.249 C 
HETATM    9  O   UNL     1      -4.636   3.737 -30.137  1.00  0.00    -0.271 OA
HETATM   10  C   UNL     1      -6.274  -0.630 -32.338  1.00  0.00     0.035 C 
HETATM   11  C   UNL     1      -5.255  -1.348 -33.215  1.00  0.00     0.002 C 
HETATM   12  C   UNL     1      -3.961  -0.552 -33.327  1.00  0.00     0.002 C 
HETATM   13  C   UNL     1      -3.333  -0.370 -31.949  1.00  0.00     0.027 C 
HETATM   14  H   UNL     1      -3.225   2.203 -31.179  1.00  0.00     0.163 HD
ENDROOT
BRANCH   1  15
HETATM   15  C   UNL     1      -7.129   2.561 -31.980  1.00  0.00     0.146 C 
BRANCH  15  16
HETATM   16  C   UNL     1      -8.606   2.236 -31.991  1.00  0.00     0.224 C 
HETATM   17  N   UNL     1      -8.998   1.730 -33.216  1.00  0.00    -0.327 N 
HETATM   18  H   UNL     1      -8.282   1.372 -33.835  1.00  0.00     0.169 HD
HETATM   19  O   UNL     1      -9.297   2.415 -31.001  1.00  0.00    -0.273 OA
BRANCH  17  20
HETATM   20  C   UNL     1     -10.304   1.682 -33.739  1.00  0.00     0.035 A 
HETATM   21  C   UNL     1     -11.212   0.658 -33.461  1.00  0.00     0.036 A 
HETATM   22  C   UNL     1     -12.533   0.734 -33.932  1.00  0.00    -0.059 A 
HETATM   23  C   UNL     1     -13.518  -0.357 -33.630  1.00  0.00     0.048 C 
HETATM   24  C   UNL     1     -12.925   1.831 -34.709  1.00  0.00     0.013 A 
HETATM   25  C   UNL     1     -12.027   2.865 -34.995  1.00  0.00    -0.059 A 
HETATM   26  C   UNL     1     -10.717   2.776 -34.510  1.00  0.00     0.036 A 
HETATM   27  C   UNL     1     -12.461   4.028 -35.839  1.00  0.00     0.048 C 
ENDBRANCH  17  20
ENDBRANCH  15  16
ENDBRANCH   1  15
TORSDOF 3
ENDMDL
MODEL 10
REMARK VINA RESULT:      -7.8      1.701      2.357
REMARK  3 active torsions:
REMARK  status: ('A' for Active; 'I' for Inactive)
REMARK    1  A    between atoms: C_4  and  N_5 
REMARK       I    between atoms: N_5  and  C_6 
REMARK    2  A    between atoms: C_6  and  C_7 
REMARK    3  A    between atoms: C_7  and  C_8 
ROOT
HETATM    1  C   UNL     1      -9.071   3.411 -32.689  1.00  0.00     0.286 C 
HETATM    2  N   UNL     1     -10.216   4.416 -32.955  1.00  0.00    -0.056 N 
HETATM    3  H   UNL     1     -10.522   4.729 -32.022  1.00  0.00     0.278 HD
HETATM    4  H   UNL     1      -9.847   5.262 -33.410  1.00  0.00     0.278 HD
HETATM    5  C   UNL     1     -11.442   3.889 -33.680  1.00  0.00     0.209 C 
HETATM    6  C   UNL     1     -11.856   2.495 -33.127  1.00  0.00     0.115 C 
HETATM    7  N   UNL     1     -10.742   1.604 -32.811  1.00  0.00    -0.353 N 
HETATM    8  C   UNL     1      -9.626   2.080 -32.165  1.00  0.00     0.249 C 
HETATM    9  O   UNL     1      -9.100   1.420 -31.281  1.00  0.00    -0.271 OA
HETATM   10  C   UNL     1     -11.250   3.997 -35.197  1.00  0.00     0.035 C 
HETATM   11  C   UNL     1     -12.302   3.230 -35.990  1.00  0.00     0.002 C 
HETATM   12  C   UNL     1     -12.433   1.796 -35.496  1.00  0.00     0.002 C 
HETATM   13  C   UNL     1     -12.861   1.779 -34.032  1.00  0.00     0.027 C 
HETATM   14  H   UNL     1     -11.006   0.702 -32.412  1.00  0.00     0.163 HD
ENDROOT
BRANCH   1  15
HETATM   15  C   UNL     1      -8.274   3.175 -33.970  1.00  0.00     0.146 C 
BRANCH  15  16
HETATM   16  C   UNL     1      -7.014   2.389 -33.681  1.00  0.00     0.224 C 
HETATM   17  N   UNL     1      -6.960   1.235 -34.439  1.00  0.00    -0.327 N 
HETATM   18  H   UNL     1      -7.553   1.173 -35.256  1.00  0.00     0.169 HD
HETATM   19  O   UNL     1      -6.190   2.794 -32.876  1.00  0.00    -0.273 OA
BRANCH  17  20
HETATM   20  C   UNL     1      -6.185   0.086 -34.187  1.00  0.00     0.035 A 
HETATM   21  C   UNL     1      -5.041   0.085 -33.388  1.00  0.00     0.036 A 
HETATM   22  C   UNL     1      -4.381  -1.120 -33.094  1.00  0.00    -0.059 A 
HETATM   23  C   UNL     1      -3.157  -1.132 -32.228  1.00  0.00     0.048 C 
HETATM   24  C   UNL     1      -4.865  -2.318 -33.636  1.00  0.00     0.013 A 
HETATM   25  C   UNL     1      -6.010  -2.332 -34.437  1.00  0.00    -0.059 A 
HETATM   26  C   UNL     1      -6.659  -1.123 -34.712  1.00  0.00     0.036 A 
HETATM   27  C   UNL     1      -6.508  -3.624 -35.018  1.00  0.00     0.048 C 
ENDBRANCH  17  20
ENDBRANCH  15  16
ENDBRANCH   1  15
TORSDOF 3
ENDMDL
