MODEL 1
REMARK VINA RESULT:      -8.7      0.000      0.000
REMARK  10 active torsions:
REMARK  status: ('A' for Active; 'I' for Inactive)
REMARK    1  A    between atoms: O_2  and  C_3 
REMARK    2  A    between atoms: C_3  and  C_4 
REMARK    3  A    between atoms: C_8  and  N_9 
REMARK       I    between atoms: N_9  and  C_10 
REMARK    4  A    between atoms: C_10  and  C_11 
REMARK    5  A    between atoms: C_12  and  C_13 
REMARK    6  A    between atoms: C_22  and  C_23 
REMARK    7  A    between atoms: C_23  and  N_24 
REMARK    8  A    between atoms: C_26  and  C_27 
REMARK    9  A    between atoms: C_27  and  C_28 
REMARK   10  A    between atoms: C_28  and  O_29 
ROOT
HETATM    1  C   UNL     1      -6.975   3.641 -30.749  1.00  0.00     0.110 C 
HETATM    2  S   UNL     1      -6.673   5.116 -29.934  1.00  0.00    -0.061 SA
HETATM    3  C   UNL     1      -5.091   5.213 -30.537  1.00  0.00     0.111 A 
HETATM    4  C   UNL     1      -4.754   4.129 -31.342  1.00  0.00     0.028 A 
HETATM    5  C   UNL     1      -5.898   3.262 -31.548  1.00  0.00     0.071 C 
HETATM    6  N   UNL     1      -4.298   6.256 -30.192  1.00  0.00    -0.243 NA
HETATM    7  C   UNL     1      -3.033   6.182 -30.674  1.00  0.00     0.061 A 
HETATM    8  C   UNL     1      -2.547   5.131 -31.435  1.00  0.00     0.030 A 
HETATM    9  C   UNL     1      -3.405   4.086 -31.759  1.00  0.00     0.019 A 
ENDROOT
BRANCH   5  10
HETATM   10  N   UNL     1      -5.997   2.135 -32.381  1.00  0.00    -0.321 N 
HETATM   11  C   UNL     1      -6.260   2.156 -33.733  1.00  0.00     0.245 C 
HETATM   12  O   UNL     1      -6.509   3.148 -34.408  1.00  0.00    -0.268 OA
HETATM   13  H   UNL     1      -6.092   1.240 -31.900  1.00  0.00     0.169 HD
BRANCH  11  14
HETATM   14  C   UNL     1      -6.276   0.792 -34.336  1.00  0.00     0.075 C 
HETATM   15  C   UNL     1      -5.746  -0.227 -33.641  1.00  0.00     0.017 C 
BRANCH  15  16
HETATM   16  C   UNL     1      -5.674  -1.639 -34.058  1.00  0.00    -0.036 A 
HETATM   17  C   UNL     1      -6.772  -2.361 -34.550  1.00  0.00     0.014 A 
HETATM   18  C   UNL     1      -6.636  -3.706 -34.908  1.00  0.00     0.043 A 
HETATM   19  C   UNL     1      -5.405  -4.336 -34.770  1.00  0.00     0.116 A 
HETATM   20  F   UNL     1      -5.280  -5.625 -35.111  1.00  0.00    -0.206 F 
HETATM   21  C   UNL     1      -4.306  -3.646 -34.280  1.00  0.00     0.043 A 
HETATM   22  C   UNL     1      -4.441  -2.302 -33.924  1.00  0.00     0.014 A 
ENDBRANCH  15  16
ENDBRANCH  11  14
ENDBRANCH   5  10
BRANCH   1  23
HETATM   23  C   UNL     1      -8.244   2.938 -30.624  1.00  0.00     0.302 C 
HETATM   24  O   UNL     1      -9.307   3.500 -30.379  1.00  0.00    -0.259 OA
BRANCH  23  25
HETATM   25  O   UNL     1      -8.114   1.597 -30.829  1.00  0.00    -0.322 OA
HETATM   26  C   UNL     1      -9.139   1.023 -31.644  1.00  0.00     0.213 C 
ENDBRANCH  23  25
ENDBRANCH   1  23
BRANCH   7  27
HETATM   27  C   UNL     1      -2.133   7.367 -30.404  1.00  0.00     0.294 C 
BRANCH  27  28
HETATM   28  N   UNL     1      -1.520   7.400 -29.007  1.00  0.00    -0.061 N 
HETATM   29  H   UNL     1      -2.332   7.169 -28.410  1.00  0.00     0.280 HD
HETATM   30  C   UNL     1      -0.499   6.294 -28.711  1.00  0.00     0.190 C 
HETATM   31  C   UNL     1      -0.104   6.411 -27.232  1.00  0.00     0.033 C 
HETATM   32  C   UNL     1       0.415   7.798 -26.867  1.00  0.00     0.004 C 
HETATM   33  C   UNL     1      -0.620   8.861 -27.206  1.00  0.00     0.028 C 
HETATM   34  C   UNL     1      -1.057   8.791 -28.658  1.00  0.00     0.235 C 
BRANCH  30  35
HETATM   35  C   UNL     1       0.676   6.336 -29.696  1.00  0.00     0.059 C 
BRANCH  35  36
HETATM   36  C   UNL     1       0.895   5.021 -30.436  1.00  0.00     0.166 C 
BRANCH  36  37
HETATM   37  O   UNL     1       0.956   3.990 -29.464  1.00  0.00    -0.401 OA
HETATM   38  H   UNL     1       0.413   3.245 -29.782  1.00  0.00     0.209 HD
ENDBRANCH  36  37
ENDBRANCH  35  36
ENDBRANCH  30  35
ENDBRANCH  27  28
ENDBRANCH   7  27
TORSDOF 10
ENDMDL
MODEL 2
REMARK VINA RESULT:      -8.7      3.966      6.263
REMARK  10 active torsions:
REMARK  status: ('A' for Active; 'I' for Inactive)
REMARK    1  A    between atoms: O_2  and  C_3 
REMARK    2  A    between atoms: C_3  and  C_4 
REMARK    3  A    between atoms: C_8  and  N_9 
REMARK       I    between atoms: N_9  and  C_10 
REMARK    4  A    between atoms: C_10  and  C_11 
REMARK    5  A    between atoms: C_12  and  C_13 
REMARK    6  A    between atoms: C_22  and  C_23 
REMARK    7  A    between atoms: C_23  and  N_24 
REMARK    8  A    between atoms: C_26  and  C_27 
REMARK    9  A    between atoms: C_27  and  C_28 
REMARK   10  A    between atoms: C_28  and  O_29 
ROOT
HETATM    1  C   UNL     1      -5.710  -0.890 -33.416  1.00  0.00     0.110 C 
HETATM    2  S   UNL     1      -4.032  -0.717 -33.123  1.00  0.00    -0.061 SA
HETATM    3  C   UNL     1      -4.214   0.879 -32.581  1.00  0.00     0.111 A 
HETATM    4  C   UNL     1      -5.533   1.319 -32.632  1.00  0.00     0.028 A 
HETATM    5  C   UNL     1      -6.422   0.243 -33.025  1.00  0.00     0.071 C 
HETATM    6  N   UNL     1      -3.128   1.589 -32.189  1.00  0.00    -0.243 NA
HETATM    7  C   UNL     1      -3.391   2.875 -31.852  1.00  0.00     0.061 A 
HETATM    8  C   UNL     1      -4.646   3.460 -31.915  1.00  0.00     0.030 A 
HETATM    9  C   UNL     1      -5.725   2.685 -32.326  1.00  0.00     0.019 A 
ENDROOT
BRANCH   5  10
HETATM   10  N   UNL     1      -7.825   0.250 -33.084  1.00  0.00    -0.321 N 
HETATM   11  C   UNL     1      -8.589   0.959 -33.986  1.00  0.00     0.245 C 
HETATM   12  O   UNL     1      -8.172   1.740 -34.833  1.00  0.00    -0.268 OA
HETATM   13  H   UNL     1      -8.302  -0.129 -32.265  1.00  0.00     0.169 HD
BRANCH  11  14
HETATM   14  C   UNL     1     -10.051   0.735 -33.802  1.00  0.00     0.075 C 
HETATM   15  C   UNL     1     -10.859   1.802 -33.689  1.00  0.00     0.017 C 
BRANCH  15  16
HETATM   16  C   UNL     1     -12.323   1.787 -33.512  1.00  0.00    -0.036 A 
HETATM   17  C   UNL     1     -13.043   2.830 -32.911  1.00  0.00     0.014 A 
HETATM   18  C   UNL     1     -14.431   2.741 -32.757  1.00  0.00     0.043 A 
HETATM   19  C   UNL     1     -15.101   1.606 -33.196  1.00  0.00     0.116 A 
HETATM   20  F   UNL     1     -16.428   1.522 -33.043  1.00  0.00    -0.206 F 
HETATM   21  C   UNL     1     -14.411   0.558 -33.787  1.00  0.00     0.043 A 
HETATM   22  C   UNL     1     -13.026   0.648 -33.943  1.00  0.00     0.014 A 
ENDBRANCH  15  16
ENDBRANCH  11  14
ENDBRANCH   5  10
BRANCH   1  23
HETATM   23  C   UNL     1      -6.274  -2.115 -33.963  1.00  0.00     0.302 C 
HETATM   24  O   UNL     1      -7.476  -2.285 -34.144  1.00  0.00    -0.259 OA
BRANCH  23  25
HETATM   25  O   UNL     1      -5.315  -3.035 -34.266  1.00  0.00    -0.322 OA
HETATM   26  C   UNL     1      -5.801  -4.186 -34.960  1.00  0.00     0.213 C 
ENDBRANCH  23  25
ENDBRANCH   1  23
BRANCH   7  27
HETATM   27  C   UNL     1      -2.233   3.686 -31.312  1.00  0.00     0.294 C 
BRANCH  27  28
HETATM   28  N   UNL     1      -2.060   5.059 -31.954  1.00  0.00    -0.061 N 
HETATM   29  H   UNL     1      -3.011   5.456 -31.876  1.00  0.00     0.280 HD
HETATM   30  C   UNL     1      -1.170   6.039 -31.178  1.00  0.00     0.190 C 
HETATM   31  C   UNL     1      -1.229   7.392 -31.903  1.00  0.00     0.033 C 
HETATM   32  C   UNL     1      -0.841   7.291 -33.374  1.00  0.00     0.004 C 
HETATM   33  C   UNL     1      -1.731   6.287 -34.092  1.00  0.00     0.028 C 
HETATM   34  C   UNL     1      -1.721   4.927 -33.416  1.00  0.00     0.235 C 
BRANCH  30  35
HETATM   35  C   UNL     1       0.243   5.477 -30.977  1.00  0.00     0.059 C 
BRANCH  35  36
HETATM   36  C   UNL     1       0.590   5.215 -29.515  1.00  0.00     0.166 C 
BRANCH  36  37
HETATM   37  O   UNL     1       1.008   3.864 -29.413  1.00  0.00    -0.401 OA
HETATM   38  H   UNL     1       0.220   3.297 -29.512  1.00  0.00     0.209 HD
ENDBRANCH  36  37
ENDBRANCH  35  36
ENDBRANCH  30  35
ENDBRANCH  27  28
ENDBRANCH   7  27
TORSDOF 10
ENDMDL
MODEL 3
REMARK VINA RESULT:      -8.7      4.416     10.755
REMARK  10 active torsions:
REMARK  status: ('A' for Active; 'I' for Inactive)
REMARK    1  A    between atoms: O_2  and  C_3 
REMARK    2  A    between atoms: C_3  and  C_4 
REMARK    3  A    between atoms: C_8  and  N_9 
REMARK       I    between atoms: N_9  and  C_10 
REMARK    4  A    between atoms: C_10  and  C_11 
REMARK    5  A    between atoms: C_12  and  C_13 
REMARK    6  A    between atoms: C_22  and  C_23 
REMARK    7  A    between atoms: C_23  and  N_24 
REMARK    8  A    between atoms: C_26  and  C_27 
REMARK    9  A    between atoms: C_27  and  C_28 
REMARK   10  A    between atoms: C_28  and  O_29 
ROOT
HETATM    1  C   UNL     1      -2.987   6.377 -32.347  1.00  0.00     0.110 C 
HETATM    2  S   UNL     1      -4.170   5.729 -33.402  1.00  0.00    -0.061 SA
HETATM    3  C   UNL     1      -4.043   4.183 -32.717  1.00  0.00     0.111 A 
HETATM    4  C   UNL     1      -3.094   4.120 -31.701  1.00  0.00     0.028 A 
HETATM    5  C   UNL     1      -2.552   5.435 -31.417  1.00  0.00     0.071 C 
HETATM    6  N   UNL     1      -4.800   3.166 -33.195  1.00  0.00    -0.243 NA
HETATM    7  C   UNL     1      -4.553   1.964 -32.619  1.00  0.00     0.061 A 
HETATM    8  C   UNL     1      -3.596   1.747 -31.641  1.00  0.00     0.030 A 
HETATM    9  C   UNL     1      -2.845   2.827 -31.189  1.00  0.00     0.019 A 
ENDROOT
BRANCH   5  10
HETATM   10  N   UNL     1      -1.663   5.808 -30.396  1.00  0.00    -0.321 N 
HETATM   11  C   UNL     1      -0.325   5.481 -30.335  1.00  0.00     0.245 C 
HETATM   12  O   UNL     1       0.283   4.766 -31.122  1.00  0.00    -0.268 OA
HETATM   13  H   UNL     1      -2.096   6.162 -29.543  1.00  0.00     0.169 HD
BRANCH  11  14
HETATM   14  C   UNL     1       0.351   6.052 -29.135  1.00  0.00     0.075 C 
HETATM   15  C   UNL     1       0.177   7.354 -28.853  1.00  0.00     0.017 C 
BRANCH  15  16
HETATM   16  C   UNL     1       0.750   8.096 -27.716  1.00  0.00    -0.036 A 
HETATM   17  C   UNL     1       1.568   7.511 -26.739  1.00  0.00     0.014 A 
HETATM   18  C   UNL     1       2.060   8.273 -25.673  1.00  0.00     0.043 A 
HETATM   19  C   UNL     1       1.731   9.619 -25.579  1.00  0.00     0.116 A 
HETATM   20  F   UNL     1       2.201  10.344 -24.555  1.00  0.00    -0.206 F 
HETATM   21  C   UNL     1       0.918  10.220 -26.528  1.00  0.00     0.043 A 
HETATM   22  C   UNL     1       0.428   9.460 -27.593  1.00  0.00     0.014 A 
ENDBRANCH  15  16
ENDBRANCH  11  14
ENDBRANCH   5  10
BRANCH   1  23
HETATM   23  C   UNL     1      -2.563   7.768 -32.427  1.00  0.00     0.302 C 
HETATM   24  O   UNL     1      -1.690   8.166 -33.191  1.00  0.00    -0.259 OA
BRANCH  23  25
HETATM   25  O   UNL     1      -3.259   8.569 -31.573  1.00  0.00    -0.322 OA
HETATM   26  C   UNL     1      -2.440   9.387 -30.732  1.00  0.00     0.213 C 
ENDBRANCH  23  25
ENDBRANCH   1  23
BRANCH   7  27
HETATM   27  C   UNL     1      -5.439   0.813 -33.044  1.00  0.00     0.294 C 
BRANCH  27  28
HETATM   28  N   UNL     1      -6.923   1.152 -33.148  1.00  0.00    -0.061 N 
HETATM   29  H   UNL     1      -6.899   2.100 -33.558  1.00  0.00     0.280 HD
HETATM   30  C   UNL     1      -7.718   0.316 -34.158  1.00  0.00     0.190 C 
HETATM   31  C   UNL     1      -9.141   0.891 -34.217  1.00  0.00     0.033 C 
HETATM   32  C   UNL     1      -9.813   0.947 -32.850  1.00  0.00     0.004 C 
HETATM   33  C   UNL     1      -8.972   1.761 -31.877  1.00  0.00     0.028 C 
HETATM   34  C   UNL     1      -7.548   1.244 -31.780  1.00  0.00     0.235 C 
BRANCH  30  35
HETATM   35  C   UNL     1      -7.642  -1.181 -33.833  1.00  0.00     0.059 C 
BRANCH  35  36
HETATM   36  C   UNL     1      -6.710  -1.957 -34.758  1.00  0.00     0.166 C 
BRANCH  36  37
HETATM   37  O   UNL     1      -7.028  -3.332 -34.627  1.00  0.00    -0.401 OA
HETATM   38  H   UNL     1      -6.639  -3.652 -33.791  1.00  0.00     0.209 HD
ENDBRANCH  36  37
ENDBRANCH  35  36
ENDBRANCH  30  35
ENDBRANCH  27  28
ENDBRANCH   7  27
TORSDOF 10
ENDMDL
MODEL 4
REMARK VINA RESULT:      -8.6      4.164     10.679
REMARK  10 active torsions:
REMARK  status: ('A' for Active; 'I' for Inactive)
REMARK    1  A    between atoms: O_2  and  C_3 
REMARK    2  A    between atoms: C_3  and  C_4 
REMARK    3  A    between atoms: C_8  and  N_9 
REMARK       I    between atoms: N_9  and  C_10 
REMARK    4  A    between atoms: C_10  and  C_11 
REMARK    5  A    between atoms: C_12  and  C_13 
REMARK    6  A    between atoms: C_22  and  C_23 
REMARK    7  A    between atoms: C_23  and  N_24 
REMARK    8  A    between atoms: C_26  and  C_27 
REMARK    9  A    between atoms: C_27  and  C_28 
REMARK   10  A    between atoms: C_28  and  O_29 
ROOT
HETATM    1  C   UNL     1      -3.261   5.953 -32.836  1.00  0.00     0.110 C 
HETATM    2  S   UNL     1      -4.545   5.302 -33.764  1.00  0.00    -0.061 SA
HETATM    3  C   UNL     1      -4.823   4.058 -32.646  1.00  0.00     0.111 A 
HETATM    4  C   UNL     1      -3.943   4.095 -31.569  1.00  0.00     0.028 A 
HETATM    5  C   UNL     1      -3.096   5.271 -31.632  1.00  0.00     0.071 C 
HETATM    6  N   UNL     1      -5.799   3.147 -32.877  1.00  0.00    -0.243 NA
HETATM    7  C   UNL     1      -5.873   2.159 -31.951  1.00  0.00     0.061 A 
HETATM    8  C   UNL     1      -5.022   2.039 -30.864  1.00  0.00     0.030 A 
HETATM    9  C   UNL     1      -4.036   3.002 -30.678  1.00  0.00     0.019 A 
ENDROOT
BRANCH   5  10
HETATM   10  N   UNL     1      -2.165   5.725 -30.684  1.00  0.00    -0.321 N 
HETATM   11  C   UNL     1      -0.825   5.403 -30.655  1.00  0.00     0.245 C 
HETATM   12  O   UNL     1      -0.249   4.626 -31.406  1.00  0.00    -0.268 OA
HETATM   13  H   UNL     1      -2.562   6.148 -29.845  1.00  0.00     0.169 HD
BRANCH  11  14
HETATM   14  C   UNL     1      -0.099   6.069 -29.535  1.00  0.00     0.075 C 
HETATM   15  C   UNL     1      -0.391   7.349 -29.247  1.00  0.00     0.017 C 
BRANCH  15  16
HETATM   16  C   UNL     1       0.206   8.173 -28.181  1.00  0.00    -0.036 A 
HETATM   17  C   UNL     1       1.419   7.865 -27.548  1.00  0.00     0.014 A 
HETATM   18  C   UNL     1       1.917   8.682 -26.527  1.00  0.00     0.043 A 
HETATM   19  C   UNL     1       1.201   9.805 -26.132  1.00  0.00     0.116 A 
HETATM   20  F   UNL     1       1.679  10.583 -25.152  1.00  0.00    -0.206 F 
HETATM   21  C   UNL     1      -0.004  10.128 -26.738  1.00  0.00     0.043 A 
HETATM   22  C   UNL     1      -0.500   9.313 -27.758  1.00  0.00     0.014 A 
ENDBRANCH  15  16
ENDBRANCH  11  14
ENDBRANCH   5  10
BRANCH   1  23
HETATM   23  C   UNL     1      -2.502   7.114 -33.279  1.00  0.00     0.302 C 
HETATM   24  O   UNL     1      -2.359   8.127 -32.602  1.00  0.00    -0.259 OA
BRANCH  23  25
HETATM   25  O   UNL     1      -1.959   6.935 -34.516  1.00  0.00    -0.322 OA
HETATM   26  C   UNL     1      -1.098   5.798 -34.622  1.00  0.00     0.213 C 
ENDBRANCH  23  25
ENDBRANCH   1  23
BRANCH   7  27
HETATM   27  C   UNL     1      -7.008   1.170 -32.103  1.00  0.00     0.294 C 
BRANCH  27  28
HETATM   28  N   UNL     1      -6.621  -0.152 -32.760  1.00  0.00    -0.061 N 
HETATM   29  H   UNL     1      -6.594  -0.795 -31.952  1.00  0.00     0.280 HD
HETATM   30  C   UNL     1      -7.677  -0.755 -33.694  1.00  0.00     0.190 C 
HETATM   31  C   UNL     1      -7.167  -2.132 -34.144  1.00  0.00     0.033 C 
HETATM   32  C   UNL     1      -5.786  -2.068 -34.788  1.00  0.00     0.004 C 
HETATM   33  C   UNL     1      -4.782  -1.437 -33.835  1.00  0.00     0.028 C 
HETATM   34  C   UNL     1      -5.235  -0.072 -33.348  1.00  0.00     0.235 C 
BRANCH  30  35
HETATM   35  C   UNL     1      -8.030   0.205 -34.838  1.00  0.00     0.059 C 
BRANCH  35  36
HETATM   36  C   UNL     1      -9.303   1.007 -34.586  1.00  0.00     0.166 C 
BRANCH  36  37
HETATM   37  O   UNL     1      -9.975   0.407 -33.491  1.00  0.00    -0.401 OA
HETATM   38  H   UNL     1      -9.434  -0.344 -33.182  1.00  0.00     0.209 HD
ENDBRANCH  36  37
ENDBRANCH  35  36
ENDBRANCH  30  35
ENDBRANCH  27  28
ENDBRANCH   7  27
TORSDOF 10
ENDMDL
MODEL 5
REMARK VINA RESULT:      -8.5      3.376      4.973
REMARK  10 active torsions:
REMARK  status: ('A' for Active; 'I' for Inactive)
REMARK    1  A    between atoms: O_2  and  C_3 
REMARK    2  A    between atoms: C_3  and  C_4 
REMARK    3  A    between atoms: C_8  and  N_9 
REMARK       I    between atoms: N_9  and  C_10 
REMARK    4  A    between atoms: C_10  and  C_11 
REMARK    5  A    between atoms: C_12  and  C_13 
REMARK    6  A    between atoms: C_22  and  C_23 
REMARK    7  A    between atoms: C_23  and  N_24 
REMARK    8  A    between atoms: C_26  and  C_27 
REMARK    9  A    between atoms: C_27  and  C_28 
REMARK   10  A    between atoms: C_28  and  O_29 
ROOT
HETATM    1  C   UNL     1      -5.287   1.044 -32.009  1.00  0.00     0.110 C 
HETATM    2  S   UNL     1      -3.771   1.555 -31.399  1.00  0.00    -0.061 SA
HETATM    3  C   UNL     1      -3.880   3.058 -32.176  1.00  0.00     0.111 A 
HETATM    4  C   UNL     1      -5.045   3.193 -32.926  1.00  0.00     0.028 A 
HETATM    5  C   UNL     1      -5.916   2.049 -32.741  1.00  0.00     0.071 C 
HETATM    6  N   UNL     1      -2.876   3.959 -32.052  1.00  0.00    -0.243 NA
HETATM    7  C   UNL     1      -3.044   5.090 -32.781  1.00  0.00     0.061 A 
HETATM    8  C   UNL     1      -4.123   5.329 -33.617  1.00  0.00     0.030 A 
HETATM    9  C   UNL     1      -5.124   4.368 -33.708  1.00  0.00     0.019 A 
ENDROOT
BRANCH   5  10
HETATM   10  N   UNL     1      -7.218   1.858 -33.231  1.00  0.00    -0.321 N 
HETATM   11  C   UNL     1      -7.550   1.218 -34.405  1.00  0.00     0.245 C 
HETATM   12  O   UNL     1      -6.767   0.774 -35.235  1.00  0.00    -0.268 OA
HETATM   13  H   UNL     1      -7.943   2.422 -32.785  1.00  0.00     0.169 HD
BRANCH  11  14
HETATM   14  C   UNL     1      -9.023   1.157 -34.629  1.00  0.00     0.075 C 
HETATM   15  C   UNL     1      -9.839   1.151 -33.562  1.00  0.00     0.017 C 
BRANCH  15  16
HETATM   16  C   UNL     1     -11.312   1.104 -33.576  1.00  0.00    -0.036 A 
HETATM   17  C   UNL     1     -12.051  -0.087 -33.530  1.00  0.00     0.014 A 
HETATM   18  C   UNL     1     -13.450  -0.059 -33.567  1.00  0.00     0.043 A 
HETATM   19  C   UNL     1     -14.112   1.159 -33.657  1.00  0.00     0.116 A 
HETATM   20  F   UNL     1     -15.451   1.182 -33.697  1.00  0.00    -0.206 F 
HETATM   21  C   UNL     1     -13.404   2.350 -33.712  1.00  0.00     0.043 A 
HETATM   22  C   UNL     1     -12.008   2.321 -33.672  1.00  0.00     0.014 A 
ENDBRANCH  15  16
ENDBRANCH  11  14
ENDBRANCH   5  10
BRANCH   1  23
HETATM   23  C   UNL     1      -5.826  -0.278 -31.722  1.00  0.00     0.302 C 
HETATM   24  O   UNL     1      -6.939  -0.465 -31.240  1.00  0.00    -0.259 OA
BRANCH  23  25
HETATM   25  O   UNL     1      -4.963  -1.274 -32.068  1.00  0.00    -0.322 OA
HETATM   26  C   UNL     1      -4.949  -1.586 -33.463  1.00  0.00     0.213 C 
ENDBRANCH  23  25
ENDBRANCH   1  23
BRANCH   7  27
HETATM   27  C   UNL     1      -2.002   6.173 -32.604  1.00  0.00     0.294 C 
BRANCH  27  28
HETATM   28  N   UNL     1      -2.249   7.111 -31.427  1.00  0.00    -0.061 N 
HETATM   29  H   UNL     1      -3.262   6.992 -31.265  1.00  0.00     0.280 HD
HETATM   30  C   UNL     1      -1.596   6.692 -30.104  1.00  0.00     0.190 C 
HETATM   31  C   UNL     1      -2.067   7.676 -29.023  1.00  0.00     0.033 C 
HETATM   32  C   UNL     1      -1.779   9.130 -29.381  1.00  0.00     0.004 C 
HETATM   33  C   UNL     1      -2.421   9.488 -30.712  1.00  0.00     0.028 C 
HETATM   34  C   UNL     1      -1.999   8.544 -31.824  1.00  0.00     0.235 C 
BRANCH  30  35
HETATM   35  C   UNL     1      -0.073   6.569 -30.243  1.00  0.00     0.059 C 
BRANCH  35  36
HETATM   36  C   UNL     1       0.475   5.231 -29.758  1.00  0.00     0.166 C 
BRANCH  36  37
HETATM   37  O   UNL     1      -0.400   4.218 -30.226  1.00  0.00    -0.401 OA
HETATM   38  H   UNL     1       0.097   3.380 -30.253  1.00  0.00     0.209 HD
ENDBRANCH  36  37
ENDBRANCH  35  36
ENDBRANCH  30  35
ENDBRANCH  27  28
ENDBRANCH   7  27
TORSDOF 10
ENDMDL
MODEL 6
REMARK VINA RESULT:      -8.5      2.163      2.642
REMARK  10 active torsions:
REMARK  status: ('A' for Active; 'I' for Inactive)
REMARK    1  A    between atoms: O_2  and  C_3 
REMARK    2  A    between atoms: C_3  and  C_4 
REMARK    3  A    between atoms: C_8  and  N_9 
REMARK       I    between atoms: N_9  and  C_10 
REMARK    4  A    between atoms: C_10  and  C_11 
REMARK    5  A    between atoms: C_12  and  C_13 
REMARK    6  A    between atoms: C_22  and  C_23 
REMARK    7  A    between atoms: C_23  and  N_24 
REMARK    8  A    between atoms: C_26  and  C_27 
REMARK    9  A    between atoms: C_27  and  C_28 
REMARK   10  A    between atoms: C_28  and  O_29 
ROOT
HETATM    1  C   UNL     1      -8.400   4.473 -33.265  1.00  0.00     0.110 C 
HETATM    2  S   UNL     1      -8.117   6.150 -33.065  1.00  0.00    -0.061 SA
HETATM    3  C   UNL     1      -6.544   5.892 -32.485  1.00  0.00     0.111 A 
HETATM    4  C   UNL     1      -6.212   4.543 -32.409  1.00  0.00     0.028 A 
HETATM    5  C   UNL     1      -7.267   3.718 -32.966  1.00  0.00     0.071 C 
HETATM    6  N   UNL     1      -5.774   6.947 -32.124  1.00  0.00    -0.243 NA
HETATM    7  C   UNL     1      -4.569   6.609 -31.604  1.00  0.00     0.061 A 
HETATM    8  C   UNL     1      -4.135   5.307 -31.415  1.00  0.00     0.030 A 
HETATM    9  C   UNL     1      -4.968   4.262 -31.802  1.00  0.00     0.019 A 
ENDROOT
BRANCH   5  10
HETATM   10  N   UNL     1      -7.267   2.329 -33.176  1.00  0.00    -0.321 N 
HETATM   11  C   UNL     1      -7.456   1.369 -32.206  1.00  0.00     0.245 C 
HETATM   12  O   UNL     1      -7.590   1.569 -31.005  1.00  0.00    -0.268 OA
HETATM   13  H   UNL     1      -6.889   2.020 -34.072  1.00  0.00     0.169 HD
BRANCH  11  14
HETATM   14  C   UNL     1      -7.426  -0.017 -32.756  1.00  0.00     0.075 C 
HETATM   15  C   UNL     1      -6.278  -0.480 -33.276  1.00  0.00     0.017 C 
BRANCH  15  16
HETATM   16  C   UNL     1      -6.045  -1.815 -33.856  1.00  0.00    -0.036 A 
HETATM   17  C   UNL     1      -7.066  -2.626 -34.372  1.00  0.00     0.014 A 
HETATM   18  C   UNL     1      -6.775  -3.894 -34.889  1.00  0.00     0.043 A 
HETATM   19  C   UNL     1      -5.465  -4.355 -34.887  1.00  0.00     0.116 A 
HETATM   20  F   UNL     1      -5.192  -5.570 -35.379  1.00  0.00    -0.206 F 
HETATM   21  C   UNL     1      -4.439  -3.575 -34.376  1.00  0.00     0.043 A 
HETATM   22  C   UNL     1      -4.729  -2.309 -33.861  1.00  0.00     0.014 A 
ENDBRANCH  15  16
ENDBRANCH  11  14
ENDBRANCH   5  10
BRANCH   1  23
HETATM   23  C   UNL     1      -9.676   3.959 -33.742  1.00  0.00     0.302 C 
HETATM   24  O   UNL     1     -10.106   4.160 -34.874  1.00  0.00    -0.259 OA
BRANCH  23  25
HETATM   25  O   UNL     1     -10.320   3.219 -32.797  1.00  0.00    -0.322 OA
HETATM   26  C   UNL     1     -10.997   2.069 -33.309  1.00  0.00     0.213 C 
ENDBRANCH  23  25
ENDBRANCH   1  23
BRANCH   7  27
HETATM   27  C   UNL     1      -3.628   7.748 -31.277  1.00  0.00     0.294 C 
BRANCH  27  28
HETATM   28  N   UNL     1      -2.372   7.340 -30.513  1.00  0.00    -0.061 N 
HETATM   29  H   UNL     1      -2.749   6.680 -29.814  1.00  0.00     0.280 HD
HETATM   30  C   UNL     1      -1.355   6.515 -31.312  1.00  0.00     0.190 C 
HETATM   31  C   UNL     1      -0.240   6.091 -30.346  1.00  0.00     0.033 C 
HETATM   32  C   UNL     1       0.403   7.273 -29.630  1.00  0.00     0.004 C 
HETATM   33  C   UNL     1      -0.648   8.076 -28.877  1.00  0.00     0.028 C 
HETATM   34  C   UNL     1      -1.785   8.520 -29.780  1.00  0.00     0.235 C 
BRANCH  30  35
HETATM   35  C   UNL     1      -0.874   7.270 -32.558  1.00  0.00     0.059 C 
BRANCH  35  36
HETATM   36  C   UNL     1      -1.192   6.550 -33.865  1.00  0.00     0.166 C 
BRANCH  36  37
HETATM   37  O   UNL     1      -2.179   7.311 -34.541  1.00  0.00    -0.401 OA
HETATM   38  H   UNL     1      -3.052   6.943 -34.310  1.00  0.00     0.209 HD
ENDBRANCH  36  37
ENDBRANCH  35  36
ENDBRANCH  30  35
ENDBRANCH  27  28
ENDBRANCH   7  27
TORSDOF 10
ENDMDL
MODEL 7
REMARK VINA RESULT:      -8.1      4.300     10.264
REMARK  10 active torsions:
REMARK  status: ('A' for Active; 'I' for Inactive)
REMARK    1  A    between atoms: O_2  and  C_3 
REMARK    2  A    between atoms: C_3  and  C_4 
REMARK    3  A    between atoms: C_8  and  N_9 
REMARK       I    between atoms: N_9  and  C_10 
REMARK    4  A    between atoms: C_10  and  C_11 
REMARK    5  A    between atoms: C_12  and  C_13 
REMARK    6  A    between atoms: C_22  and  C_23 
REMARK    7  A    between atoms: C_23  and  N_24 
REMARK    8  A    between atoms: C_26  and  C_27 
REMARK    9  A    between atoms: C_27  and  C_28 
REMARK   10  A    between atoms: C_28  and  O_29 
ROOT
HETATM    1  C   UNL     1      -3.387   6.109 -32.751  1.00  0.00     0.110 C 
HETATM    2  S   UNL     1      -4.288   5.251 -33.927  1.00  0.00    -0.061 SA
HETATM    3  C   UNL     1      -4.865   4.139 -32.784  1.00  0.00     0.111 A 
HETATM    4  C   UNL     1      -4.373   4.377 -31.505  1.00  0.00     0.028 A 
HETATM    5  C   UNL     1      -3.589   5.597 -31.470  1.00  0.00     0.071 C 
HETATM    6  N   UNL     1      -5.687   3.134 -33.173  1.00  0.00    -0.243 NA
HETATM    7  C   UNL     1      -6.017   2.267 -32.185  1.00  0.00     0.061 A 
HETATM    8  C   UNL     1      -5.551   2.350 -30.882  1.00  0.00     0.030 A 
HETATM    9  C   UNL     1      -4.708   3.401 -30.539  1.00  0.00     0.019 A 
ENDROOT
BRANCH   5  10
HETATM   10  N   UNL     1      -3.023   6.236 -30.356  1.00  0.00    -0.321 N 
HETATM   11  C   UNL     1      -3.718   6.910 -29.375  1.00  0.00     0.245 C 
HETATM   12  O   UNL     1      -4.926   7.111 -29.351  1.00  0.00    -0.268 OA
HETATM   13  H   UNL     1      -2.014   6.388 -30.402  1.00  0.00     0.169 HD
BRANCH  11  14
HETATM   14  C   UNL     1      -2.826   7.456 -28.312  1.00  0.00     0.075 C 
HETATM   15  C   UNL     1      -1.510   7.554 -28.560  1.00  0.00     0.017 C 
BRANCH  15  16
HETATM   16  C   UNL     1      -0.474   8.072 -27.648  1.00  0.00    -0.036 A 
HETATM   17  C   UNL     1      -0.728   8.458 -26.324  1.00  0.00     0.014 A 
HETATM   18  C   UNL     1       0.301   8.962 -25.520  1.00  0.00     0.043 A 
HETATM   19  C   UNL     1       1.583   9.087 -26.039  1.00  0.00     0.116 A 
HETATM   20  F   UNL     1       2.563   9.574 -25.268  1.00  0.00    -0.206 F 
HETATM   21  C   UNL     1       1.858   8.720 -27.348  1.00  0.00     0.043 A 
HETATM   22  C   UNL     1       0.831   8.215 -28.150  1.00  0.00     0.014 A 
ENDBRANCH  15  16
ENDBRANCH  11  14
ENDBRANCH   5  10
BRANCH   1  23
HETATM   23  C   UNL     1      -2.566   7.260 -33.098  1.00  0.00     0.302 C 
HETATM   24  O   UNL     1      -2.447   8.247 -32.380  1.00  0.00    -0.259 OA
BRANCH  23  25
HETATM   25  O   UNL     1      -1.936   7.102 -34.296  1.00  0.00    -0.322 OA
HETATM   26  C   UNL     1      -0.949   6.067 -34.312  1.00  0.00     0.213 C 
ENDBRANCH  23  25
ENDBRANCH   1  23
BRANCH   7  27
HETATM   27  C   UNL     1      -7.012   1.182 -32.537  1.00  0.00     0.294 C 
BRANCH  27  28
HETATM   28  N   UNL     1      -6.479   0.107 -33.479  1.00  0.00    -0.061 N 
HETATM   29  H   UNL     1      -6.443   0.609 -34.382  1.00  0.00     0.280 HD
HETATM   30  C   UNL     1      -5.032  -0.331 -33.225  1.00  0.00     0.190 C 
HETATM   31  C   UNL     1      -4.638  -1.306 -34.345  1.00  0.00     0.033 C 
HETATM   32  C   UNL     1      -5.594  -2.488 -34.461  1.00  0.00     0.004 C 
HETATM   33  C   UNL     1      -7.019  -2.002 -34.683  1.00  0.00     0.028 C 
HETATM   34  C   UNL     1      -7.465  -1.026 -33.609  1.00  0.00     0.235 C 
BRANCH  30  35
HETATM   35  C   UNL     1      -4.852  -0.879 -31.803  1.00  0.00     0.059 C 
BRANCH  35  36
HETATM   36  C   UNL     1      -3.489  -0.559 -31.197  1.00  0.00     0.166 C 
BRANCH  36  37
HETATM   37  O   UNL     1      -2.614  -1.622 -31.535  1.00  0.00    -0.401 OA
HETATM   38  H   UNL     1      -1.956  -1.709 -30.820  1.00  0.00     0.209 HD
ENDBRANCH  36  37
ENDBRANCH  35  36
ENDBRANCH  30  35
ENDBRANCH  27  28
ENDBRANCH   7  27
TORSDOF 10
ENDMDL
MODEL 8
REMARK VINA RESULT:      -8.0      4.504     10.242
REMARK  10 active torsions:
REMARK  status: ('A' for Active; 'I' for Inactive)
REMARK    1  A    between atoms: O_2  and  C_3 
REMARK    2  A    between atoms: C_3  and  C_4 
REMARK    3  A    between atoms: C_8  and  N_9 
REMARK       I    between atoms: N_9  and  C_10 
REMARK    4  A    between atoms: C_10  and  C_11 
REMARK    5  A    between atoms: C_12  and  C_13 
REMARK    6  A    between atoms: C_22  and  C_23 
REMARK    7  A    between atoms: C_23  and  N_24 
REMARK    8  A    between atoms: C_26  and  C_27 
REMARK    9  A    between atoms: C_27  and  C_28 
REMARK   10  A    between atoms: C_28  and  O_29 
ROOT
HETATM    1  C   UNL     1      -5.875  -0.131 -32.933  1.00  0.00     0.110 C 
HETATM    2  S   UNL     1      -7.183  -0.931 -33.695  1.00  0.00    -0.061 SA
HETATM    3  C   UNL     1      -8.269   0.312 -33.306  1.00  0.00     0.111 A 
HETATM    4  C   UNL     1      -7.675   1.338 -32.578  1.00  0.00     0.028 A 
HETATM    5  C   UNL     1      -6.247   1.123 -32.451  1.00  0.00     0.071 C 
HETATM    6  N   UNL     1      -9.569   0.216 -33.678  1.00  0.00    -0.243 NA
HETATM    7  C   UNL     1     -10.352   1.233 -33.243  1.00  0.00     0.061 A 
HETATM    8  C   UNL     1      -9.906   2.285 -32.459  1.00  0.00     0.030 A 
HETATM    9  C   UNL     1      -8.561   2.332 -32.106  1.00  0.00     0.019 A 
ENDROOT
BRANCH   5  10
HETATM   10  N   UNL     1      -5.284   1.979 -31.891  1.00  0.00    -0.321 N 
HETATM   11  C   UNL     1      -4.814   3.143 -32.459  1.00  0.00     0.245 C 
HETATM   12  O   UNL     1      -5.112   3.582 -33.563  1.00  0.00    -0.268 OA
HETATM   13  H   UNL     1      -4.750   1.590 -31.113  1.00  0.00     0.169 HD
BRANCH  11  14
HETATM   14  C   UNL     1      -3.813   3.838 -31.600  1.00  0.00     0.075 C 
HETATM   15  C   UNL     1      -2.909   4.642 -32.183  1.00  0.00     0.017 C 
BRANCH  15  16
HETATM   16  C   UNL     1      -1.851   5.417 -31.511  1.00  0.00    -0.036 A 
HETATM   17  C   UNL     1      -0.481   5.232 -31.748  1.00  0.00     0.014 A 
HETATM   18  C   UNL     1       0.470   5.991 -31.057  1.00  0.00     0.043 A 
HETATM   19  C   UNL     1       0.055   6.932 -30.123  1.00  0.00     0.116 A 
HETATM   20  F   UNL     1       0.968   7.653 -29.461  1.00  0.00    -0.206 F 
HETATM   21  C   UNL     1      -1.293   7.129 -29.865  1.00  0.00     0.043 A 
HETATM   22  C   UNL     1      -2.243   6.373 -30.556  1.00  0.00     0.014 A 
ENDBRANCH  15  16
ENDBRANCH  11  14
ENDBRANCH   5  10
BRANCH   1  23
HETATM   23  C   UNL     1      -4.544  -0.717 -32.871  1.00  0.00     0.302 C 
HETATM   24  O   UNL     1      -4.026  -1.318 -33.807  1.00  0.00    -0.259 OA
BRANCH  23  25
HETATM   25  O   UNL     1      -3.941  -0.504 -31.668  1.00  0.00    -0.322 OA
HETATM   26  C   UNL     1      -2.557  -0.859 -31.631  1.00  0.00     0.213 C 
ENDBRANCH  23  25
ENDBRANCH   1  23
BRANCH   7  27
HETATM   27  C   UNL     1     -11.791   1.229 -33.711  1.00  0.00     0.294 C 
BRANCH  27  28
HETATM   28  N   UNL     1     -12.739   2.083 -32.873  1.00  0.00    -0.061 N 
HETATM   29  H   UNL     1     -12.416   1.884 -31.912  1.00  0.00     0.280 HD
HETATM   30  C   UNL     1     -12.569   3.599 -33.029  1.00  0.00     0.190 C 
HETATM   31  C   UNL     1     -13.505   4.277 -32.017  1.00  0.00     0.033 C 
HETATM   32  C   UNL     1     -14.956   3.834 -32.166  1.00  0.00     0.004 C 
HETATM   33  C   UNL     1     -15.068   2.322 -32.033  1.00  0.00     0.028 C 
HETATM   34  C   UNL     1     -14.158   1.593 -33.006  1.00  0.00     0.235 C 
BRANCH  30  35
HETATM   35  C   UNL     1     -12.768   4.040 -34.485  1.00  0.00     0.059 C 
BRANCH  35  36
HETATM   36  C   UNL     1     -11.528   4.681 -35.100  1.00  0.00     0.166 C 
BRANCH  36  37
HETATM   37  O   UNL     1     -10.902   3.703 -35.914  1.00  0.00    -0.401 OA
HETATM   38  H   UNL     1     -11.556   3.002 -36.098  1.00  0.00     0.209 HD
ENDBRANCH  36  37
ENDBRANCH  35  36
ENDBRANCH  30  35
ENDBRANCH  27  28
ENDBRANCH   7  27
TORSDOF 10
ENDMDL
MODEL 9
REMARK VINA RESULT:      -7.9      4.900     10.782
REMARK  10 active torsions:
REMARK  status: ('A' for Active; 'I' for Inactive)
REMARK    1  A    between atoms: O_2  and  C_3 
REMARK    2  A    between atoms: C_3  and  C_4 
REMARK    3  A    between atoms: C_8  and  N_9 
REMARK       I    between atoms: N_9  and  C_10 
REMARK    4  A    between atoms: C_10  and  C_11 
REMARK    5  A    between atoms: C_12  and  C_13 
REMARK    6  A    between atoms: C_22  and  C_23 
REMARK    7  A    between atoms: C_23  and  N_24 
REMARK    8  A    between atoms: C_26  and  C_27 
REMARK    9  A    between atoms: C_27  and  C_28 
REMARK   10  A    between atoms: C_28  and  O_29 
ROOT
HETATM    1  C   UNL     1      -4.259   4.744 -33.131  1.00  0.00     0.110 C 
HETATM    2  S   UNL     1      -5.411   4.070 -34.204  1.00  0.00    -0.061 SA
HETATM    3  C   UNL     1      -6.457   3.651 -32.937  1.00  0.00     0.111 A 
HETATM    4  C   UNL     1      -5.950   3.988 -31.686  1.00  0.00     0.028 A 
HETATM    5  C   UNL     1      -4.707   4.723 -31.811  1.00  0.00     0.071 C 
HETATM    6  N   UNL     1      -7.629   3.025 -33.206  1.00  0.00    -0.243 NA
HETATM    7  C   UNL     1      -8.341   2.674 -32.107  1.00  0.00     0.061 A 
HETATM    8  C   UNL     1      -7.927   2.892 -30.803  1.00  0.00     0.030 A 
HETATM    9  C   UNL     1      -6.714   3.537 -30.585  1.00  0.00     0.019 A 
ENDROOT
BRANCH   5  10
HETATM   10  N   UNL     1      -3.949   5.332 -30.798  1.00  0.00    -0.321 N 
HETATM   11  C   UNL     1      -4.207   6.559 -30.227  1.00  0.00     0.245 C 
HETATM   12  O   UNL     1      -5.094   7.338 -30.554  1.00  0.00    -0.268 OA
HETATM   13  H   UNL     1      -3.028   4.924 -30.633  1.00  0.00     0.169 HD
BRANCH  11  14
HETATM   14  C   UNL     1      -3.229   6.912 -29.158  1.00  0.00     0.075 C 
HETATM   15  C   UNL     1      -1.917   6.769 -29.410  1.00  0.00     0.017 C 
BRANCH  15  16
HETATM   16  C   UNL     1      -0.803   7.071 -28.492  1.00  0.00    -0.036 A 
HETATM   17  C   UNL     1      -0.742   6.612 -27.168  1.00  0.00     0.014 A 
HETATM   18  C   UNL     1       0.338   6.955 -26.346  1.00  0.00     0.043 A 
HETATM   19  C   UNL     1       1.354   7.761 -26.843  1.00  0.00     0.116 A 
HETATM   20  F   UNL     1       2.383   8.090 -26.052  1.00  0.00    -0.206 F 
HETATM   21  C   UNL     1       1.312   8.233 -28.147  1.00  0.00     0.043 A 
HETATM   22  C   UNL     1       0.236   7.890 -28.968  1.00  0.00     0.014 A 
ENDBRANCH  15  16
ENDBRANCH  11  14
ENDBRANCH   5  10
BRANCH   1  23
HETATM   23  C   UNL     1      -3.000   5.302 -33.604  1.00  0.00     0.302 C 
HETATM   24  O   UNL     1      -2.075   4.619 -34.030  1.00  0.00    -0.259 OA
BRANCH  23  25
HETATM   25  O   UNL     1      -2.981   6.663 -33.536  1.00  0.00    -0.322 OA
HETATM   26  C   UNL     1      -1.673   7.230 -33.424  1.00  0.00     0.213 C 
ENDBRANCH  23  25
ENDBRANCH   1  23
BRANCH   7  27
HETATM   27  C   UNL     1      -9.703   2.061 -32.348  1.00  0.00     0.294 C 
BRANCH  27  28
HETATM   28  N   UNL     1     -10.490   2.683 -33.498  1.00  0.00    -0.061 N 
HETATM   29  H   UNL     1      -9.741   2.918 -34.170  1.00  0.00     0.280 HD
HETATM   30  C   UNL     1     -11.405   1.721 -34.264  1.00  0.00     0.190 C 
HETATM   31  C   UNL     1     -11.998   2.492 -35.453  1.00  0.00     0.033 C 
HETATM   32  C   UNL     1     -12.717   3.768 -35.030  1.00  0.00     0.004 C 
HETATM   33  C   UNL     1     -11.777   4.675 -34.249  1.00  0.00     0.028 C 
HETATM   34  C   UNL     1     -11.152   3.965 -33.062  1.00  0.00     0.235 C 
BRANCH  30  35
HETATM   35  C   UNL     1     -12.442   1.073 -33.337  1.00  0.00     0.059 C 
BRANCH  35  36
HETATM   36  C   UNL     1     -13.470   0.222 -34.076  1.00  0.00     0.166 C 
BRANCH  36  37
HETATM   37  O   UNL     1     -13.696  -0.942 -33.299  1.00  0.00    -0.401 OA
HETATM   38  H   UNL     1     -13.786  -1.698 -33.909  1.00  0.00     0.209 HD
ENDBRANCH  36  37
ENDBRANCH  35  36
ENDBRANCH  30  35
ENDBRANCH  27  28
ENDBRANCH   7  27
TORSDOF 10
ENDMDL
MODEL 10
REMARK VINA RESULT:      -7.7      2.344      3.283
REMARK  10 active torsions:
REMARK  status: ('A' for Active; 'I' for Inactive)
REMARK    1  A    between atoms: O_2  and  C_3 
REMARK    2  A    between atoms: C_3  and  C_4 
REMARK    3  A    between atoms: C_8  and  N_9 
REMARK       I    between atoms: N_9  and  C_10 
REMARK    4  A    between atoms: C_10  and  C_11 
REMARK    5  A    between atoms: C_12  and  C_13 
REMARK    6  A    between atoms: C_22  and  C_23 
REMARK    7  A    between atoms: C_23  and  N_24 
REMARK    8  A    between atoms: C_26  and  C_27 
REMARK    9  A    between atoms: C_27  and  C_28 
REMARK   10  A    between atoms: C_28  and  O_29 
ROOT
HETATM    1  C   UNL     1      -9.169   3.964 -32.355  1.00  0.00     0.110 C 
HETATM    2  S   UNL     1      -9.263   5.420 -31.457  1.00  0.00    -0.061 SA
HETATM    3  C   UNL     1      -7.832   5.079 -30.613  1.00  0.00     0.111 A 
HETATM    4  C   UNL     1      -7.272   3.857 -30.973  1.00  0.00     0.028 A 
HETATM    5  C   UNL     1      -8.004   3.255 -32.070  1.00  0.00     0.071 C 
HETATM    6  N   UNL     1      -7.374   5.948 -29.679  1.00  0.00    -0.243 NA
HETATM    7  C   UNL     1      -6.266   5.529 -29.020  1.00  0.00     0.061 A 
HETATM    8  C   UNL     1      -5.642   4.310 -29.233  1.00  0.00     0.030 A 
HETATM    9  C   UNL     1      -6.156   3.456 -30.204  1.00  0.00     0.019 A 
ENDROOT
BRANCH   5  10
HETATM   10  N   UNL     1      -7.693   2.088 -32.788  1.00  0.00    -0.321 N 
HETATM   11  C   UNL     1      -6.794   2.000 -33.828  1.00  0.00     0.245 C 
HETATM   12  O   UNL     1      -6.174   2.928 -34.332  1.00  0.00    -0.268 OA
HETATM   13  H   UNL     1      -8.340   1.309 -32.661  1.00  0.00     0.169 HD
BRANCH  11  14
HETATM   14  C   UNL     1      -6.671   0.613 -34.364  1.00  0.00     0.075 C 
HETATM   15  C   UNL     1      -5.948  -0.284 -33.674  1.00  0.00     0.017 C 
BRANCH  15  16
HETATM   16  C   UNL     1      -5.716  -1.695 -34.030  1.00  0.00    -0.036 A 
HETATM   17  C   UNL     1      -4.463  -2.319 -33.957  1.00  0.00     0.014 A 
HETATM   18  C   UNL     1      -4.311  -3.659 -34.332  1.00  0.00     0.043 A 
HETATM   19  C   UNL     1      -5.411  -4.376 -34.787  1.00  0.00     0.116 A 
HETATM   20  F   UNL     1      -5.261  -5.656 -35.149  1.00  0.00    -0.206 F 
HETATM   21  C   UNL     1      -6.660  -3.779 -34.876  1.00  0.00     0.043 A 
HETATM   22  C   UNL     1      -6.811  -2.442 -34.500  1.00  0.00     0.014 A 
ENDBRANCH  15  16
ENDBRANCH  11  14
ENDBRANCH   5  10
BRANCH   1  23
HETATM   23  C   UNL     1     -10.191   3.590 -33.323  1.00  0.00     0.302 C 
HETATM   24  O   UNL     1      -9.936   3.204 -34.459  1.00  0.00    -0.259 OA
BRANCH  23  25
HETATM   25  O   UNL     1     -11.449   3.700 -32.814  1.00  0.00    -0.322 OA
HETATM   26  C   UNL     1     -12.348   2.670 -33.234  1.00  0.00     0.213 C 
ENDBRANCH  23  25
ENDBRANCH   1  23
BRANCH   7  27
HETATM   27  C   UNL     1      -5.653   6.501 -28.036  1.00  0.00     0.294 C 
BRANCH  27  28
HETATM   28  N   UNL     1      -4.132   6.595 -28.092  1.00  0.00    -0.061 N 
HETATM   29  H   UNL     1      -3.857   5.603 -28.179  1.00  0.00     0.280 HD
HETATM   30  C   UNL     1      -3.561   7.263 -29.350  1.00  0.00     0.190 C 
HETATM   31  C   UNL     1      -2.031   7.141 -29.286  1.00  0.00     0.033 C 
HETATM   32  C   UNL     1      -1.446   7.718 -28.002  1.00  0.00     0.004 C 
HETATM   33  C   UNL     1      -2.064   7.045 -26.785  1.00  0.00     0.028 C 
HETATM   34  C   UNL     1      -3.580   7.127 -26.794  1.00  0.00     0.235 C 
BRANCH  30  35
HETATM   35  C   UNL     1      -4.086   8.695 -29.513  1.00  0.00     0.059 C 
BRANCH  35  36
HETATM   36  C   UNL     1      -4.624   8.989 -30.909  1.00  0.00     0.166 C 
BRANCH  36  37
HETATM   37  O   UNL     1      -5.359   7.852 -31.330  1.00  0.00    -0.401 OA
HETATM   38  H   UNL     1      -4.887   7.451 -32.084  1.00  0.00     0.209 HD
ENDBRANCH  36  37
ENDBRANCH  35  36
ENDBRANCH  30  35
ENDBRANCH  27  28
ENDBRANCH   7  27
TORSDOF 10
ENDMDL
