MODEL 1
REMARK VINA RESULT:      -8.5      0.000      0.000
REMARK  5 active torsions:
REMARK  status: ('A' for Active; 'I' for Inactive)
REMARK    1  A    between atoms: C_3  and  N_4 
REMARK       I    between atoms: N_4  and  C_5 
REMARK       I    between atoms: C_5  and  N_6 
REMARK    2  A    between atoms: N_6  and  C_7 
REMARK    3  A    between atoms: C_7  and  C_8 
REMARK    4  A    between atoms: C_11  and  N_12 
REMARK       I    between atoms: N_12  and  C_13 
REMARK    5  A    between atoms: C_13  and  C_14 
ROOT
HETATM    1  C   UNL     1       0.876   8.696 -26.036  1.00  0.00    -0.040 A 
HETATM    2  C   UNL     1      -0.467   8.339 -26.198  1.00  0.00     0.011 A 
HETATM    3  C   UNL     1      -0.957   7.944 -27.449  1.00  0.00     0.030 A 
HETATM    4  C   UNL     1      -0.116   7.897 -28.560  1.00  0.00     0.035 A 
HETATM    5  C   UNL     1       1.234   8.234 -28.393  1.00  0.00     0.030 A 
HETATM    6  C   UNL     1       1.728   8.626 -27.144  1.00  0.00     0.011 A 
ENDROOT
BRANCH   1   7
HETATM    7  C   UNL     1       1.396   9.118 -24.688  1.00  0.00     0.162 C 
BRANCH   7   8
HETATM    8  N   UNL     1       2.671   8.499 -24.407  1.00  0.00    -0.339 N 
HETATM    9  C   UNL     1       3.169   8.553 -23.121  1.00  0.00     0.321 C 
HETATM   10  N   UNL     1       4.412   7.965 -23.063  1.00  0.00    -0.307 N 
HETATM   11  O   UNL     1       2.537   9.028 -22.189  1.00  0.00    -0.247 OA
HETATM   12  H   UNL     1       4.501   7.200 -23.718  1.00  0.00     0.170 HD
HETATM   13  H   UNL     1       3.364   8.545 -25.139  1.00  0.00     0.164 HD
BRANCH  10  14
HETATM   14  C   UNL     1       5.257   7.911 -21.928  1.00  0.00     0.059 A 
HETATM   15  C   UNL     1       6.047   8.961 -21.435  1.00  0.00    -0.032 A 
HETATM   16  C   UNL     1       6.178  10.310 -22.081  1.00  0.00     0.050 C 
HETATM   17  C   UNL     1       6.795   8.737 -20.266  1.00  0.00     0.028 A 
HETATM   18  C   UNL     1       6.787   7.483 -19.675  1.00  0.00     0.117 A 
HETATM   19  N   UNL     1       6.096   6.437 -20.163  1.00  0.00    -0.271 NA
HETATM   20  C   UNL     1       5.355   6.678 -21.270  1.00  0.00     0.146 A 
ENDBRANCH  10  14
ENDBRANCH   7   8
ENDBRANCH   1   7
BRANCH   4  21
HETATM   21  N   UNL     1      -0.531   7.524 -29.857  1.00  0.00    -0.323 N 
HETATM   22  C   UNL     1      -0.413   6.278 -30.450  1.00  0.00     0.257 C 
HETATM   23  O   UNL     1       0.040   5.265 -29.928  1.00  0.00    -0.267 OA
HETATM   24  H   UNL     1      -1.020   8.241 -30.371  1.00  0.00     0.169 HD
BRANCH  22  25
HETATM   25  C   UNL     1      -0.911   6.174 -31.847  1.00  0.00     0.049 A 
HETATM   26  C   UNL     1      -0.979   7.332 -32.614  1.00  0.00     0.133 A 
HETATM   27  N   UNL     1      -1.416   7.368 -33.899  1.00  0.00    -0.272 NA
HETATM   28  C   UNL     1      -1.820   6.199 -34.437  1.00  0.00     0.116 A 
HETATM   29  C   UNL     1      -1.807   4.995 -33.752  1.00  0.00     0.020 A 
HETATM   30  C   UNL     1      -1.351   4.983 -32.433  1.00  0.00     0.020 A 
ENDBRANCH  22  25
ENDBRANCH   4  21
TORSDOF 5
ENDMDL
MODEL 2
REMARK VINA RESULT:      -8.4      6.018      9.887
REMARK  5 active torsions:
REMARK  status: ('A' for Active; 'I' for Inactive)
REMARK    1  A    between atoms: C_3  and  N_4 
REMARK       I    between atoms: N_4  and  C_5 
REMARK       I    between atoms: C_5  and  N_6 
REMARK    2  A    between atoms: N_6  and  C_7 
REMARK    3  A    between atoms: C_7  and  C_8 
REMARK    4  A    between atoms: C_11  and  N_12 
REMARK       I    between atoms: N_12  and  C_13 
REMARK    5  A    between atoms: C_13  and  C_14 
ROOT
HETATM    1  C   UNL     1      -4.749   3.971 -31.986  1.00  0.00    -0.040 A 
HETATM    2  C   UNL     1      -5.988   3.462 -32.392  1.00  0.00     0.011 A 
HETATM    3  C   UNL     1      -6.122   2.121 -32.770  1.00  0.00     0.030 A 
HETATM    4  C   UNL     1      -5.023   1.263 -32.748  1.00  0.00     0.035 A 
HETATM    5  C   UNL     1      -3.787   1.767 -32.322  1.00  0.00     0.030 A 
HETATM    6  C   UNL     1      -3.651   3.106 -31.940  1.00  0.00     0.011 A 
ENDROOT
BRANCH   1   7
HETATM    7  C   UNL     1      -4.613   5.414 -31.580  1.00  0.00     0.162 C 
BRANCH   7   8
HETATM    8  N   UNL     1      -3.902   5.535 -30.328  1.00  0.00    -0.339 N 
HETATM    9  C   UNL     1      -2.959   6.532 -30.191  1.00  0.00     0.321 C 
HETATM   10  N   UNL     1      -2.350   6.451 -28.959  1.00  0.00    -0.307 N 
HETATM   11  O   UNL     1      -2.757   7.373 -31.055  1.00  0.00    -0.247 OA
HETATM   12  H   UNL     1      -2.980   6.108 -28.247  1.00  0.00     0.170 HD
HETATM   13  H   UNL     1      -3.692   4.674 -29.846  1.00  0.00     0.164 HD
BRANCH  10  14
HETATM   14  C   UNL     1      -1.278   7.256 -28.503  1.00  0.00     0.059 A 
HETATM   15  C   UNL     1       0.083   6.913 -28.532  1.00  0.00    -0.032 A 
HETATM   16  C   UNL     1       0.623   5.591 -28.995  1.00  0.00     0.050 C 
HETATM   17  C   UNL     1       1.016   7.860 -28.073  1.00  0.00     0.028 A 
HETATM   18  C   UNL     1       0.571   9.064 -27.548  1.00  0.00     0.117 A 
HETATM   19  N   UNL     1      -0.729   9.392 -27.442  1.00  0.00    -0.271 NA
HETATM   20  C   UNL     1      -1.612   8.484 -27.919  1.00  0.00     0.146 A 
ENDBRANCH  10  14
ENDBRANCH   7   8
ENDBRANCH   1   7
BRANCH   4  21
HETATM   21  N   UNL     1      -5.069  -0.098 -33.126  1.00  0.00    -0.323 N 
HETATM   22  C   UNL     1      -5.805  -0.658 -34.156  1.00  0.00     0.257 C 
HETATM   23  O   UNL     1      -6.518  -0.055 -34.950  1.00  0.00    -0.267 OA
HETATM   24  H   UNL     1      -4.444  -0.704 -32.615  1.00  0.00     0.169 HD
BRANCH  22  25
HETATM   25  C   UNL     1      -5.687  -2.132 -34.311  1.00  0.00     0.049 A 
HETATM   26  C   UNL     1      -4.449  -2.725 -34.086  1.00  0.00     0.133 A 
HETATM   27  N   UNL     1      -4.213  -4.058 -34.197  1.00  0.00    -0.272 NA
HETATM   28  C   UNL     1      -5.255  -4.831 -34.565  1.00  0.00     0.116 A 
HETATM   29  C   UNL     1      -6.522  -4.336 -34.827  1.00  0.00     0.020 A 
HETATM   30  C   UNL     1      -6.741  -2.963 -34.704  1.00  0.00     0.020 A 
ENDBRANCH  22  25
ENDBRANCH   4  21
TORSDOF 5
ENDMDL
MODEL 3
REMARK VINA RESULT:      -8.4      8.970     13.202
REMARK  5 active torsions:
REMARK  status: ('A' for Active; 'I' for Inactive)
REMARK    1  A    between atoms: C_3  and  N_4 
REMARK       I    between atoms: N_4  and  C_5 
REMARK       I    between atoms: C_5  and  N_6 
REMARK    2  A    between atoms: N_6  and  C_7 
REMARK    3  A    between atoms: C_7  and  C_8 
REMARK    4  A    between atoms: C_11  and  N_12 
REMARK       I    between atoms: N_12  and  C_13 
REMARK    5  A    between atoms: C_13  and  C_14 
ROOT
HETATM    1  C   UNL     1      -5.931   0.720 -31.557  1.00  0.00    -0.040 A 
HETATM    2  C   UNL     1      -6.425  -0.154 -32.532  1.00  0.00     0.011 A 
HETATM    3  C   UNL     1      -7.786  -0.163 -32.863  1.00  0.00     0.030 A 
HETATM    4  C   UNL     1      -8.677   0.701 -32.229  1.00  0.00     0.035 A 
HETATM    5  C   UNL     1      -8.180   1.591 -31.267  1.00  0.00     0.030 A 
HETATM    6  C   UNL     1      -6.820   1.605 -30.937  1.00  0.00     0.011 A 
ENDROOT
BRANCH   1   7
HETATM    7  C   UNL     1      -4.468   0.725 -31.207  1.00  0.00     0.162 C 
BRANCH   7   8
HETATM    8  N   UNL     1      -3.700   1.439 -32.201  1.00  0.00    -0.339 N 
HETATM    9  C   UNL     1      -3.366   2.757 -31.965  1.00  0.00     0.321 C 
HETATM   10  N   UNL     1      -2.691   3.282 -33.044  1.00  0.00    -0.307 N 
HETATM   11  O   UNL     1      -3.618   3.323 -30.912  1.00  0.00    -0.247 OA
HETATM   12  H   UNL     1      -2.127   2.586 -33.513  1.00  0.00     0.170 HD
HETATM   13  H   UNL     1      -3.889   1.209 -33.166  1.00  0.00     0.164 HD
BRANCH  10  14
HETATM   14  C   UNL     1      -2.268   4.625 -33.191  1.00  0.00     0.059 A 
HETATM   15  C   UNL     1      -2.757   5.548 -34.128  1.00  0.00    -0.032 A 
HETATM   16  C   UNL     1      -3.773   5.234 -35.189  1.00  0.00     0.050 C 
HETATM   17  C   UNL     1      -2.246   6.858 -34.100  1.00  0.00     0.028 A 
HETATM   18  C   UNL     1      -1.240   7.183 -33.203  1.00  0.00     0.117 A 
HETATM   19  N   UNL     1      -0.702   6.303 -32.340  1.00  0.00    -0.271 NA
HETATM   20  C   UNL     1      -1.227   5.055 -32.358  1.00  0.00     0.146 A 
ENDBRANCH  10  14
ENDBRANCH   7   8
ENDBRANCH   1   7
BRANCH   4  21
HETATM   21  N   UNL     1     -10.065   0.747 -32.493  1.00  0.00    -0.323 N 
HETATM   22  C   UNL     1     -10.703   1.447 -33.502  1.00  0.00     0.257 C 
HETATM   23  O   UNL     1     -10.163   2.119 -34.374  1.00  0.00    -0.267 OA
HETATM   24  H   UNL     1     -10.630   0.150 -31.908  1.00  0.00     0.169 HD
BRANCH  22  25
HETATM   25  C   UNL     1     -12.186   1.339 -33.529  1.00  0.00     0.049 A 
HETATM   26  C   UNL     1     -12.938   2.463 -33.203  1.00  0.00     0.133 A 
HETATM   27  N   UNL     1     -14.295   2.493 -33.189  1.00  0.00    -0.272 NA
HETATM   28  C   UNL     1     -14.931   1.345 -33.499  1.00  0.00     0.116 A 
HETATM   29  C   UNL     1     -14.275   0.168 -33.822  1.00  0.00     0.020 A 
HETATM   30  C   UNL     1     -12.879   0.163 -33.832  1.00  0.00     0.020 A 
ENDBRANCH  22  25
ENDBRANCH   4  21
TORSDOF 5
ENDMDL
MODEL 4
REMARK VINA RESULT:      -8.2      7.493     11.181
REMARK  5 active torsions:
REMARK  status: ('A' for Active; 'I' for Inactive)
REMARK    1  A    between atoms: C_3  and  N_4 
REMARK       I    between atoms: N_4  and  C_5 
REMARK       I    between atoms: C_5  and  N_6 
REMARK    2  A    between atoms: N_6  and  C_7 
REMARK    3  A    between atoms: C_7  and  C_8 
REMARK    4  A    between atoms: C_11  and  N_12 
REMARK       I    between atoms: N_12  and  C_13 
REMARK    5  A    between atoms: C_13  and  C_14 
ROOT
HETATM    1  C   UNL     1      -6.518   3.652 -32.240  1.00  0.00    -0.040 A 
HETATM    2  C   UNL     1      -6.607   3.357 -33.605  1.00  0.00     0.011 A 
HETATM    3  C   UNL     1      -6.549   2.033 -34.057  1.00  0.00     0.030 A 
HETATM    4  C   UNL     1      -6.404   0.980 -33.155  1.00  0.00     0.035 A 
HETATM    5  C   UNL     1      -6.337   1.273 -31.787  1.00  0.00     0.030 A 
HETATM    6  C   UNL     1      -6.398   2.595 -31.332  1.00  0.00     0.011 A 
ENDROOT
BRANCH   1   7
HETATM    7  C   UNL     1      -6.582   5.078 -31.762  1.00  0.00     0.162 C 
BRANCH   7   8
HETATM    8  N   UNL     1      -5.484   5.374 -30.870  1.00  0.00    -0.339 N 
HETATM    9  C   UNL     1      -4.240   5.632 -31.409  1.00  0.00     0.321 C 
HETATM   10  N   UNL     1      -3.316   5.832 -30.408  1.00  0.00    -0.307 N 
HETATM   11  O   UNL     1      -4.044   5.705 -32.613  1.00  0.00    -0.247 OA
HETATM   12  H   UNL     1      -3.729   6.266 -29.593  1.00  0.00     0.170 HD
HETATM   13  H   UNL     1      -5.478   4.887 -29.987  1.00  0.00     0.164 HD
BRANCH  10  14
HETATM   14  C   UNL     1      -1.926   6.038 -30.584  1.00  0.00     0.059 A 
HETATM   15  C   UNL     1      -1.241   7.249 -30.403  1.00  0.00    -0.032 A 
HETATM   16  C   UNL     1      -1.891   8.557 -30.056  1.00  0.00     0.050 C 
HETATM   17  C   UNL     1       0.154   7.256 -30.583  1.00  0.00     0.028 A 
HETATM   18  C   UNL     1       0.799   6.099 -30.992  1.00  0.00     0.117 A 
HETATM   19  N   UNL     1       0.161   4.942 -31.242  1.00  0.00    -0.271 NA
HETATM   20  C   UNL     1      -1.176   4.943 -31.033  1.00  0.00     0.146 A 
ENDBRANCH  10  14
ENDBRANCH   7   8
ENDBRANCH   1   7
BRANCH   4  21
HETATM   21  N   UNL     1      -6.325  -0.381 -33.528  1.00  0.00    -0.323 N 
HETATM   22  C   UNL     1      -5.180  -1.107 -33.811  1.00  0.00     0.257 C 
HETATM   23  O   UNL     1      -4.026  -0.699 -33.745  1.00  0.00    -0.267 OA
HETATM   24  H   UNL     1      -7.204  -0.877 -33.524  1.00  0.00     0.169 HD
BRANCH  22  25
HETATM   25  C   UNL     1      -5.393  -2.524 -34.209  1.00  0.00     0.049 A 
HETATM   26  C   UNL     1      -4.344  -3.423 -34.042  1.00  0.00     0.133 A 
HETATM   27  N   UNL     1      -4.413  -4.739 -34.368  1.00  0.00    -0.272 NA
HETATM   28  C   UNL     1      -5.573  -5.175 -34.898  1.00  0.00     0.116 A 
HETATM   29  C   UNL     1      -6.670  -4.358 -35.119  1.00  0.00     0.020 A 
HETATM   30  C   UNL     1      -6.576  -3.008 -34.774  1.00  0.00     0.020 A 
ENDBRANCH  22  25
ENDBRANCH   4  21
TORSDOF 5
ENDMDL
MODEL 5
REMARK VINA RESULT:      -8.1      7.971     15.451
REMARK  5 active torsions:
REMARK  status: ('A' for Active; 'I' for Inactive)
REMARK    1  A    between atoms: C_3  and  N_4 
REMARK       I    between atoms: N_4  and  C_5 
REMARK       I    between atoms: C_5  and  N_6 
REMARK    2  A    between atoms: N_6  and  C_7 
REMARK    3  A    between atoms: C_7  and  C_8 
REMARK    4  A    between atoms: C_11  and  N_12 
REMARK       I    between atoms: N_12  and  C_13 
REMARK    5  A    between atoms: C_13  and  C_14 
ROOT
HETATM    1  C   UNL     1      -6.467   1.278 -33.876  1.00  0.00    -0.040 A 
HETATM    2  C   UNL     1      -6.531   2.653 -34.130  1.00  0.00     0.011 A 
HETATM    3  C   UNL     1      -5.609   3.533 -33.551  1.00  0.00     0.030 A 
HETATM    4  C   UNL     1      -4.603   3.056 -32.710  1.00  0.00     0.035 A 
HETATM    5  C   UNL     1      -4.525   1.677 -32.473  1.00  0.00     0.030 A 
HETATM    6  C   UNL     1      -5.443   0.796 -33.052  1.00  0.00     0.011 A 
ENDROOT
BRANCH   1   7
HETATM    7  C   UNL     1      -7.461   0.338 -34.502  1.00  0.00     0.162 C 
BRANCH   7   8
HETATM    8  N   UNL     1      -8.672   1.036 -34.871  1.00  0.00    -0.339 N 
HETATM    9  C   UNL     1      -9.774   0.939 -34.047  1.00  0.00     0.321 C 
HETATM   10  N   UNL     1     -10.842   1.616 -34.591  1.00  0.00    -0.307 N 
HETATM   11  O   UNL     1      -9.745   0.358 -32.972  1.00  0.00    -0.247 OA
HETATM   12  H   UNL     1     -10.546   2.426 -35.121  1.00  0.00     0.170 HD
HETATM   13  H   UNL     1      -8.876   1.090 -35.858  1.00  0.00     0.164 HD
BRANCH  10  14
HETATM   14  C   UNL     1     -12.156   1.664 -34.067  1.00  0.00     0.059 A 
HETATM   15  C   UNL     1     -12.648   2.611 -33.155  1.00  0.00    -0.032 A 
HETATM   16  C   UNL     1     -11.829   3.701 -32.527  1.00  0.00     0.050 C 
HETATM   17  C   UNL     1     -13.999   2.526 -32.775  1.00  0.00     0.028 A 
HETATM   18  C   UNL     1     -14.783   1.487 -33.251  1.00  0.00     0.117 A 
HETATM   19  N   UNL     1     -14.322   0.525 -34.069  1.00  0.00    -0.271 NA
HETATM   20  C   UNL     1     -13.029   0.638 -34.452  1.00  0.00     0.146 A 
ENDBRANCH  10  14
ENDBRANCH   7   8
ENDBRANCH   1   7
BRANCH   4  21
HETATM   21  N   UNL     1      -3.642   3.875 -32.077  1.00  0.00    -0.323 N 
HETATM   22  C   UNL     1      -2.508   4.430 -32.645  1.00  0.00     0.257 C 
HETATM   23  O   UNL     1      -2.163   4.338 -33.818  1.00  0.00    -0.267 OA
HETATM   24  H   UNL     1      -3.854   4.121 -31.121  1.00  0.00     0.169 HD
BRANCH  22  25
HETATM   25  C   UNL     1      -1.650   5.231 -31.732  1.00  0.00     0.049 A 
HETATM   26  C   UNL     1      -2.267   6.018 -30.764  1.00  0.00     0.133 A 
HETATM   27  N   UNL     1      -1.596   6.794 -29.874  1.00  0.00    -0.272 NA
HETATM   28  C   UNL     1      -0.250   6.798 -29.964  1.00  0.00     0.116 A 
HETATM   29  C   UNL     1       0.457   6.064 -30.902  1.00  0.00     0.020 A 
HETATM   30  C   UNL     1      -0.254   5.271 -31.805  1.00  0.00     0.020 A 
ENDBRANCH  22  25
ENDBRANCH   4  21
TORSDOF 5
ENDMDL
MODEL 6
REMARK VINA RESULT:      -8.1      6.613     13.675
REMARK  5 active torsions:
REMARK  status: ('A' for Active; 'I' for Inactive)
REMARK    1  A    between atoms: C_3  and  N_4 
REMARK       I    between atoms: N_4  and  C_5 
REMARK       I    between atoms: C_5  and  N_6 
REMARK    2  A    between atoms: N_6  and  C_7 
REMARK    3  A    between atoms: C_7  and  C_8 
REMARK    4  A    between atoms: C_11  and  N_12 
REMARK       I    between atoms: N_12  and  C_13 
REMARK    5  A    between atoms: C_13  and  C_14 
ROOT
HETATM    1  C   UNL     1      -6.301   2.428 -32.533  1.00  0.00    -0.040 A 
HETATM    2  C   UNL     1      -5.338   3.018 -33.359  1.00  0.00     0.011 A 
HETATM    3  C   UNL     1      -4.328   3.823 -32.820  1.00  0.00     0.030 A 
HETATM    4  C   UNL     1      -4.259   4.053 -31.446  1.00  0.00     0.035 A 
HETATM    5  C   UNL     1      -5.211   3.445 -30.616  1.00  0.00     0.030 A 
HETATM    6  C   UNL     1      -6.219   2.637 -31.152  1.00  0.00     0.011 A 
ENDROOT
BRANCH   1   7
HETATM    7  C   UNL     1      -7.384   1.562 -33.119  1.00  0.00     0.162 C 
BRANCH   7   8
HETATM    8  N   UNL     1      -6.824   0.540 -33.973  1.00  0.00    -0.339 N 
HETATM    9  C   UNL     1      -6.345  -0.619 -33.398  1.00  0.00     0.321 C 
HETATM   10  N   UNL     1      -5.800  -1.441 -34.358  1.00  0.00    -0.307 N 
HETATM   11  O   UNL     1      -6.451  -0.856 -32.204  1.00  0.00    -0.247 OA
HETATM   12  H   UNL     1      -6.276  -1.354 -35.247  1.00  0.00     0.170 HD
HETATM   13  H   UNL     1      -6.316   0.861 -34.784  1.00  0.00     0.164 HD
BRANCH  10  14
HETATM   14  C   UNL     1      -5.141  -2.673 -34.127  1.00  0.00     0.059 A 
HETATM   15  C   UNL     1      -5.528  -3.924 -34.629  1.00  0.00    -0.032 A 
HETATM   16  C   UNL     1      -6.761  -4.174 -35.449  1.00  0.00     0.050 C 
HETATM   17  C   UNL     1      -4.724  -5.038 -34.328  1.00  0.00     0.028 A 
HETATM   18  C   UNL     1      -3.623  -4.887 -33.500  1.00  0.00     0.117 A 
HETATM   19  N   UNL     1      -3.266  -3.714 -32.946  1.00  0.00    -0.271 NA
HETATM   20  C   UNL     1      -4.031  -2.646 -33.272  1.00  0.00     0.146 A 
ENDBRANCH  10  14
ENDBRANCH   7   8
ENDBRANCH   1   7
BRANCH   4  21
HETATM   21  N   UNL     1      -3.282   4.861 -30.823  1.00  0.00    -0.323 N 
HETATM   22  C   UNL     1      -1.951   4.992 -31.178  1.00  0.00     0.257 C 
HETATM   23  O   UNL     1      -1.397   4.454 -32.131  1.00  0.00    -0.267 OA
HETATM   24  H   UNL     1      -3.626   5.446 -30.075  1.00  0.00     0.169 HD
BRANCH  22  25
HETATM   25  C   UNL     1      -1.136   5.895 -30.323  1.00  0.00     0.049 A 
HETATM   26  C   UNL     1      -0.031   5.366 -29.665  1.00  0.00     0.133 A 
HETATM   27  N   UNL     1       0.789   6.086 -28.857  1.00  0.00    -0.272 NA
HETATM   28  C   UNL     1       0.484   7.388 -28.685  1.00  0.00     0.116 A 
HETATM   29  C   UNL     1      -0.603   8.006 -29.282  1.00  0.00     0.020 A 
HETATM   30  C   UNL     1      -1.431   7.245 -30.111  1.00  0.00     0.020 A 
ENDBRANCH  22  25
ENDBRANCH   4  21
TORSDOF 5
ENDMDL
MODEL 7
REMARK VINA RESULT:      -8.0     14.517     17.798
REMARK  5 active torsions:
REMARK  status: ('A' for Active; 'I' for Inactive)
REMARK    1  A    between atoms: C_3  and  N_4 
REMARK       I    between atoms: N_4  and  C_5 
REMARK       I    between atoms: C_5  and  N_6 
REMARK    2  A    between atoms: N_6  and  C_7 
REMARK    3  A    between atoms: C_7  and  C_8 
REMARK    4  A    between atoms: C_11  and  N_12 
REMARK       I    between atoms: N_12  and  C_13 
REMARK    5  A    between atoms: C_13  and  C_14 
ROOT
HETATM    1  C   UNL     1      -9.917   2.406 -32.789  1.00  0.00    -0.040 A 
HETATM    2  C   UNL     1     -10.495   1.145 -32.969  1.00  0.00     0.011 A 
HETATM    3  C   UNL     1      -9.696   0.007 -33.135  1.00  0.00     0.030 A 
HETATM    4  C   UNL     1      -8.305   0.108 -33.121  1.00  0.00     0.035 A 
HETATM    5  C   UNL     1      -7.725   1.368 -32.919  1.00  0.00     0.030 A 
HETATM    6  C   UNL     1      -8.521   2.505 -32.750  1.00  0.00     0.011 A 
ENDROOT
BRANCH   1   7
HETATM    7  C   UNL     1     -10.782   3.624 -32.610  1.00  0.00     0.162 C 
BRANCH   7   8
HETATM    8  N   UNL     1     -12.003   3.295 -31.912  1.00  0.00    -0.339 N 
HETATM    9  C   UNL     1     -13.212   3.546 -32.529  1.00  0.00     0.321 C 
HETATM   10  N   UNL     1     -14.255   3.224 -31.690  1.00  0.00    -0.307 N 
HETATM   11  O   UNL     1     -13.294   3.957 -33.677  1.00  0.00    -0.247 OA
HETATM   12  H   UNL     1     -14.029   2.444 -31.087  1.00  0.00     0.170 HD
HETATM   13  H   UNL     1     -11.996   3.421 -30.911  1.00  0.00     0.164 HD
BRANCH  10  14
HETATM   14  C   UNL     1     -15.631   3.427 -31.953  1.00  0.00     0.059 A 
HETATM   15  C   UNL     1     -16.330   4.635 -31.810  1.00  0.00    -0.032 A 
HETATM   16  C   UNL     1     -15.738   5.909 -31.280  1.00  0.00     0.050 C 
HETATM   17  C   UNL     1     -17.692   4.660 -32.161  1.00  0.00     0.028 A 
HETATM   18  C   UNL     1     -18.317   3.492 -32.570  1.00  0.00     0.117 A 
HETATM   19  N   UNL     1     -17.692   2.305 -32.650  1.00  0.00    -0.271 NA
HETATM   20  C   UNL     1     -16.374   2.304 -32.341  1.00  0.00     0.146 A 
ENDBRANCH  10  14
ENDBRANCH   7   8
ENDBRANCH   1   7
BRANCH   4  21
HETATM   21  N   UNL     1      -7.427  -0.986 -33.294  1.00  0.00    -0.323 N 
HETATM   22  C   UNL     1      -6.733  -1.331 -34.442  1.00  0.00     0.257 C 
HETATM   23  O   UNL     1      -6.729  -0.714 -35.501  1.00  0.00    -0.267 OA
HETATM   24  H   UNL     1      -7.253  -1.529 -32.462  1.00  0.00     0.169 HD
BRANCH  22  25
HETATM   25  C   UNL     1      -5.897  -2.557 -34.351  1.00  0.00     0.049 A 
HETATM   26  C   UNL     1      -4.647  -2.464 -33.749  1.00  0.00     0.133 A 
HETATM   27  N   UNL     1      -3.792  -3.509 -33.606  1.00  0.00    -0.272 NA
HETATM   28  C   UNL     1      -4.195  -4.697 -34.102  1.00  0.00     0.116 A 
HETATM   29  C   UNL     1      -5.413  -4.890 -34.733  1.00  0.00     0.020 A 
HETATM   30  C   UNL     1      -6.277  -3.801 -34.865  1.00  0.00     0.020 A 
ENDBRANCH  22  25
ENDBRANCH   4  21
TORSDOF 5
ENDMDL
MODEL 8
REMARK VINA RESULT:      -7.7      8.763     11.676
REMARK  5 active torsions:
REMARK  status: ('A' for Active; 'I' for Inactive)
REMARK    1  A    between atoms: C_3  and  N_4 
REMARK       I    between atoms: N_4  and  C_5 
REMARK       I    between atoms: C_5  and  N_6 
REMARK    2  A    between atoms: N_6  and  C_7 
REMARK    3  A    between atoms: C_7  and  C_8 
REMARK    4  A    between atoms: C_11  and  N_12 
REMARK       I    between atoms: N_12  and  C_13 
REMARK    5  A    between atoms: C_13  and  C_14 
ROOT
HETATM    1  C   UNL     1      -6.991   2.761 -30.247  1.00  0.00    -0.040 A 
HETATM    2  C   UNL     1      -7.792   2.503 -31.364  1.00  0.00     0.011 A 
HETATM    3  C   UNL     1      -7.644   1.318 -32.095  1.00  0.00     0.030 A 
HETATM    4  C   UNL     1      -6.694   0.367 -31.722  1.00  0.00     0.035 A 
HETATM    5  C   UNL     1      -5.906   0.616 -30.590  1.00  0.00     0.030 A 
HETATM    6  C   UNL     1      -6.054   1.797 -29.856  1.00  0.00     0.011 A 
ENDROOT
BRANCH   1   7
HETATM    7  C   UNL     1      -7.157   4.037 -29.466  1.00  0.00     0.162 C 
BRANCH   7   8
HETATM    8  N   UNL     1      -5.885   4.694 -29.270  1.00  0.00    -0.339 N 
HETATM    9  C   UNL     1      -5.325   5.387 -30.323  1.00  0.00     0.321 C 
HETATM   10  N   UNL     1      -4.094   5.891 -29.966  1.00  0.00    -0.307 N 
HETATM   11  O   UNL     1      -5.899   5.543 -31.391  1.00  0.00    -0.247 OA
HETATM   12  H   UNL     1      -4.055   6.136 -28.986  1.00  0.00     0.170 HD
HETATM   13  H   UNL     1      -5.227   4.227 -28.663  1.00  0.00     0.164 HD
BRANCH  10  14
HETATM   14  C   UNL     1      -3.197   6.582 -30.815  1.00  0.00     0.059 A 
HETATM   15  C   UNL     1      -2.135   6.013 -31.534  1.00  0.00    -0.032 A 
HETATM   16  C   UNL     1      -1.730   4.569 -31.464  1.00  0.00     0.050 C 
HETATM   17  C   UNL     1      -1.370   6.852 -32.364  1.00  0.00     0.028 A 
HETATM   18  C   UNL     1      -1.638   8.211 -32.401  1.00  0.00     0.117 A 
HETATM   19  N   UNL     1      -2.603   8.797 -31.670  1.00  0.00    -0.271 NA
HETATM   20  C   UNL     1      -3.351   7.972 -30.901  1.00  0.00     0.146 A 
ENDBRANCH  10  14
ENDBRANCH   7   8
ENDBRANCH   1   7
BRANCH   4  21
HETATM   21  N   UNL     1      -6.471  -0.846 -32.410  1.00  0.00    -0.323 N 
HETATM   22  C   UNL     1      -5.528  -1.091 -33.394  1.00  0.00     0.257 C 
HETATM   23  O   UNL     1      -4.690  -0.299 -33.810  1.00  0.00    -0.267 OA
HETATM   24  H   UNL     1      -7.029  -1.625 -32.094  1.00  0.00     0.169 HD
BRANCH  22  25
HETATM   25  C   UNL     1      -5.534  -2.460 -33.972  1.00  0.00     0.049 A 
HETATM   26  C   UNL     1      -6.696  -2.915 -34.587  1.00  0.00     0.133 A 
HETATM   27  N   UNL     1      -6.827  -4.144 -35.150  1.00  0.00    -0.272 NA
HETATM   28  C   UNL     1      -5.757  -4.961 -35.083  1.00  0.00     0.116 A 
HETATM   29  C   UNL     1      -4.560  -4.610 -34.479  1.00  0.00     0.020 A 
HETATM   30  C   UNL     1      -4.449  -3.340 -33.909  1.00  0.00     0.020 A 
ENDBRANCH  22  25
ENDBRANCH   4  21
TORSDOF 5
ENDMDL
MODEL 9
REMARK VINA RESULT:      -7.5      6.297     10.152
REMARK  5 active torsions:
REMARK  status: ('A' for Active; 'I' for Inactive)
REMARK    1  A    between atoms: C_3  and  N_4 
REMARK       I    between atoms: N_4  and  C_5 
REMARK       I    between atoms: C_5  and  N_6 
REMARK    2  A    between atoms: N_6  and  C_7 
REMARK    3  A    between atoms: C_7  and  C_8 
REMARK    4  A    between atoms: C_11  and  N_12 
REMARK       I    between atoms: N_12  and  C_13 
REMARK    5  A    between atoms: C_13  and  C_14 
ROOT
HETATM    1  C   UNL     1      -5.332   3.705 -31.531  1.00  0.00    -0.040 A 
HETATM    2  C   UNL     1      -5.904   3.414 -32.774  1.00  0.00     0.011 A 
HETATM    3  C   UNL     1      -5.909   2.106 -33.273  1.00  0.00     0.030 A 
HETATM    4  C   UNL     1      -5.345   1.063 -32.538  1.00  0.00     0.035 A 
HETATM    5  C   UNL     1      -4.791   1.350 -31.283  1.00  0.00     0.030 A 
HETATM    6  C   UNL     1      -4.788   2.656 -30.781  1.00  0.00     0.011 A 
ENDROOT
BRANCH   1   7
HETATM    7  C   UNL     1      -5.331   5.113 -31.001  1.00  0.00     0.162 C 
BRANCH   7   8
HETATM    8  N   UNL     1      -4.012   5.499 -30.555  1.00  0.00    -0.339 N 
HETATM    9  C   UNL     1      -3.897   6.433 -29.546  1.00  0.00     0.321 C 
HETATM   10  N   UNL     1      -2.572   6.714 -29.301  1.00  0.00    -0.307 N 
HETATM   11  O   UNL     1      -4.865   6.888 -28.954  1.00  0.00    -0.247 OA
HETATM   12  H   UNL     1      -1.979   5.909 -29.456  1.00  0.00     0.170 HD
HETATM   13  H   UNL     1      -3.292   5.536 -31.261  1.00  0.00     0.164 HD
BRANCH  10  14
HETATM   14  C   UNL     1      -2.078   7.683 -28.395  1.00  0.00     0.059 A 
HETATM   15  C   UNL     1      -1.885   9.047 -28.668  1.00  0.00    -0.032 A 
HETATM   16  C   UNL     1      -2.109   9.693 -30.004  1.00  0.00     0.050 C 
HETATM   17  C   UNL     1      -1.423   9.873 -27.627  1.00  0.00     0.028 A 
HETATM   18  C   UNL     1      -1.111   9.318 -26.396  1.00  0.00     0.117 A 
HETATM   19  N   UNL     1      -1.218   8.005 -26.126  1.00  0.00    -0.271 NA
HETATM   20  C   UNL     1      -1.695   7.228 -27.127  1.00  0.00     0.146 A 
ENDBRANCH  10  14
ENDBRANCH   7   8
ENDBRANCH   1   7
BRANCH   4  21
HETATM   21  N   UNL     1      -5.296  -0.280 -32.972  1.00  0.00    -0.323 N 
HETATM   22  C   UNL     1      -5.890  -0.819 -34.101  1.00  0.00     0.257 C 
HETATM   23  O   UNL     1      -6.530  -0.205 -34.948  1.00  0.00    -0.267 OA
HETATM   24  H   UNL     1      -4.710  -0.887 -32.418  1.00  0.00     0.169 HD
BRANCH  22  25
HETATM   25  C   UNL     1      -5.700  -2.280 -34.301  1.00  0.00     0.049 A 
HETATM   26  C   UNL     1      -4.455  -2.831 -34.016  1.00  0.00     0.133 A 
HETATM   27  N   UNL     1      -4.155  -4.147 -34.158  1.00  0.00    -0.272 NA
HETATM   28  C   UNL     1      -5.137  -4.948 -34.621  1.00  0.00     0.116 A 
HETATM   29  C   UNL     1      -6.404  -4.495 -34.949  1.00  0.00     0.020 A 
HETATM   30  C   UNL     1      -6.689  -3.137 -34.792  1.00  0.00     0.020 A 
ENDBRANCH  22  25
ENDBRANCH   4  21
TORSDOF 5
ENDMDL
MODEL 10
REMARK VINA RESULT:      -7.4      3.817     11.482
REMARK  5 active torsions:
REMARK  status: ('A' for Active; 'I' for Inactive)
REMARK    1  A    between atoms: C_3  and  N_4 
REMARK       I    between atoms: N_4  and  C_5 
REMARK       I    between atoms: C_5  and  N_6 
REMARK    2  A    between atoms: N_6  and  C_7 
REMARK    3  A    between atoms: C_7  and  C_8 
REMARK    4  A    between atoms: C_11  and  N_12 
REMARK       I    between atoms: N_12  and  C_13 
REMARK    5  A    between atoms: C_13  and  C_14 
ROOT
HETATM    1  C   UNL     1      -1.413   6.073 -32.280  1.00  0.00    -0.040 A 
HETATM    2  C   UNL     1      -2.000   7.219 -31.732  1.00  0.00     0.011 A 
HETATM    3  C   UNL     1      -1.491   7.794 -30.561  1.00  0.00     0.030 A 
HETATM    4  C   UNL     1      -0.387   7.237 -29.917  1.00  0.00     0.035 A 
HETATM    5  C   UNL     1       0.214   6.102 -30.478  1.00  0.00     0.030 A 
HETATM    6  C   UNL     1      -0.290   5.527 -31.649  1.00  0.00     0.011 A 
ENDROOT
BRANCH   1   7
HETATM    7  C   UNL     1      -1.965   5.461 -33.540  1.00  0.00     0.162 C 
BRANCH   7   8
HETATM    8  N   UNL     1      -2.286   4.066 -33.340  1.00  0.00    -0.339 N 
HETATM    9  C   UNL     1      -3.521   3.735 -32.820  1.00  0.00     0.321 C 
HETATM   10  N   UNL     1      -3.619   2.373 -32.648  1.00  0.00    -0.307 N 
HETATM   11  O   UNL     1      -4.389   4.567 -32.600  1.00  0.00    -0.247 OA
HETATM   12  H   UNL     1      -3.097   1.864 -33.349  1.00  0.00     0.170 HD
HETATM   13  H   UNL     1      -1.526   3.466 -33.060  1.00  0.00     0.164 HD
BRANCH  10  14
HETATM   14  C   UNL     1      -4.706   1.682 -32.061  1.00  0.00     0.059 A 
HETATM   15  C   UNL     1      -5.935   1.399 -32.677  1.00  0.00    -0.032 A 
HETATM   16  C   UNL     1      -6.326   1.849 -34.055  1.00  0.00     0.050 C 
HETATM   17  C   UNL     1      -6.887   0.661 -31.951  1.00  0.00     0.028 A 
HETATM   18  C   UNL     1      -6.620   0.295 -30.641  1.00  0.00     0.117 A 
HETATM   19  N   UNL     1      -5.481   0.612 -30.000  1.00  0.00    -0.271 NA
HETATM   20  C   UNL     1      -4.561   1.294 -30.723  1.00  0.00     0.146 A 
ENDBRANCH  10  14
ENDBRANCH   7   8
ENDBRANCH   1   7
BRANCH   4  21
HETATM   21  N   UNL     1       0.180   7.746 -28.727  1.00  0.00    -0.323 N 
HETATM   22  C   UNL     1      -0.176   7.430 -27.427  1.00  0.00     0.257 C 
HETATM   23  O   UNL     1      -1.025   6.615 -27.085  1.00  0.00    -0.267 OA
HETATM   24  H   UNL     1       0.970   8.360 -28.860  1.00  0.00     0.169 HD
BRANCH  22  25
HETATM   25  C   UNL     1       0.572   8.143 -26.358  1.00  0.00     0.049 A 
HETATM   26  C   UNL     1      -0.129   9.003 -25.519  1.00  0.00     0.133 A 
HETATM   27  N   UNL     1       0.440   9.710 -24.509  1.00  0.00    -0.272 NA
HETATM   28  C   UNL     1       1.769   9.565 -24.338  1.00  0.00     0.116 A 
HETATM   29  C   UNL     1       2.559   8.747 -25.129  1.00  0.00     0.020 A 
HETATM   30  C   UNL     1       1.952   8.028 -26.160  1.00  0.00     0.020 A 
ENDBRANCH  22  25
ENDBRANCH   4  21
TORSDOF 5
ENDMDL
