MODEL 1
REMARK VINA RESULT:     -10.3      0.000      0.000
REMARK  5 active torsions:
REMARK  status: ('A' for Active; 'I' for Inactive)
REMARK    1  A    between atoms: C_2  and  N_3 
REMARK    2  A    between atoms: C_10  and  C_11 
REMARK    3  A    between atoms: C_11  and  C_12 
REMARK    4  A    between atoms: C_12  and  C_13 
REMARK       I    between atoms: C_13  and  N_14 
REMARK    5  A    between atoms: N_14  and  C_15 
ROOT
HETATM    1  C   UNL     1      -7.355   1.683 -34.083  1.00  0.00     0.222 C 
HETATM    2  N   UNL     1      -6.875   2.609 -33.179  1.00  0.00    -0.327 N 
HETATM    3  O   UNL     1      -6.829   1.409 -35.160  1.00  0.00    -0.273 OA
HETATM    4  H   UNL     1      -7.354   2.693 -32.295  1.00  0.00     0.169 HD
ENDROOT
BRANCH   2   5
HETATM    5  C   UNL     1      -5.751   3.454 -33.320  1.00  0.00     0.035 A 
HETATM    6  C   UNL     1      -4.677   3.503 -32.432  1.00  0.00     0.049 A 
HETATM    7  C   UNL     1      -3.604   4.406 -32.623  1.00  0.00     0.061 A 
HETATM    8  C   UNL     1      -3.615   5.272 -33.725  1.00  0.00     0.050 A 
HETATM    9  C   UNL     1      -2.454   4.242 -31.695  1.00  0.00     0.256 C 
HETATM   10  N   UNL     1      -2.661   6.259 -34.022  1.00  0.00    -0.324 N 
HETATM   11  C   UNL     1      -4.664   5.168 -34.650  1.00  0.00     0.033 A 
HETATM   12  C   UNL     1      -1.886   6.986 -33.161  1.00  0.00     0.245 C 
HETATM   13  H   UNL     1      -2.651   6.654 -34.956  1.00  0.00     0.169 HD
HETATM   14  O   UNL     1      -1.245   7.932 -33.621  1.00  0.00    -0.271 OA
HETATM   15  C   UNL     1      -2.023   6.724 -31.664  1.00  0.00     0.180 C 
HETATM   16  N   UNL     1      -1.703   5.340 -31.353  1.00  0.00    -0.334 N 
HETATM   17  C   UNL     1      -1.023   7.543 -30.836  1.00  0.00     0.037 C 
HETATM   18  C   UNL     1      -0.652   5.249 -30.354  1.00  0.00     0.127 C 
HETATM   19  C   UNL     1      -0.663   6.613 -29.686  1.00  0.00     0.022 C 
HETATM   20  C   UNL     1      -5.725   4.283 -34.442  1.00  0.00     0.032 A 
HETATM   21  O   UNL     1      -2.202   3.121 -31.256  1.00  0.00    -0.267 OA
ENDBRANCH   2   5
BRANCH   1  22
HETATM   22  C   UNL     1      -8.601   0.910 -33.660  1.00  0.00     0.108 C 
BRANCH  22  23
HETATM   23  C   UNL     1      -8.385  -0.373 -32.866  1.00  0.00     0.050 C 
BRANCH  23  24
HETATM   24  C   UNL     1      -7.122  -1.121 -33.178  1.00  0.00    -0.030 A 
HETATM   25  C   UNL     1      -5.856  -0.905 -32.541  1.00  0.00    -0.002 A 
HETATM   26  C   UNL     1      -4.937  -1.806 -33.091  1.00  0.00     0.045 A 
HETATM   27  C   UNL     1      -5.418  -0.017 -31.535  1.00  0.00     0.014 A 
HETATM   28  N   UNL     1      -5.621  -2.549 -34.033  1.00  0.00    -0.352 N 
HETATM   29  C   UNL     1      -3.598  -1.843 -32.665  1.00  0.00     0.030 A 
HETATM   30  C   UNL     1      -6.931  -2.135 -34.092  1.00  0.00     0.099 A 
HETATM   31  C   UNL     1      -3.191  -0.952 -31.668  1.00  0.00     0.002 A 
HETATM   32  C   UNL     1      -4.087  -0.049 -31.108  1.00  0.00     0.001 A 
BRANCH  28  33
HETATM   33  C   UNL     1      -5.059  -3.629 -34.848  1.00  0.00     0.081 C 
HETATM   34  C   UNL     1      -6.153  -4.432 -35.553  1.00  0.00     0.032 C 
HETATM   35  C   UNL     1      -4.140  -4.533 -34.026  1.00  0.00     0.032 C 
ENDBRANCH  28  33
ENDBRANCH  23  24
ENDBRANCH  22  23
ENDBRANCH   1  22
TORSDOF 5
ENDMDL
MODEL 2
REMARK VINA RESULT:     -10.2      1.890      3.287
REMARK  5 active torsions:
REMARK  status: ('A' for Active; 'I' for Inactive)
REMARK    1  A    between atoms: C_2  and  N_3 
REMARK    2  A    between atoms: C_10  and  C_11 
REMARK    3  A    between atoms: C_11  and  C_12 
REMARK    4  A    between atoms: C_12  and  C_13 
REMARK       I    between atoms: C_13  and  N_14 
REMARK    5  A    between atoms: N_14  and  C_15 
ROOT
HETATM    1  C   UNL     1      -8.117   1.591 -33.266  1.00  0.00     0.222 C 
HETATM    2  N   UNL     1      -7.672   2.651 -34.030  1.00  0.00    -0.327 N 
HETATM    3  O   UNL     1      -8.086   1.543 -32.038  1.00  0.00    -0.273 OA
HETATM    4  H   UNL     1      -7.818   2.604 -35.027  1.00  0.00     0.169 HD
ENDROOT
BRANCH   2   5
HETATM    5  C   UNL     1      -7.049   3.838 -33.584  1.00  0.00     0.035 A 
HETATM    6  C   UNL     1      -5.773   4.257 -33.960  1.00  0.00     0.049 A 
HETATM    7  C   UNL     1      -5.203   5.442 -33.440  1.00  0.00     0.061 A 
HETATM    8  C   UNL     1      -5.930   6.217 -32.525  1.00  0.00     0.050 A 
HETATM    9  C   UNL     1      -3.908   5.852 -34.046  1.00  0.00     0.256 C 
HETATM   10  N   UNL     1      -5.485   7.381 -31.877  1.00  0.00    -0.324 N 
HETATM   11  C   UNL     1      -7.238   5.826 -32.205  1.00  0.00     0.033 A 
HETATM   12  C   UNL     1      -4.212   7.726 -31.516  1.00  0.00     0.245 C 
HETATM   13  H   UNL     1      -6.173   7.975 -31.428  1.00  0.00     0.169 HD
HETATM   14  O   UNL     1      -4.065   8.712 -30.791  1.00  0.00    -0.271 OA
HETATM   15  C   UNL     1      -3.077   6.761 -31.848  1.00  0.00     0.180 C 
HETATM   16  N   UNL     1      -2.995   6.537 -33.282  1.00  0.00    -0.334 N 
HETATM   17  C   UNL     1      -1.702   7.328 -31.470  1.00  0.00     0.037 C 
HETATM   18  C   UNL     1      -1.671   6.846 -33.793  1.00  0.00     0.127 C 
HETATM   19  C   UNL     1      -0.783   6.798 -32.561  1.00  0.00     0.022 C 
HETATM   20  C   UNL     1      -7.784   4.646 -32.714  1.00  0.00     0.032 A 
HETATM   21  O   UNL     1      -3.688   5.566 -35.220  1.00  0.00    -0.267 OA
ENDBRANCH   2   5
BRANCH   1  22
HETATM   22  C   UNL     1      -8.751   0.430 -34.027  1.00  0.00     0.108 C 
BRANCH  22  23
HETATM   23  C   UNL     1      -7.875  -0.293 -35.045  1.00  0.00     0.050 C 
BRANCH  23  24
HETATM   24  C   UNL     1      -6.589  -0.848 -34.511  1.00  0.00    -0.030 A 
HETATM   25  C   UNL     1      -6.189  -2.223 -34.584  1.00  0.00    -0.002 A 
HETATM   26  C   UNL     1      -4.925  -2.338 -33.996  1.00  0.00     0.045 A 
HETATM   27  C   UNL     1      -6.801  -3.382 -35.110  1.00  0.00     0.014 A 
HETATM   28  N   UNL     1      -4.563  -1.072 -33.577  1.00  0.00    -0.352 N 
HETATM   29  C   UNL     1      -4.258  -3.573 -33.919  1.00  0.00     0.030 A 
HETATM   30  C   UNL     1      -5.563  -0.178 -33.879  1.00  0.00     0.099 A 
HETATM   31  C   UNL     1      -4.887  -4.704 -34.447  1.00  0.00     0.002 A 
HETATM   32  C   UNL     1      -6.143  -4.613 -35.035  1.00  0.00     0.001 A 
BRANCH  28  33
HETATM   33  C   UNL     1      -3.304  -0.712 -32.920  1.00  0.00     0.081 C 
HETATM   34  C   UNL     1      -2.973  -1.667 -31.772  1.00  0.00     0.032 C 
HETATM   35  C   UNL     1      -3.310   0.745 -32.455  1.00  0.00     0.032 C 
ENDBRANCH  28  33
ENDBRANCH  23  24
ENDBRANCH  22  23
ENDBRANCH   1  22
TORSDOF 5
ENDMDL
MODEL 3
REMARK VINA RESULT:     -10.0      2.861      5.593
REMARK  5 active torsions:
REMARK  status: ('A' for Active; 'I' for Inactive)
REMARK    1  A    between atoms: C_2  and  N_3 
REMARK    2  A    between atoms: C_10  and  C_11 
REMARK    3  A    between atoms: C_11  and  C_12 
REMARK    4  A    between atoms: C_12  and  C_13 
REMARK       I    between atoms: C_13  and  N_14 
REMARK    5  A    between atoms: N_14  and  C_15 
ROOT
HETATM    1  C   UNL     1      -7.157   1.162 -32.116  1.00  0.00     0.222 C 
HETATM    2  N   UNL     1      -7.153   2.509 -32.417  1.00  0.00    -0.327 N 
HETATM    3  O   UNL     1      -6.161   0.442 -32.084  1.00  0.00    -0.273 OA
HETATM    4  H   UNL     1      -8.026   3.009 -32.339  1.00  0.00     0.169 HD
ENDROOT
BRANCH   2   5
HETATM    5  C   UNL     1      -6.053   3.306 -32.802  1.00  0.00     0.035 A 
HETATM    6  C   UNL     1      -4.866   3.427 -32.080  1.00  0.00     0.049 A 
HETATM    7  C   UNL     1      -3.821   4.277 -32.514  1.00  0.00     0.061 A 
HETATM    8  C   UNL     1      -3.976   5.017 -33.694  1.00  0.00     0.050 A 
HETATM    9  C   UNL     1      -2.556   4.187 -31.737  1.00  0.00     0.256 C 
HETATM   10  N   UNL     1      -3.063   5.943 -34.224  1.00  0.00    -0.324 N 
HETATM   11  C   UNL     1      -5.143   4.839 -34.450  1.00  0.00     0.033 A 
HETATM   12  C   UNL     1      -2.171   6.741 -33.563  1.00  0.00     0.245 C 
HETATM   13  H   UNL     1      -3.178   6.234 -35.189  1.00  0.00     0.169 HD
HETATM   14  O   UNL     1      -1.591   7.616 -34.208  1.00  0.00    -0.271 OA
HETATM   15  C   UNL     1      -2.103   6.647 -32.041  1.00  0.00     0.180 C 
HETATM   16  N   UNL     1      -1.756   5.298 -31.624  1.00  0.00    -0.334 N 
HETATM   17  C   UNL     1      -0.992   7.527 -31.453  1.00  0.00     0.037 C 
HETATM   18  C   UNL     1      -0.578   5.291 -30.774  1.00  0.00     0.127 C 
HETATM   19  C   UNL     1      -0.486   6.720 -30.266  1.00  0.00     0.022 C 
HETATM   20  C   UNL     1      -6.173   4.007 -34.004  1.00  0.00     0.032 A 
HETATM   21  O   UNL     1      -2.257   3.116 -31.215  1.00  0.00    -0.267 OA
ENDBRANCH   2   5
BRANCH   1  22
HETATM   22  C   UNL     1      -8.506   0.560 -31.734  1.00  0.00     0.108 C 
BRANCH  22  23
HETATM   23  C   UNL     1      -9.397   0.077 -32.872  1.00  0.00     0.050 C 
BRANCH  23  24
HETATM   24  C   UNL     1     -10.415   1.065 -33.360  1.00  0.00    -0.030 A 
HETATM   25  C   UNL     1     -11.801   0.779 -33.589  1.00  0.00    -0.002 A 
HETATM   26  C   UNL     1     -12.420   1.958 -34.019  1.00  0.00     0.045 A 
HETATM   27  C   UNL     1     -12.582  -0.390 -33.459  1.00  0.00     0.014 A 
HETATM   28  N   UNL     1     -11.442   2.933 -34.052  1.00  0.00    -0.352 N 
HETATM   29  C   UNL     1     -13.792   2.001 -34.322  1.00  0.00     0.030 A 
HETATM   30  C   UNL     1     -10.237   2.399 -33.663  1.00  0.00     0.099 A 
HETATM   31  C   UNL     1     -14.541   0.829 -34.185  1.00  0.00     0.002 A 
HETATM   32  C   UNL     1     -13.947  -0.354 -33.759  1.00  0.00     0.001 A 
BRANCH  28  33
HETATM   33  C   UNL     1     -11.641   4.335 -34.427  1.00  0.00     0.081 C 
HETATM   34  C   UNL     1     -10.532   4.834 -35.355  1.00  0.00     0.032 C 
HETATM   35  C   UNL     1     -11.788   5.231 -33.196  1.00  0.00     0.032 C 
ENDBRANCH  28  33
ENDBRANCH  23  24
ENDBRANCH  22  23
ENDBRANCH   1  22
TORSDOF 5
ENDMDL
MODEL 4
REMARK VINA RESULT:     -10.0      2.566      9.410
REMARK  5 active torsions:
REMARK  status: ('A' for Active; 'I' for Inactive)
REMARK    1  A    between atoms: C_2  and  N_3 
REMARK    2  A    between atoms: C_10  and  C_11 
REMARK    3  A    between atoms: C_11  and  C_12 
REMARK    4  A    between atoms: C_12  and  C_13 
REMARK       I    between atoms: C_13  and  N_14 
REMARK    5  A    between atoms: N_14  and  C_15 
ROOT
HETATM    1  C   UNL     1      -1.752   4.775 -32.150  1.00  0.00     0.222 C 
HETATM    2  N   UNL     1      -2.490   4.084 -31.211  1.00  0.00    -0.327 N 
HETATM    3  O   UNL     1      -1.905   4.698 -33.367  1.00  0.00    -0.273 OA
HETATM    4  H   UNL     1      -2.320   4.288 -30.237  1.00  0.00     0.169 HD
ENDROOT
BRANCH   2   5
HETATM    5  C   UNL     1      -3.503   3.126 -31.441  1.00  0.00     0.035 A 
HETATM    6  C   UNL     1      -3.274   1.800 -31.809  1.00  0.00     0.049 A 
HETATM    7  C   UNL     1      -4.344   0.909 -32.057  1.00  0.00     0.061 A 
HETATM    8  C   UNL     1      -5.665   1.362 -31.934  1.00  0.00     0.050 A 
HETATM    9  C   UNL     1      -3.960  -0.509 -32.284  1.00  0.00     0.256 C 
HETATM   10  N   UNL     1      -6.830   0.623 -32.201  1.00  0.00    -0.324 N 
HETATM   11  C   UNL     1      -5.887   2.675 -31.497  1.00  0.00     0.033 A 
HETATM   12  C   UNL     1      -7.013  -0.390 -33.101  1.00  0.00     0.245 C 
HETATM   13  H   UNL     1      -7.714   0.976 -31.853  1.00  0.00     0.169 HD
HETATM   14  O   UNL     1      -8.164  -0.779 -33.305  1.00  0.00    -0.271 OA
HETATM   15  C   UNL     1      -5.823  -0.832 -33.949  1.00  0.00     0.180 C 
HETATM   16  N   UNL     1      -4.733  -1.294 -33.105  1.00  0.00    -0.334 N 
HETATM   17  C   UNL     1      -6.157  -2.038 -34.837  1.00  0.00     0.037 C 
HETATM   18  C   UNL     1      -4.327  -2.644 -33.454  1.00  0.00     0.127 C 
HETATM   19  C   UNL     1      -4.860  -2.833 -34.863  1.00  0.00     0.022 C 
HETATM   20  C   UNL     1      -4.821   3.550 -31.268  1.00  0.00     0.032 A 
HETATM   21  O   UNL     1      -2.955  -0.946 -31.727  1.00  0.00    -0.267 OA
ENDBRANCH   2   5
BRANCH   1  22
HETATM   22  C   UNL     1      -0.714   5.753 -31.605  1.00  0.00     0.108 C 
BRANCH  22  23
HETATM   23  C   UNL     1      -1.213   7.128 -31.178  1.00  0.00     0.050 C 
BRANCH  23  24
HETATM   24  C   UNL     1      -1.520   7.279 -29.718  1.00  0.00    -0.030 A 
HETATM   25  C   UNL     1      -0.569   7.635 -28.705  1.00  0.00    -0.002 A 
HETATM   26  C   UNL     1      -1.244   7.692 -27.480  1.00  0.00     0.045 A 
HETATM   27  C   UNL     1       0.813   7.918 -28.734  1.00  0.00     0.014 A 
HETATM   28  N   UNL     1      -2.565   7.381 -27.737  1.00  0.00    -0.352 N 
HETATM   29  C   UNL     1      -0.577   8.023 -26.288  1.00  0.00     0.030 A 
HETATM   30  C   UNL     1      -2.732   7.127 -29.077  1.00  0.00     0.099 A 
HETATM   31  C   UNL     1       0.792   8.299 -26.345  1.00  0.00     0.002 A 
HETATM   32  C   UNL     1       1.482   8.247 -27.551  1.00  0.00     0.001 A 
BRANCH  28  33
HETATM   33  C   UNL     1      -3.644   7.338 -26.747  1.00  0.00     0.081 C 
HETATM   34  C   UNL     1      -4.720   6.321 -27.129  1.00  0.00     0.032 C 
HETATM   35  C   UNL     1      -4.243   8.725 -26.508  1.00  0.00     0.032 C 
ENDBRANCH  28  33
ENDBRANCH  23  24
ENDBRANCH  22  23
ENDBRANCH   1  22
TORSDOF 5
ENDMDL
MODEL 5
REMARK VINA RESULT:      -9.8      2.274      9.389
REMARK  5 active torsions:
REMARK  status: ('A' for Active; 'I' for Inactive)
REMARK    1  A    between atoms: C_2  and  N_3 
REMARK    2  A    between atoms: C_10  and  C_11 
REMARK    3  A    between atoms: C_11  and  C_12 
REMARK    4  A    between atoms: C_12  and  C_13 
REMARK       I    between atoms: C_13  and  N_14 
REMARK    5  A    between atoms: N_14  and  C_15 
ROOT
HETATM    1  C   UNL     1      -1.976   5.385 -33.702  1.00  0.00     0.222 C 
HETATM    2  N   UNL     1      -2.762   4.907 -32.672  1.00  0.00    -0.327 N 
HETATM    3  O   UNL     1      -1.931   4.911 -34.835  1.00  0.00    -0.273 OA
HETATM    4  H   UNL     1      -2.768   5.426 -31.807  1.00  0.00     0.169 HD
ENDROOT
BRANCH   2   5
HETATM    5  C   UNL     1      -3.604   3.773 -32.682  1.00  0.00     0.035 A 
HETATM    6  C   UNL     1      -3.197   2.476 -32.368  1.00  0.00     0.049 A 
HETATM    7  C   UNL     1      -4.094   1.385 -32.436  1.00  0.00     0.061 A 
HETATM    8  C   UNL     1      -5.422   1.603 -32.827  1.00  0.00     0.050 A 
HETATM    9  C   UNL     1      -3.571   0.090 -31.924  1.00  0.00     0.256 C 
HETATM   10  N   UNL     1      -6.414   0.624 -33.000  1.00  0.00    -0.324 N 
HETATM   11  C   UNL     1      -5.842   2.918 -33.074  1.00  0.00     0.033 A 
HETATM   12  C   UNL     1      -6.270  -0.682 -33.379  1.00  0.00     0.245 C 
HETATM   13  H   UNL     1      -7.381   0.923 -33.053  1.00  0.00     0.169 HD
HETATM   14  O   UNL     1      -7.290  -1.320 -33.648  1.00  0.00    -0.271 OA
HETATM   15  C   UNL     1      -4.864  -1.208 -33.653  1.00  0.00     0.180 C 
HETATM   16  N   UNL     1      -4.029  -1.084 -32.469  1.00  0.00    -0.334 N 
HETATM   17  C   UNL     1      -4.855  -2.709 -33.971  1.00  0.00     0.037 C 
HETATM   18  C   UNL     1      -3.455  -2.363 -32.087  1.00  0.00     0.127 C 
HETATM   19  C   UNL     1      -3.555  -3.200 -33.350  1.00  0.00     0.022 C 
HETATM   20  C   UNL     1      -4.942   3.986 -33.017  1.00  0.00     0.032 A 
HETATM   21  O   UNL     1      -2.738   0.105 -31.019  1.00  0.00    -0.267 OA
ENDBRANCH   2   5
BRANCH   1  22
HETATM   22  C   UNL     1      -1.159   6.638 -33.400  1.00  0.00     0.108 C 
BRANCH  22  23
HETATM   23  C   UNL     1      -1.888   7.798 -32.733  1.00  0.00     0.050 C 
BRANCH  23  24
HETATM   24  C   UNL     1      -1.540   8.037 -31.294  1.00  0.00    -0.030 A 
HETATM   25  C   UNL     1      -2.147   9.026 -30.451  1.00  0.00    -0.002 A 
HETATM   26  C   UNL     1      -1.569   8.923 -29.180  1.00  0.00     0.045 A 
HETATM   27  C   UNL     1      -3.147   9.998 -30.665  1.00  0.00     0.014 A 
HETATM   28  N   UNL     1      -0.639   7.904 -29.246  1.00  0.00    -0.352 N 
HETATM   29  C   UNL     1      -1.962   9.763 -28.123  1.00  0.00     0.030 A 
HETATM   30  C   UNL     1      -0.615   7.375 -30.514  1.00  0.00     0.099 A 
HETATM   31  C   UNL     1      -2.954  10.717 -28.364  1.00  0.00     0.002 A 
HETATM   32  C   UNL     1      -3.541  10.837 -29.618  1.00  0.00     0.001 A 
BRANCH  28  33
HETATM   33  C   UNL     1       0.196   7.432 -28.139  1.00  0.00     0.081 C 
HETATM   34  C   UNL     1       1.398   8.349 -27.907  1.00  0.00     0.032 C 
HETATM   35  C   UNL     1       0.630   5.979 -28.342  1.00  0.00     0.032 C 
ENDBRANCH  28  33
ENDBRANCH  23  24
ENDBRANCH  22  23
ENDBRANCH   1  22
TORSDOF 5
ENDMDL
MODEL 6
REMARK VINA RESULT:      -9.7      2.969      5.487
REMARK  5 active torsions:
REMARK  status: ('A' for Active; 'I' for Inactive)
REMARK    1  A    between atoms: C_2  and  N_3 
REMARK    2  A    between atoms: C_10  and  C_11 
REMARK    3  A    between atoms: C_11  and  C_12 
REMARK    4  A    between atoms: C_12  and  C_13 
REMARK       I    between atoms: C_13  and  N_14 
REMARK    5  A    between atoms: N_14  and  C_15 
ROOT
HETATM    1  C   UNL     1      -7.281   1.355 -32.466  1.00  0.00     0.222 C 
HETATM    2  N   UNL     1      -7.194   2.716 -32.682  1.00  0.00    -0.327 N 
HETATM    3  O   UNL     1      -6.327   0.581 -32.448  1.00  0.00    -0.273 OA
HETATM    4  H   UNL     1      -8.041   3.258 -32.600  1.00  0.00     0.169 HD
ENDROOT
BRANCH   2   5
HETATM    5  C   UNL     1      -6.039   3.473 -32.980  1.00  0.00     0.035 A 
HETATM    6  C   UNL     1      -4.890   3.515 -32.191  1.00  0.00     0.049 A 
HETATM    7  C   UNL     1      -3.787   4.329 -32.539  1.00  0.00     0.061 A 
HETATM    8  C   UNL     1      -3.842   5.112 -33.701  1.00  0.00     0.050 A 
HETATM    9  C   UNL     1      -2.572   4.157 -31.699  1.00  0.00     0.256 C 
HETATM   10  N   UNL     1      -2.861   6.010 -34.150  1.00  0.00    -0.324 N 
HETATM   11  C   UNL     1      -4.972   5.012 -34.525  1.00  0.00     0.033 A 
HETATM   12  C   UNL     1      -1.972   6.744 -33.415  1.00  0.00     0.245 C 
HETATM   13  H   UNL     1      -2.909   6.335 -35.110  1.00  0.00     0.169 HD
HETATM   14  O   UNL     1      -1.318   7.611 -33.999  1.00  0.00    -0.271 OA
HETATM   15  C   UNL     1      -1.992   6.600 -31.896  1.00  0.00     0.180 C 
HETATM   16  N   UNL     1      -1.730   5.225 -31.507  1.00  0.00    -0.334 N 
HETATM   17  C   UNL     1      -0.877   7.409 -31.220  1.00  0.00     0.037 C 
HETATM   18  C   UNL     1      -0.603   5.137 -30.594  1.00  0.00     0.127 C 
HETATM   19  C   UNL     1      -0.475   6.543 -30.035  1.00  0.00     0.022 C 
HETATM   20  C   UNL     1      -6.062   4.215 -34.162  1.00  0.00     0.032 A 
HETATM   21  O   UNL     1      -2.350   3.057 -31.198  1.00  0.00    -0.267 OA
ENDBRANCH   2   5
BRANCH   1  22
HETATM   22  C   UNL     1      -8.674   0.807 -32.167  1.00  0.00     0.108 C 
BRANCH  22  23
HETATM   23  C   UNL     1      -9.517   0.366 -33.358  1.00  0.00     0.050 C 
BRANCH  23  24
HETATM   24  C   UNL     1     -10.754   1.176 -33.608  1.00  0.00    -0.030 A 
HETATM   25  C   UNL     1     -10.776   2.509 -34.135  1.00  0.00    -0.002 A 
HETATM   26  C   UNL     1     -12.113   2.910 -34.240  1.00  0.00     0.045 A 
HETATM   27  C   UNL     1      -9.764   3.407 -34.537  1.00  0.00     0.014 A 
HETATM   28  N   UNL     1     -12.883   1.854 -33.791  1.00  0.00    -0.352 N 
HETATM   29  C   UNL     1     -12.464   4.179 -34.733  1.00  0.00     0.030 A 
HETATM   30  C   UNL     1     -12.070   0.815 -33.406  1.00  0.00     0.099 A 
HETATM   31  C   UNL     1     -11.442   5.048 -35.123  1.00  0.00     0.002 A 
HETATM   32  C   UNL     1     -10.107   4.671 -35.027  1.00  0.00     0.001 A 
BRANCH  28  33
HETATM   33  C   UNL     1     -14.346   1.821 -33.739  1.00  0.00     0.081 C 
HETATM   34  C   UNL     1     -14.868   2.116 -32.332  1.00  0.00     0.032 C 
HETATM   35  C   UNL     1     -14.897   0.499 -34.276  1.00  0.00     0.032 C 
ENDBRANCH  28  33
ENDBRANCH  23  24
ENDBRANCH  22  23
ENDBRANCH   1  22
TORSDOF 5
ENDMDL
MODEL 7
REMARK VINA RESULT:      -9.7      1.443      1.504
REMARK  5 active torsions:
REMARK  status: ('A' for Active; 'I' for Inactive)
REMARK    1  A    between atoms: C_2  and  N_3 
REMARK    2  A    between atoms: C_10  and  C_11 
REMARK    3  A    between atoms: C_11  and  C_12 
REMARK    4  A    between atoms: C_12  and  C_13 
REMARK       I    between atoms: C_13  and  N_14 
REMARK    5  A    between atoms: N_14  and  C_15 
ROOT
HETATM    1  C   UNL     1      -7.074   2.510 -33.427  1.00  0.00     0.222 C 
HETATM    2  N   UNL     1      -6.896   3.326 -32.328  1.00  0.00    -0.327 N 
HETATM    3  O   UNL     1      -6.382   2.532 -34.443  1.00  0.00    -0.273 OA
HETATM    4  H   UNL     1      -7.483   3.164 -31.524  1.00  0.00     0.169 HD
ENDROOT
BRANCH   2   5
HETATM    5  C   UNL     1      -5.955   4.368 -32.167  1.00  0.00     0.035 A 
HETATM    6  C   UNL     1      -4.613   4.183 -31.836  1.00  0.00     0.049 A 
HETATM    7  C   UNL     1      -3.740   5.281 -31.656  1.00  0.00     0.061 A 
HETATM    8  C   UNL     1      -4.228   6.586 -31.811  1.00  0.00     0.050 A 
HETATM    9  C   UNL     1      -2.306   4.937 -31.464  1.00  0.00     0.256 C 
HETATM   10  N   UNL     1      -3.509   7.776 -31.610  1.00  0.00    -0.324 N 
HETATM   11  C   UNL     1      -5.560   6.762 -32.211  1.00  0.00     0.033 A 
HETATM   12  C   UNL     1      -2.471   8.014 -30.753  1.00  0.00     0.245 C 
HETATM   13  H   UNL     1      -3.894   8.639 -31.977  1.00  0.00     0.169 HD
HETATM   14  O   UNL     1      -2.103   9.181 -30.602  1.00  0.00    -0.271 OA
HETATM   15  C   UNL     1      -1.973   6.866 -29.878  1.00  0.00     0.180 C 
HETATM   16  N   UNL     1      -1.514   5.757 -30.698  1.00  0.00    -0.334 N 
HETATM   17  C   UNL     1      -0.746   7.259 -29.044  1.00  0.00     0.037 C 
HETATM   18  C   UNL     1      -0.143   5.394 -30.382  1.00  0.00     0.127 C 
HETATM   19  C   UNL     1       0.080   5.982 -28.999  1.00  0.00     0.022 C 
HETATM   20  C   UNL     1      -6.416   5.669 -32.372  1.00  0.00     0.032 A 
HETATM   21  O   UNL     1      -1.864   3.923 -32.000  1.00  0.00    -0.267 OA
ENDBRANCH   2   5
BRANCH   1  22
HETATM   22  C   UNL     1      -8.182   1.466 -33.320  1.00  0.00     0.108 C 
BRANCH  22  23
HETATM   23  C   UNL     1      -7.907   0.250 -32.442  1.00  0.00     0.050 C 
BRANCH  23  24
HETATM   24  C   UNL     1      -6.731  -0.587 -32.848  1.00  0.00    -0.030 A 
HETATM   25  C   UNL     1      -5.406  -0.464 -32.315  1.00  0.00    -0.002 A 
HETATM   26  C   UNL     1      -4.602  -1.430 -32.930  1.00  0.00     0.045 A 
HETATM   27  C   UNL     1      -4.826   0.389 -31.351  1.00  0.00     0.014 A 
HETATM   28  N   UNL     1      -5.411  -2.121 -33.812  1.00  0.00    -0.352 N 
HETATM   29  C   UNL     1      -3.239  -1.565 -32.611  1.00  0.00     0.030 A 
HETATM   30  C   UNL     1      -6.687  -1.613 -33.769  1.00  0.00     0.099 A 
HETATM   31  C   UNL     1      -2.691  -0.707 -31.654  1.00  0.00     0.002 A 
HETATM   32  C   UNL     1      -3.471   0.260 -31.031  1.00  0.00     0.001 A 
BRANCH  28  33
HETATM   33  C   UNL     1      -4.995  -3.239 -34.662  1.00  0.00     0.081 C 
HETATM   34  C   UNL     1      -6.197  -3.978 -35.251  1.00  0.00     0.032 C 
HETATM   35  C   UNL     1      -4.058  -4.193 -33.919  1.00  0.00     0.032 C 
ENDBRANCH  28  33
ENDBRANCH  23  24
ENDBRANCH  22  23
ENDBRANCH   1  22
TORSDOF 5
ENDMDL
MODEL 8
REMARK VINA RESULT:      -9.6      1.739      2.892
REMARK  5 active torsions:
REMARK  status: ('A' for Active; 'I' for Inactive)
REMARK    1  A    between atoms: C_2  and  N_3 
REMARK    2  A    between atoms: C_10  and  C_11 
REMARK    3  A    between atoms: C_11  and  C_12 
REMARK    4  A    between atoms: C_12  and  C_13 
REMARK       I    between atoms: C_13  and  N_14 
REMARK    5  A    between atoms: N_14  and  C_15 
ROOT
HETATM    1  C   UNL     1      -7.301   1.889 -31.887  1.00  0.00     0.222 C 
HETATM    2  N   UNL     1      -6.522   2.610 -32.770  1.00  0.00    -0.327 N 
HETATM    3  O   UNL     1      -7.534   2.212 -30.724  1.00  0.00    -0.273 OA
HETATM    4  H   UNL     1      -6.465   2.281 -33.722  1.00  0.00     0.169 HD
ENDROOT
BRANCH   2   5
HETATM    5  C   UNL     1      -5.800   3.798 -32.515  1.00  0.00     0.035 A 
HETATM    6  C   UNL     1      -4.464   3.847 -32.119  1.00  0.00     0.049 A 
HETATM    7  C   UNL     1      -3.820   5.077 -31.847  1.00  0.00     0.061 A 
HETATM    8  C   UNL     1      -4.534   6.276 -31.976  1.00  0.00     0.050 A 
HETATM    9  C   UNL     1      -2.358   4.993 -31.591  1.00  0.00     0.256 C 
HETATM   10  N   UNL     1      -4.060   7.566 -31.689  1.00  0.00    -0.324 N 
HETATM   11  C   UNL     1      -5.856   6.223 -32.441  1.00  0.00     0.033 A 
HETATM   12  C   UNL     1      -3.126   7.948 -30.767  1.00  0.00     0.245 C 
HETATM   13  H   UNL     1      -4.582   8.361 -32.042  1.00  0.00     0.169 HD
HETATM   14  O   UNL     1      -2.989   9.154 -30.550  1.00  0.00    -0.271 OA
HETATM   15  C   UNL     1      -2.464   6.870 -29.913  1.00  0.00     0.180 C 
HETATM   16  N   UNL     1      -1.769   5.906 -30.750  1.00  0.00    -0.334 N 
HETATM   17  C   UNL     1      -1.373   7.440 -28.998  1.00  0.00     0.037 C 
HETATM   18  C   UNL     1      -0.371   5.787 -30.373  1.00  0.00     0.127 C 
HETATM   19  C   UNL     1      -0.326   6.337 -28.958  1.00  0.00     0.022 C 
HETATM   20  C   UNL     1      -6.485   5.001 -32.693  1.00  0.00     0.032 A 
HETATM   21  O   UNL     1      -1.710   4.105 -32.141  1.00  0.00    -0.267 OA
ENDBRANCH   2   5
BRANCH   1  22
HETATM   22  C   UNL     1      -7.964   0.632 -32.444  1.00  0.00     0.108 C 
BRANCH  22  23
HETATM   23  C   UNL     1      -7.383   0.053 -33.729  1.00  0.00     0.050 C 
BRANCH  23  24
HETATM   24  C   UNL     1      -6.226  -0.885 -33.550  1.00  0.00    -0.030 A 
HETATM   25  C   UNL     1      -6.137  -2.203 -34.107  1.00  0.00    -0.002 A 
HETATM   26  C   UNL     1      -4.904  -2.748 -33.732  1.00  0.00     0.045 A 
HETATM   27  C   UNL     1      -7.006  -2.975 -34.908  1.00  0.00     0.014 A 
HETATM   28  N   UNL     1      -4.261  -1.793 -32.969  1.00  0.00    -0.352 N 
HETATM   29  C   UNL     1      -4.518  -4.039 -34.133  1.00  0.00     0.030 A 
HETATM   30  C   UNL     1      -5.054  -0.676 -32.853  1.00  0.00     0.099 A 
HETATM   31  C   UNL     1      -5.398  -4.782 -34.924  1.00  0.00     0.002 A 
HETATM   32  C   UNL     1      -6.628  -4.260 -35.308  1.00  0.00     0.001 A 
BRANCH  28  33
HETATM   33  C   UNL     1      -2.927  -1.923 -32.376  1.00  0.00     0.081 C 
HETATM   34  C   UNL     1      -2.779  -3.234 -31.603  1.00  0.00     0.032 C 
HETATM   35  C   UNL     1      -2.580  -0.715 -31.504  1.00  0.00     0.032 C 
ENDBRANCH  28  33
ENDBRANCH  23  24
ENDBRANCH  22  23
ENDBRANCH   1  22
TORSDOF 5
ENDMDL
MODEL 9
REMARK VINA RESULT:      -9.5      2.454      4.448
REMARK  5 active torsions:
REMARK  status: ('A' for Active; 'I' for Inactive)
REMARK    1  A    between atoms: C_2  and  N_3 
REMARK    2  A    between atoms: C_10  and  C_11 
REMARK    3  A    between atoms: C_11  and  C_12 
REMARK    4  A    between atoms: C_12  and  C_13 
REMARK       I    between atoms: C_13  and  N_14 
REMARK    5  A    between atoms: N_14  and  C_15 
ROOT
HETATM    1  C   UNL     1      -3.384   2.973 -31.596  1.00  0.00     0.222 C 
HETATM    2  N   UNL     1      -2.448   3.873 -32.064  1.00  0.00    -0.327 N 
HETATM    3  O   UNL     1      -4.312   3.249 -30.839  1.00  0.00    -0.273 OA
HETATM    4  H   UNL     1      -1.776   3.542 -32.740  1.00  0.00     0.169 HD
ENDROOT
BRANCH   2   5
HETATM    5  C   UNL     1      -2.322   5.241 -31.735  1.00  0.00     0.035 A 
HETATM    6  C   UNL     1      -1.509   5.743 -30.719  1.00  0.00     0.049 A 
HETATM    7  C   UNL     1      -1.466   7.126 -30.426  1.00  0.00     0.061 A 
HETATM    8  C   UNL     1      -2.255   8.017 -31.167  1.00  0.00     0.050 A 
HETATM    9  C   UNL     1      -0.442   7.540 -29.430  1.00  0.00     0.256 C 
HETATM   10  N   UNL     1      -2.368   9.402 -30.963  1.00  0.00    -0.324 N 
HETATM   11  C   UNL     1      -3.016   7.513 -32.232  1.00  0.00     0.033 A 
HETATM   12  C   UNL     1      -2.252  10.107 -29.798  1.00  0.00     0.245 C 
HETATM   13  H   UNL     1      -2.777   9.965 -31.700  1.00  0.00     0.169 HD
HETATM   14  O   UNL     1      -2.570  11.298 -29.810  1.00  0.00    -0.271 OA
HETATM   15  C   UNL     1      -1.946   9.341 -28.513  1.00  0.00     0.180 C 
HETATM   16  N   UNL     1      -0.684   8.629 -28.628  1.00  0.00    -0.334 N 
HETATM   17  C   UNL     1      -1.750  10.276 -27.311  1.00  0.00     0.037 C 
HETATM   18  C   UNL     1       0.230   8.992 -27.559  1.00  0.00     0.127 C 
HETATM   19  C   UNL     1      -0.673   9.581 -26.490  1.00  0.00     0.022 C 
HETATM   20  C   UNL     1      -3.061   6.143 -32.502  1.00  0.00     0.032 A 
HETATM   21  O   UNL     1       0.601   6.894 -29.350  1.00  0.00    -0.267 OA
ENDBRANCH   2   5
BRANCH   1  22
HETATM   22  C   UNL     1      -3.272   1.546 -32.126  1.00  0.00     0.108 C 
BRANCH  22  23
HETATM   23  C   UNL     1      -4.109   0.479 -31.429  1.00  0.00     0.050 C 
BRANCH  23  24
HETATM   24  C   UNL     1      -5.290  -0.024 -32.205  1.00  0.00    -0.030 A 
HETATM   25  C   UNL     1      -5.273  -1.143 -33.101  1.00  0.00    -0.002 A 
HETATM   26  C   UNL     1      -6.566  -1.306 -33.612  1.00  0.00     0.045 A 
HETATM   27  C   UNL     1      -4.261  -2.036 -33.516  1.00  0.00     0.014 A 
HETATM   28  N   UNL     1      -7.347  -0.318 -33.045  1.00  0.00    -0.352 N 
HETATM   29  C   UNL     1      -6.873  -2.333 -34.523  1.00  0.00     0.030 A 
HETATM   30  C   UNL     1      -6.583   0.456 -32.205  1.00  0.00     0.099 A 
HETATM   31  C   UNL     1      -5.852  -3.202 -34.916  1.00  0.00     0.002 A 
HETATM   32  C   UNL     1      -4.561  -3.057 -34.422  1.00  0.00     0.001 A 
BRANCH  28  33
HETATM   33  C   UNL     1      -8.779  -0.117 -33.278  1.00  0.00     0.081 C 
HETATM   34  C   UNL     1      -9.034   0.793 -34.480  1.00  0.00     0.032 C 
HETATM   35  C   UNL     1      -9.486   0.400 -32.023  1.00  0.00     0.032 C 
ENDBRANCH  28  33
ENDBRANCH  23  24
ENDBRANCH  22  23
ENDBRANCH   1  22
TORSDOF 5
ENDMDL
MODEL 10
REMARK VINA RESULT:      -9.3      3.193      9.173
REMARK  5 active torsions:
REMARK  status: ('A' for Active; 'I' for Inactive)
REMARK    1  A    between atoms: C_2  and  N_3 
REMARK    2  A    between atoms: C_10  and  C_11 
REMARK    3  A    between atoms: C_11  and  C_12 
REMARK    4  A    between atoms: C_12  and  C_13 
REMARK       I    between atoms: C_13  and  N_14 
REMARK    5  A    between atoms: N_14  and  C_15 
ROOT
HETATM    1  C   UNL     1      -6.091   6.547 -28.277  1.00  0.00     0.222 C 
HETATM    2  N   UNL     1      -6.507   6.159 -29.535  1.00  0.00    -0.327 N 
HETATM    3  O   UNL     1      -6.158   5.851 -27.266  1.00  0.00    -0.273 OA
HETATM    4  H   UNL     1      -6.333   6.791 -30.302  1.00  0.00     0.169 HD
ENDROOT
BRANCH   2   5
HETATM    5  C   UNL     1      -7.133   4.948 -29.904  1.00  0.00     0.035 A 
HETATM    6  C   UNL     1      -6.460   3.765 -30.210  1.00  0.00     0.049 A 
HETATM    7  C   UNL     1      -7.158   2.601 -30.609  1.00  0.00     0.061 A 
HETATM    8  C   UNL     1      -8.557   2.630 -30.701  1.00  0.00     0.050 A 
HETATM    9  C   UNL     1      -6.332   1.373 -30.749  1.00  0.00     0.256 C 
HETATM   10  N   UNL     1      -9.387   1.584 -31.134  1.00  0.00    -0.324 N 
HETATM   11  C   UNL     1      -9.231   3.801 -30.326  1.00  0.00     0.033 A 
HETATM   12  C   UNL     1      -9.113   0.592 -32.035  1.00  0.00     0.245 C 
HETATM   13  H   UNL     1     -10.380   1.642 -30.935  1.00  0.00     0.169 HD
HETATM   14  O   UNL     1     -10.047  -0.120 -32.410  1.00  0.00    -0.271 OA
HETATM   15  C   UNL     1      -7.730   0.557 -32.679  1.00  0.00     0.180 C 
HETATM   16  N   UNL     1      -6.696   0.418 -31.667  1.00  0.00    -0.334 N 
HETATM   17  C   UNL     1      -7.542  -0.665 -33.588  1.00  0.00     0.037 C 
HETATM   18  C   UNL     1      -5.851  -0.735 -31.926  1.00  0.00     0.127 C 
HETATM   19  C   UNL     1      -6.078  -1.031 -33.398  1.00  0.00     0.022 C 
HETATM   20  C   UNL     1      -8.528   4.949 -29.948  1.00  0.00     0.032 A 
HETATM   21  O   UNL     1      -5.340   1.242 -30.034  1.00  0.00    -0.267 OA
ENDBRANCH   2   5
BRANCH   1  22
HETATM   22  C   UNL     1      -5.445   7.926 -28.175  1.00  0.00     0.108 C 
BRANCH  22  23
HETATM   23  C   UNL     1      -4.601   8.385 -29.358  1.00  0.00     0.050 C 
BRANCH  23  24
HETATM   24  C   UNL     1      -3.197   7.859 -29.394  1.00  0.00    -0.030 A 
HETATM   25  C   UNL     1      -2.423   7.651 -30.582  1.00  0.00    -0.002 A 
HETATM   26  C   UNL     1      -1.165   7.172 -30.199  1.00  0.00     0.045 A 
HETATM   27  C   UNL     1      -2.689   7.839 -31.956  1.00  0.00     0.014 A 
HETATM   28  N   UNL     1      -1.172   7.089 -28.820  1.00  0.00    -0.352 N 
HETATM   29  C   UNL     1      -0.170   6.875 -31.148  1.00  0.00     0.030 A 
HETATM   30  C   UNL     1      -2.392   7.495 -28.335  1.00  0.00     0.099 A 
HETATM   31  C   UNL     1      -0.461   7.069 -32.501  1.00  0.00     0.002 A 
HETATM   32  C   UNL     1      -1.704   7.545 -32.903  1.00  0.00     0.001 A 
BRANCH  28  33
HETATM   33  C   UNL     1      -0.053   6.651 -27.981  1.00  0.00     0.081 C 
HETATM   34  C   UNL     1      -0.528   6.196 -26.600  1.00  0.00     0.032 C 
HETATM   35  C   UNL     1       1.026   7.730 -27.876  1.00  0.00     0.032 C 
ENDBRANCH  28  33
ENDBRANCH  23  24
ENDBRANCH  22  23
ENDBRANCH   1  22
TORSDOF 5
ENDMDL
