MODEL 1
REMARK VINA RESULT:      -9.2      0.000      0.000
REMARK  8 active torsions:
REMARK  status: ('A' for Active; 'I' for Inactive)
REMARK    1  A    between atoms: O_2  and  C_3 
REMARK    2  A    between atoms: C_5  and  O_6 
REMARK    3  A    between atoms: C_9  and  N_10 
REMARK       I    between atoms: N_10  and  C_11 
REMARK       I    between atoms: C_11  and  N_12 
REMARK    4  A    between atoms: N_12  and  C_13 
REMARK    5  A    between atoms: C_16  and  N_17 
REMARK    6  A    between atoms: N_20  and  C_22 
REMARK    7  A    between atoms: C_22  and  C_23 
REMARK    8  A    between atoms: C_25  and  C_26 
ROOT
HETATM    1  C   UNL     1       0.024   6.721 -29.695  1.00  0.00     0.054 A 
HETATM    2  C   UNL     1       0.385   5.415 -29.996  1.00  0.00     0.148 A 
HETATM    3  N   UNL     1      -0.351   4.572 -30.776  1.00  0.00    -0.241 NA
HETATM    4  C   UNL     1      -1.517   5.014 -31.291  1.00  0.00     0.125 A 
HETATM    5  C   UNL     1      -1.918   6.332 -31.077  1.00  0.00     0.052 A 
HETATM    6  C   UNL     1      -1.146   7.187 -30.283  1.00  0.00     0.035 A 
ENDROOT
BRANCH   4   7
HETATM    7  N   UNL     1      -2.332   4.100 -31.953  1.00  0.00    -0.364 N 
HETATM    8  C   UNL     1      -2.773   4.499 -33.294  1.00  0.00     0.152 C 
HETATM    9  C   UNL     1      -4.279   4.801 -33.392  1.00  0.00     0.255 C 
HETATM   10  N   UNL     1      -5.067   3.501 -33.217  1.00  0.00    -0.066 N 
HETATM   11  H   UNL     1      -4.403   2.755 -33.455  1.00  0.00     0.280 HD
HETATM   12  C   UNL     1      -5.485   3.230 -31.799  1.00  0.00     0.237 C 
HETATM   13  C   UNL     1      -4.378   3.428 -30.767  1.00  0.00     0.047 C 
HETATM   14  C   UNL     1      -2.981   3.016 -31.222  1.00  0.00     0.126 C 
BRANCH  10  15
HETATM   15  C   UNL     1      -6.168   3.299 -34.238  1.00  0.00     0.273 C 
BRANCH  15  16
HETATM   16  C   UNL     1      -6.988   2.042 -34.116  1.00  0.00    -0.032 A 
HETATM   17  C   UNL     1      -6.371   0.780 -34.193  1.00  0.00     0.025 A 
HETATM   18  C   UNL     1      -7.122  -0.406 -34.105  1.00  0.00     0.048 A 
HETATM   19  C   UNL     1      -8.510  -0.315 -33.943  1.00  0.00     0.016 A 
HETATM   20  C   UNL     1      -9.134   0.930 -33.871  1.00  0.00     0.001 A 
HETATM   21  C   UNL     1      -8.379   2.100 -33.958  1.00  0.00     0.009 A 
BRANCH  18  22
HETATM   22  C   UNL     1      -6.461  -1.764 -34.199  1.00  0.00     0.417 C 
HETATM   23  F   UNL     1      -5.456  -1.920 -33.291  1.00  0.00    -0.166 F 
HETATM   24  F   UNL     1      -7.332  -2.781 -33.972  1.00  0.00    -0.166 F 
HETATM   25  F   UNL     1      -5.907  -1.991 -35.419  1.00  0.00    -0.166 F 
ENDBRANCH  18  22
ENDBRANCH  15  16
ENDBRANCH  10  15
ENDBRANCH   4   7
BRANCH   1  26
HETATM   26  N   UNL     1       0.719   7.594 -28.831  1.00  0.00    -0.307 N 
HETATM   27  C   UNL     1       0.689   7.584 -27.443  1.00  0.00     0.325 C 
HETATM   28  N   UNL     1       1.453   8.622 -26.932  1.00  0.00    -0.309 N 
HETATM   29  O   UNL     1       0.053   6.776 -26.779  1.00  0.00    -0.247 OA
HETATM   30  H   UNL     1       2.050   9.110 -27.584  1.00  0.00     0.170 HD
HETATM   31  H   UNL     1       1.161   8.392 -29.262  1.00  0.00     0.170 HD
BRANCH  28  32
HETATM   32  C   UNL     1       1.583   9.023 -25.582  1.00  0.00     0.041 A 
HETATM   33  C   UNL     1       0.598   9.722 -24.872  1.00  0.00     0.066 A 
HETATM   34  C   UNL     1       0.800  10.078 -23.532  1.00  0.00     0.073 A 
HETATM   35  C   UNL     1       2.002   9.754 -22.905  1.00  0.00     0.073 A 
HETATM   36  C   UNL     1       2.994   9.088 -23.617  1.00  0.00     0.073 A 
HETATM   37  C   UNL     1       2.786   8.704 -24.940  1.00  0.00     0.066 A 
BRANCH  34  38
HETATM   38  O   UNL     1      -0.093  10.743 -22.736  1.00  0.00    -0.356 OA
HETATM   39  C   UNL     1      -1.433  10.835 -23.208  1.00  0.00     0.210 C 
ENDBRANCH  34  38
BRANCH  36  40
HETATM   40  O   UNL     1       4.158   8.731 -22.990  1.00  0.00    -0.356 OA
HETATM   41  C   UNL     1       3.874   7.905 -21.860  1.00  0.00     0.210 C 
ENDBRANCH  36  40
ENDBRANCH  28  32
ENDBRANCH   1  26
TORSDOF 8
ENDMDL
MODEL 2
REMARK VINA RESULT:      -9.2      0.407      1.983
REMARK  8 active torsions:
REMARK  status: ('A' for Active; 'I' for Inactive)
REMARK    1  A    between atoms: O_2  and  C_3 
REMARK    2  A    between atoms: C_5  and  O_6 
REMARK    3  A    between atoms: C_9  and  N_10 
REMARK       I    between atoms: N_10  and  C_11 
REMARK       I    between atoms: C_11  and  N_12 
REMARK    4  A    between atoms: N_12  and  C_13 
REMARK    5  A    between atoms: C_16  and  N_17 
REMARK    6  A    between atoms: N_20  and  C_22 
REMARK    7  A    between atoms: C_22  and  C_23 
REMARK    8  A    between atoms: C_25  and  C_26 
ROOT
HETATM    1  C   UNL     1       0.060   6.709 -29.999  1.00  0.00     0.054 A 
HETATM    2  C   UNL     1       0.303   5.347 -30.107  1.00  0.00     0.148 A 
HETATM    3  N   UNL     1      -0.453   4.485 -30.847  1.00  0.00    -0.241 NA
HETATM    4  C   UNL     1      -1.519   4.968 -31.517  1.00  0.00     0.125 A 
HETATM    5  C   UNL     1      -1.793   6.334 -31.501  1.00  0.00     0.052 A 
HETATM    6  C   UNL     1      -1.002   7.206 -30.745  1.00  0.00     0.035 A 
ENDROOT
BRANCH   4   7
HETATM    7  N   UNL     1      -2.370   4.059 -32.139  1.00  0.00    -0.364 N 
HETATM    8  C   UNL     1      -2.888   4.468 -33.450  1.00  0.00     0.152 C 
HETATM    9  C   UNL     1      -4.397   4.770 -33.459  1.00  0.00     0.255 C 
HETATM   10  N   UNL     1      -5.173   3.468 -33.251  1.00  0.00    -0.066 N 
HETATM   11  H   UNL     1      -4.524   2.725 -33.532  1.00  0.00     0.280 HD
HETATM   12  C   UNL     1      -5.510   3.184 -31.813  1.00  0.00     0.237 C 
HETATM   13  C   UNL     1      -4.345   3.375 -30.844  1.00  0.00     0.047 C 
HETATM   14  C   UNL     1      -2.977   2.968 -31.382  1.00  0.00     0.126 C 
BRANCH  10  15
HETATM   15  C   UNL     1      -6.331   3.273 -34.209  1.00  0.00     0.273 C 
BRANCH  15  16
HETATM   16  C   UNL     1      -7.114   1.995 -34.080  1.00  0.00    -0.032 A 
HETATM   17  C   UNL     1      -6.465   0.750 -34.175  1.00  0.00     0.025 A 
HETATM   18  C   UNL     1      -7.182  -0.456 -34.082  1.00  0.00     0.048 A 
HETATM   19  C   UNL     1      -8.568  -0.405 -33.895  1.00  0.00     0.016 A 
HETATM   20  C   UNL     1      -9.225   0.822 -33.805  1.00  0.00     0.001 A 
HETATM   21  C   UNL     1      -8.503   2.013 -33.898  1.00  0.00     0.009 A 
BRANCH  18  22
HETATM   22  C   UNL     1      -6.485  -1.795 -34.195  1.00  0.00     0.417 C 
HETATM   23  F   UNL     1      -5.923  -1.991 -35.421  1.00  0.00    -0.166 F 
HETATM   24  F   UNL     1      -5.476  -1.931 -33.295  1.00  0.00    -0.166 F 
HETATM   25  F   UNL     1      -7.329  -2.841 -33.994  1.00  0.00    -0.166 F 
ENDBRANCH  18  22
ENDBRANCH  15  16
ENDBRANCH  10  15
ENDBRANCH   4   7
BRANCH   1  26
HETATM   26  N   UNL     1       0.772   7.615 -29.183  1.00  0.00    -0.307 N 
HETATM   27  C   UNL     1       0.761   7.665 -27.796  1.00  0.00     0.325 C 
HETATM   28  N   UNL     1       1.537   8.720 -27.341  1.00  0.00    -0.309 N 
HETATM   29  O   UNL     1       0.130   6.890 -27.089  1.00  0.00    -0.247 OA
HETATM   30  H   UNL     1       2.127   9.176 -28.022  1.00  0.00     0.170 HD
HETATM   31  H   UNL     1       1.211   8.391 -29.655  1.00  0.00     0.170 HD
BRANCH  28  32
HETATM   32  C   UNL     1       1.689   9.179 -26.012  1.00  0.00     0.041 A 
HETATM   33  C   UNL     1       2.734   8.792 -25.164  1.00  0.00     0.066 A 
HETATM   34  C   UNL     1       2.821   9.296 -23.860  1.00  0.00     0.073 A 
HETATM   35  C   UNL     1       1.844  10.175 -23.393  1.00  0.00     0.073 A 
HETATM   36  C   UNL     1       0.788  10.536 -24.223  1.00  0.00     0.073 A 
HETATM   37  C   UNL     1       0.715  10.062 -25.531  1.00  0.00     0.066 A 
BRANCH  34  38
HETATM   38  O   UNL     1       3.802   9.005 -22.950  1.00  0.00    -0.356 OA
HETATM   39  C   UNL     1       3.434   8.180 -21.849  1.00  0.00     0.210 C 
ENDBRANCH  34  38
BRANCH  36  40
HETATM   40  O   UNL     1      -0.148  11.432 -23.781  1.00  0.00    -0.356 OA
HETATM   41  C   UNL     1      -0.836  10.904 -22.645  1.00  0.00     0.210 C 
ENDBRANCH  36  40
ENDBRANCH  28  32
ENDBRANCH   1  26
TORSDOF 8
ENDMDL
MODEL 3
REMARK VINA RESULT:      -8.6      8.400     12.181
REMARK  8 active torsions:
REMARK  status: ('A' for Active; 'I' for Inactive)
REMARK    1  A    between atoms: O_2  and  C_3 
REMARK    2  A    between atoms: C_5  and  O_6 
REMARK    3  A    between atoms: C_9  and  N_10 
REMARK       I    between atoms: N_10  and  C_11 
REMARK       I    between atoms: C_11  and  N_12 
REMARK    4  A    between atoms: N_12  and  C_13 
REMARK    5  A    between atoms: C_16  and  N_17 
REMARK    6  A    between atoms: N_20  and  C_22 
REMARK    7  A    between atoms: C_22  and  C_23 
REMARK    8  A    between atoms: C_25  and  C_26 
ROOT
HETATM    1  C   UNL     1      -8.450   5.642 -33.323  1.00  0.00     0.054 A 
HETATM    2  C   UNL     1      -7.075   5.516 -33.467  1.00  0.00     0.148 A 
HETATM    3  N   UNL     1      -6.328   4.528 -32.894  1.00  0.00    -0.241 NA
HETATM    4  C   UNL     1      -6.945   3.608 -32.126  1.00  0.00     0.125 A 
HETATM    5  C   UNL     1      -8.331   3.638 -31.981  1.00  0.00     0.052 A 
HETATM    6  C   UNL     1      -9.084   4.652 -32.582  1.00  0.00     0.035 A 
ENDROOT
BRANCH   4   7
HETATM    7  N   UNL     1      -6.156   2.701 -31.424  1.00  0.00    -0.364 N 
HETATM    8  C   UNL     1      -4.777   2.556 -31.905  1.00  0.00     0.152 C 
HETATM    9  C   UNL     1      -4.482   1.192 -32.552  1.00  0.00     0.255 C 
HETATM   10  N   UNL     1      -4.515   0.104 -31.476  1.00  0.00    -0.066 N 
HETATM   11  H   UNL     1      -4.352   0.601 -30.593  1.00  0.00     0.280 HD
HETATM   12  C   UNL     1      -5.856  -0.559 -31.323  1.00  0.00     0.237 C 
HETATM   13  C   UNL     1      -7.034   0.410 -31.264  1.00  0.00     0.047 C 
HETATM   14  C   UNL     1      -6.764   1.720 -30.530  1.00  0.00     0.126 C 
BRANCH  10  15
HETATM   15  C   UNL     1      -3.349  -0.861 -31.531  1.00  0.00     0.273 C 
BRANCH  15  16
HETATM   16  C   UNL     1      -3.563  -2.147 -32.283  1.00  0.00    -0.032 A 
HETATM   17  C   UNL     1      -4.465  -2.198 -33.363  1.00  0.00     0.025 A 
HETATM   18  C   UNL     1      -4.698  -3.395 -34.063  1.00  0.00     0.048 A 
HETATM   19  C   UNL     1      -4.016  -4.552 -33.668  1.00  0.00     0.016 A 
HETATM   20  C   UNL     1      -3.124  -4.516 -32.597  1.00  0.00     0.001 A 
HETATM   21  C   UNL     1      -2.900  -3.323 -31.909  1.00  0.00     0.009 A 
BRANCH  18  22
HETATM   22  C   UNL     1      -5.676  -3.453 -35.216  1.00  0.00     0.417 C 
HETATM   23  F   UNL     1      -5.210  -2.821 -36.331  1.00  0.00    -0.166 F 
HETATM   24  F   UNL     1      -5.953  -4.727 -35.597  1.00  0.00    -0.166 F 
HETATM   25  F   UNL     1      -6.867  -2.868 -34.921  1.00  0.00    -0.166 F 
ENDBRANCH  18  22
ENDBRANCH  15  16
ENDBRANCH  10  15
ENDBRANCH   4   7
BRANCH   1  26
HETATM   26  N   UNL     1      -9.243   6.692 -33.834  1.00  0.00    -0.307 N 
HETATM   27  C   UNL     1      -9.872   6.729 -35.070  1.00  0.00     0.325 C 
HETATM   28  N   UNL     1     -10.519   7.942 -35.251  1.00  0.00    -0.309 N 
HETATM   29  O   UNL     1      -9.830   5.817 -35.886  1.00  0.00    -0.247 OA
HETATM   30  H   UNL     1     -10.607   8.534 -34.438  1.00  0.00     0.170 HD
HETATM   31  H   UNL     1      -9.230   7.556 -33.312  1.00  0.00     0.170 HD
BRANCH  28  32
HETATM   32  C   UNL     1     -11.170   8.416 -36.413  1.00  0.00     0.041 A 
HETATM   33  C   UNL     1     -10.510   9.017 -37.493  1.00  0.00     0.066 A 
HETATM   34  C   UNL     1     -11.225   9.455 -38.615  1.00  0.00     0.073 A 
HETATM   35  C   UNL     1     -12.612   9.312 -38.648  1.00  0.00     0.073 A 
HETATM   36  C   UNL     1     -13.274   8.744 -37.564  1.00  0.00     0.073 A 
HETATM   37  C   UNL     1     -12.562   8.278 -36.461  1.00  0.00     0.066 A 
BRANCH  34  38
HETATM   38  O   UNL     1     -10.689  10.039 -39.731  1.00  0.00    -0.356 OA
HETATM   39  C   UNL     1     -10.712  11.461 -39.787  1.00  0.00     0.210 C 
ENDBRANCH  34  38
BRANCH  36  40
HETATM   40  O   UNL     1     -14.629   8.564 -37.614  1.00  0.00    -0.356 OA
HETATM   41  C   UNL     1     -15.112   8.817 -38.935  1.00  0.00     0.210 C 
ENDBRANCH  36  40
ENDBRANCH  28  32
ENDBRANCH   1  26
TORSDOF 8
ENDMDL
MODEL 4
REMARK VINA RESULT:      -8.5      6.389     13.341
REMARK  8 active torsions:
REMARK  status: ('A' for Active; 'I' for Inactive)
REMARK    1  A    between atoms: O_2  and  C_3 
REMARK    2  A    between atoms: C_5  and  O_6 
REMARK    3  A    between atoms: C_9  and  N_10 
REMARK       I    between atoms: N_10  and  C_11 
REMARK       I    between atoms: C_11  and  N_12 
REMARK    4  A    between atoms: N_12  and  C_13 
REMARK    5  A    between atoms: C_16  and  N_17 
REMARK    6  A    between atoms: N_20  and  C_22 
REMARK    7  A    between atoms: C_22  and  C_23 
REMARK    8  A    between atoms: C_25  and  C_26 
ROOT
HETATM    1  C   UNL     1      -4.109   4.807 -31.420  1.00  0.00     0.054 A 
HETATM    2  C   UNL     1      -4.699   5.505 -30.376  1.00  0.00     0.148 A 
HETATM    3  N   UNL     1      -4.065   6.452 -29.626  1.00  0.00    -0.241 NA
HETATM    4  C   UNL     1      -2.774   6.737 -29.894  1.00  0.00     0.125 A 
HETATM    5  C   UNL     1      -2.131   6.116 -30.963  1.00  0.00     0.052 A 
HETATM    6  C   UNL     1      -2.799   5.153 -31.729  1.00  0.00     0.035 A 
ENDROOT
BRANCH   4   7
HETATM    7  N   UNL     1      -2.095   7.588 -29.027  1.00  0.00    -0.364 N 
HETATM    8  C   UNL     1      -0.824   8.123 -29.529  1.00  0.00     0.152 C 
HETATM    9  C   UNL     1       0.415   7.580 -28.795  1.00  0.00     0.255 C 
HETATM   10  N   UNL     1       0.433   8.123 -27.365  1.00  0.00    -0.066 N 
HETATM   11  H   UNL     1      -0.149   8.968 -27.395  1.00  0.00     0.280 HD
HETATM   12  C   UNL     1      -0.227   7.216 -26.362  1.00  0.00     0.237 C 
HETATM   13  C   UNL     1      -1.583   6.672 -26.803  1.00  0.00     0.047 C 
HETATM   14  C   UNL     1      -2.444   7.640 -27.610  1.00  0.00     0.126 C 
BRANCH  10  15
HETATM   15  C   UNL     1       1.776   8.664 -26.921  1.00  0.00     0.273 C 
BRANCH  15  16
HETATM   16  C   UNL     1       1.846   9.270 -25.545  1.00  0.00    -0.032 A 
HETATM   17  C   UNL     1       2.680   8.707 -24.561  1.00  0.00     0.025 A 
HETATM   18  C   UNL     1       2.742   9.244 -23.263  1.00  0.00     0.048 A 
HETATM   19  C   UNL     1       1.951  10.358 -22.955  1.00  0.00     0.016 A 
HETATM   20  C   UNL     1       1.116  10.921 -23.919  1.00  0.00     0.001 A 
HETATM   21  C   UNL     1       1.064  10.381 -25.205  1.00  0.00     0.009 A 
BRANCH  18  22
HETATM   22  C   UNL     1       3.630   8.632 -22.201  1.00  0.00     0.417 C 
HETATM   23  F   UNL     1       2.922   7.957 -21.252  1.00  0.00    -0.166 F 
HETATM   24  F   UNL     1       4.512   7.737 -22.717  1.00  0.00    -0.166 F 
HETATM   25  F   UNL     1       4.363   9.562 -21.535  1.00  0.00    -0.166 F 
ENDBRANCH  18  22
ENDBRANCH  15  16
ENDBRANCH  10  15
ENDBRANCH   4   7
BRANCH   1  26
HETATM   26  N   UNL     1      -4.707   3.767 -32.164  1.00  0.00    -0.307 N 
HETATM   27  C   UNL     1      -4.496   2.405 -32.003  1.00  0.00     0.325 C 
HETATM   28  N   UNL     1      -5.213   1.686 -32.947  1.00  0.00    -0.309 N 
HETATM   29  O   UNL     1      -3.757   1.923 -31.154  1.00  0.00    -0.247 OA
HETATM   30  H   UNL     1      -5.902   2.198 -33.479  1.00  0.00     0.170 HD
HETATM   31  H   UNL     1      -5.223   4.046 -32.986  1.00  0.00     0.170 HD
BRANCH  28  32
HETATM   32  C   UNL     1      -5.177   0.294 -33.192  1.00  0.00     0.041 A 
HETATM   33  C   UNL     1      -6.115  -0.389 -33.978  1.00  0.00     0.066 A 
HETATM   34  C   UNL     1      -6.007  -1.771 -34.181  1.00  0.00     0.073 A 
HETATM   35  C   UNL     1      -4.969  -2.478 -33.575  1.00  0.00     0.073 A 
HETATM   36  C   UNL     1      -4.055  -1.808 -32.769  1.00  0.00     0.073 A 
HETATM   37  C   UNL     1      -4.140  -0.429 -32.591  1.00  0.00     0.066 A 
BRANCH  34  38
HETATM   38  O   UNL     1      -6.850  -2.539 -34.938  1.00  0.00    -0.356 OA
HETATM   39  C   UNL     1      -6.620  -3.944 -34.932  1.00  0.00     0.210 C 
ENDBRANCH  34  38
BRANCH  36  40
HETATM   40  O   UNL     1      -3.011  -2.494 -32.209  1.00  0.00    -0.356 OA
HETATM   41  C   UNL     1      -3.216  -3.901 -32.348  1.00  0.00     0.210 C 
ENDBRANCH  36  40
ENDBRANCH  28  32
ENDBRANCH   1  26
TORSDOF 8
ENDMDL
MODEL 5
REMARK VINA RESULT:      -8.5      3.439      5.411
REMARK  8 active torsions:
REMARK  status: ('A' for Active; 'I' for Inactive)
REMARK    1  A    between atoms: O_2  and  C_3 
REMARK    2  A    between atoms: C_5  and  O_6 
REMARK    3  A    between atoms: C_9  and  N_10 
REMARK       I    between atoms: N_10  and  C_11 
REMARK       I    between atoms: C_11  and  N_12 
REMARK    4  A    between atoms: N_12  and  C_13 
REMARK    5  A    between atoms: C_16  and  N_17 
REMARK    6  A    between atoms: N_20  and  C_22 
REMARK    7  A    between atoms: C_22  and  C_23 
REMARK    8  A    between atoms: C_25  and  C_26 
ROOT
HETATM    1  C   UNL     1      -3.531   5.404 -31.541  1.00  0.00     0.054 A 
HETATM    2  C   UNL     1      -4.610   5.960 -32.215  1.00  0.00     0.148 A 
HETATM    3  N   UNL     1      -5.677   5.249 -32.681  1.00  0.00    -0.241 NA
HETATM    4  C   UNL     1      -5.700   3.914 -32.493  1.00  0.00     0.125 A 
HETATM    5  C   UNL     1      -4.679   3.293 -31.776  1.00  0.00     0.052 A 
HETATM    6  C   UNL     1      -3.596   4.038 -31.297  1.00  0.00     0.035 A 
ENDROOT
BRANCH   4   7
HETATM    7  N   UNL     1      -6.713   3.182 -33.106  1.00  0.00    -0.364 N 
HETATM    8  C   UNL     1      -8.007   3.186 -32.413  1.00  0.00     0.152 C 
HETATM    9  C   UNL     1      -8.394   1.825 -31.806  1.00  0.00     0.255 C 
HETATM   10  N   UNL     1      -8.688   0.834 -32.934  1.00  0.00    -0.066 N 
HETATM   11  H   UNL     1      -8.912   1.418 -33.748  1.00  0.00     0.280 HD
HETATM   12  C   UNL     1      -7.499   0.011 -33.345  1.00  0.00     0.237 C 
HETATM   13  C   UNL     1      -6.215   0.814 -33.543  1.00  0.00     0.047 C 
HETATM   14  C   UNL     1      -6.402   2.204 -34.144  1.00  0.00     0.126 C 
BRANCH  10  15
HETATM   15  C   UNL     1      -9.960   0.034 -32.744  1.00  0.00     0.273 C 
BRANCH  15  16
HETATM   16  C   UNL     1     -11.177   0.498 -33.499  1.00  0.00    -0.032 A 
HETATM   17  C   UNL     1     -11.112   1.639 -34.319  1.00  0.00     0.025 A 
HETATM   18  C   UNL     1     -12.244   2.103 -35.014  1.00  0.00     0.048 A 
HETATM   19  C   UNL     1     -13.452   1.410 -34.875  1.00  0.00     0.016 A 
HETATM   20  C   UNL     1     -13.531   0.281 -34.061  1.00  0.00     0.001 A 
HETATM   21  C   UNL     1     -12.402  -0.172 -33.377  1.00  0.00     0.009 A 
BRANCH  18  22
HETATM   22  C   UNL     1     -12.178   3.337 -35.887  1.00  0.00     0.417 C 
HETATM   23  F   UNL     1     -13.085   4.287 -35.522  1.00  0.00    -0.166 F 
HETATM   24  F   UNL     1     -10.962   3.943 -35.837  1.00  0.00    -0.166 F 
HETATM   25  F   UNL     1     -12.422   3.064 -37.196  1.00  0.00    -0.166 F 
ENDBRANCH  18  22
ENDBRANCH  15  16
ENDBRANCH  10  15
ENDBRANCH   4   7
BRANCH   1  26
HETATM   26  N   UNL     1      -2.376   6.095 -31.115  1.00  0.00    -0.307 N 
HETATM   27  C   UNL     1      -2.184   6.710 -29.886  1.00  0.00     0.325 C 
HETATM   28  N   UNL     1      -0.948   7.336 -29.842  1.00  0.00    -0.309 N 
HETATM   29  O   UNL     1      -3.013   6.711 -28.985  1.00  0.00    -0.247 OA
HETATM   30  H   UNL     1      -0.304   7.120 -30.589  1.00  0.00     0.170 HD
HETATM   31  H   UNL     1      -1.682   6.285 -31.823  1.00  0.00     0.170 HD
BRANCH  28  32
HETATM   32  C   UNL     1      -0.427   8.164 -28.821  1.00  0.00     0.041 A 
HETATM   33  C   UNL     1       0.756   7.896 -28.121  1.00  0.00     0.066 A 
HETATM   34  C   UNL     1       1.212   8.770 -27.125  1.00  0.00     0.073 A 
HETATM   35  C   UNL     1       0.467   9.906 -26.812  1.00  0.00     0.073 A 
HETATM   36  C   UNL     1      -0.724  10.158 -27.483  1.00  0.00     0.073 A 
HETATM   37  C   UNL     1      -1.164   9.308 -28.495  1.00  0.00     0.066 A 
BRANCH  34  38
HETATM   38  O   UNL     1       2.357   8.622 -26.390  1.00  0.00    -0.356 OA
HETATM   39  C   UNL     1       2.226   8.689 -24.974  1.00  0.00     0.210 C 
ENDBRANCH  34  38
BRANCH  36  40
HETATM   40  O   UNL     1      -1.434  11.295 -27.206  1.00  0.00    -0.356 OA
HETATM   41  C   UNL     1      -2.457  11.016 -26.248  1.00  0.00     0.210 C 
ENDBRANCH  36  40
ENDBRANCH  28  32
ENDBRANCH   1  26
TORSDOF 8
ENDMDL
MODEL 6
REMARK VINA RESULT:      -8.4      6.728     13.297
REMARK  8 active torsions:
REMARK  status: ('A' for Active; 'I' for Inactive)
REMARK    1  A    between atoms: O_2  and  C_3 
REMARK    2  A    between atoms: C_5  and  O_6 
REMARK    3  A    between atoms: C_9  and  N_10 
REMARK       I    between atoms: N_10  and  C_11 
REMARK       I    between atoms: C_11  and  N_12 
REMARK    4  A    between atoms: N_12  and  C_13 
REMARK    5  A    between atoms: C_16  and  N_17 
REMARK    6  A    between atoms: N_20  and  C_22 
REMARK    7  A    between atoms: C_22  and  C_23 
REMARK    8  A    between atoms: C_25  and  C_26 
ROOT
HETATM    1  C   UNL     1      -7.782   4.200 -33.603  1.00  0.00     0.054 A 
HETATM    2  C   UNL     1      -6.904   3.130 -33.700  1.00  0.00     0.148 A 
HETATM    3  N   UNL     1      -5.568   3.201 -33.430  1.00  0.00    -0.241 NA
HETATM    4  C   UNL     1      -5.045   4.385 -33.050  1.00  0.00     0.125 A 
HETATM    5  C   UNL     1      -5.875   5.491 -32.877  1.00  0.00     0.052 A 
HETATM    6  C   UNL     1      -7.244   5.398 -33.150  1.00  0.00     0.035 A 
ENDROOT
BRANCH   4   7
HETATM    7  N   UNL     1      -3.662   4.482 -32.928  1.00  0.00    -0.364 N 
HETATM    8  C   UNL     1      -3.175   5.044 -31.663  1.00  0.00     0.152 C 
HETATM    9  C   UNL     1      -2.525   6.432 -31.805  1.00  0.00     0.255 C 
HETATM   10  N   UNL     1      -1.208   6.297 -32.573  1.00  0.00    -0.066 N 
HETATM   11  H   UNL     1      -0.934   5.315 -32.457  1.00  0.00     0.280 HD
HETATM   12  C   UNL     1      -1.345   6.504 -34.056  1.00  0.00     0.237 C 
HETATM   13  C   UNL     1      -2.513   5.754 -34.691  1.00  0.00     0.047 C 
HETATM   14  C   UNL     1      -2.801   4.377 -34.103  1.00  0.00     0.126 C 
BRANCH  10  15
HETATM   15  C   UNL     1      -0.045   7.040 -31.948  1.00  0.00     0.273 C 
BRANCH  15  16
HETATM   16  C   UNL     1       0.287   6.707 -30.518  1.00  0.00    -0.032 A 
HETATM   17  C   UNL     1       0.458   7.733 -29.570  1.00  0.00     0.025 A 
HETATM   18  C   UNL     1       0.792   7.444 -28.235  1.00  0.00     0.048 A 
HETATM   19  C   UNL     1       0.959   6.107 -27.855  1.00  0.00     0.016 A 
HETATM   20  C   UNL     1       0.798   5.081 -28.786  1.00  0.00     0.001 A 
HETATM   21  C   UNL     1       0.466   5.379 -30.108  1.00  0.00     0.009 A 
BRANCH  18  22
HETATM   22  C   UNL     1       0.987   8.547 -27.218  1.00  0.00     0.417 C 
HETATM   23  F   UNL     1       0.731   8.135 -25.943  1.00  0.00    -0.166 F 
HETATM   24  F   UNL     1       2.259   9.023 -27.208  1.00  0.00    -0.166 F 
HETATM   25  F   UNL     1       0.174   9.613 -27.441  1.00  0.00    -0.166 F 
ENDBRANCH  18  22
ENDBRANCH  15  16
ENDBRANCH  10  15
ENDBRANCH   4   7
BRANCH   1  26
HETATM   26  N   UNL     1      -9.150   4.182 -33.950  1.00  0.00    -0.307 N 
HETATM   27  C   UNL     1     -10.204   3.776 -33.144  1.00  0.00     0.325 C 
HETATM   28  N   UNL     1     -11.403   3.845 -33.837  1.00  0.00    -0.309 N 
HETATM   29  O   UNL     1     -10.073   3.392 -31.988  1.00  0.00    -0.247 OA
HETATM   30  H   UNL     1     -11.387   4.329 -34.723  1.00  0.00     0.170 HD
HETATM   31  H   UNL     1      -9.367   4.340 -34.923  1.00  0.00     0.170 HD
BRANCH  28  32
HETATM   32  C   UNL     1     -12.680   3.411 -33.413  1.00  0.00     0.041 A 
HETATM   33  C   UNL     1     -13.581   4.208 -32.696  1.00  0.00     0.066 A 
HETATM   34  C   UNL     1     -14.834   3.708 -32.317  1.00  0.00     0.073 A 
HETATM   35  C   UNL     1     -15.178   2.395 -32.635  1.00  0.00     0.073 A 
HETATM   36  C   UNL     1     -14.272   1.591 -33.319  1.00  0.00     0.073 A 
HETATM   37  C   UNL     1     -13.039   2.094 -33.726  1.00  0.00     0.066 A 
BRANCH  34  38
HETATM   38  O   UNL     1     -15.800   4.397 -31.632  1.00  0.00    -0.356 OA
HETATM   39  C   UNL     1     -15.401   5.610 -31.005  1.00  0.00     0.210 C 
ENDBRANCH  34  38
BRANCH  36  40
HETATM   40  O   UNL     1     -14.625   0.316 -33.669  1.00  0.00    -0.356 OA
HETATM   41  C   UNL     1     -13.489  -0.548 -33.593  1.00  0.00     0.210 C 
ENDBRANCH  36  40
ENDBRANCH  28  32
ENDBRANCH   1  26
TORSDOF 8
ENDMDL
MODEL 7
REMARK VINA RESULT:      -8.3      8.484     12.943
REMARK  8 active torsions:
REMARK  status: ('A' for Active; 'I' for Inactive)
REMARK    1  A    between atoms: O_2  and  C_3 
REMARK    2  A    between atoms: C_5  and  O_6 
REMARK    3  A    between atoms: C_9  and  N_10 
REMARK       I    between atoms: N_10  and  C_11 
REMARK       I    between atoms: C_11  and  N_12 
REMARK    4  A    between atoms: N_12  and  C_13 
REMARK    5  A    between atoms: C_16  and  N_17 
REMARK    6  A    between atoms: N_20  and  C_22 
REMARK    7  A    between atoms: C_22  and  C_23 
REMARK    8  A    between atoms: C_25  and  C_26 
ROOT
HETATM    1  C   UNL     1     -10.762   4.024 -32.009  1.00  0.00     0.054 A 
HETATM    2  C   UNL     1     -10.272   2.733 -32.145  1.00  0.00     0.148 A 
HETATM    3  N   UNL     1      -8.982   2.368 -31.894  1.00  0.00    -0.241 NA
HETATM    4  C   UNL     1      -8.105   3.311 -31.495  1.00  0.00     0.125 A 
HETATM    5  C   UNL     1      -8.537   4.619 -31.283  1.00  0.00     0.052 A 
HETATM    6  C   UNL     1      -9.866   4.976 -31.537  1.00  0.00     0.035 A 
ENDROOT
BRANCH   4   7
HETATM    7  N   UNL     1      -6.762   2.959 -31.392  1.00  0.00    -0.364 N 
HETATM    8  C   UNL     1      -6.057   2.768 -32.665  1.00  0.00     0.152 C 
HETATM    9  C   UNL     1      -5.662   1.307 -32.946  1.00  0.00     0.255 C 
HETATM   10  N   UNL     1      -4.572   0.880 -31.960  1.00  0.00    -0.066 N 
HETATM   11  H   UNL     1      -4.145   1.757 -31.642  1.00  0.00     0.280 HD
HETATM   12  C   UNL     1      -5.102   0.217 -30.719  1.00  0.00     0.237 C 
HETATM   13  C   UNL     1      -6.277   0.945 -30.069  1.00  0.00     0.047 C 
HETATM   14  C   UNL     1      -6.216   2.468 -30.131  1.00  0.00     0.126 C 
BRANCH  10  15
HETATM   15  C   UNL     1      -3.404   0.157 -32.598  1.00  0.00     0.273 C 
BRANCH  15  16
HETATM   16  C   UNL     1      -3.505  -1.341 -32.704  1.00  0.00    -0.032 A 
HETATM   17  C   UNL     1      -4.335  -1.931 -33.675  1.00  0.00     0.025 A 
HETATM   18  C   UNL     1      -4.462  -3.328 -33.774  1.00  0.00     0.048 A 
HETATM   19  C   UNL     1      -3.747  -4.136 -32.882  1.00  0.00     0.016 A 
HETATM   20  C   UNL     1      -2.925  -3.564 -31.912  1.00  0.00     0.001 A 
HETATM   21  C   UNL     1      -2.805  -2.176 -31.823  1.00  0.00     0.009 A 
BRANCH  18  22
HETATM   22  C   UNL     1      -5.364  -3.964 -34.810  1.00  0.00     0.417 C 
HETATM   23  F   UNL     1      -5.017  -5.253 -35.086  1.00  0.00    -0.166 F 
HETATM   24  F   UNL     1      -6.662  -4.003 -34.412  1.00  0.00    -0.166 F 
HETATM   25  F   UNL     1      -5.341  -3.303 -35.997  1.00  0.00    -0.166 F 
ENDBRANCH  18  22
ENDBRANCH  15  16
ENDBRANCH  10  15
ENDBRANCH   4   7
BRANCH   1  26
HETATM   26  N   UNL     1     -12.067   4.454 -32.335  1.00  0.00    -0.307 N 
HETATM   27  C   UNL     1     -13.196   4.354 -31.534  1.00  0.00     0.325 C 
HETATM   28  N   UNL     1     -14.312   4.830 -32.204  1.00  0.00    -0.309 N 
HETATM   29  O   UNL     1     -13.192   3.886 -30.402  1.00  0.00    -0.247 OA
HETATM   30  H   UNL     1     -14.144   5.333 -33.064  1.00  0.00     0.170 HD
HETATM   31  H   UNL     1     -12.222   4.722 -33.295  1.00  0.00     0.170 HD
BRANCH  28  32
HETATM   32  C   UNL     1     -15.661   4.794 -31.782  1.00  0.00     0.041 A 
HETATM   33  C   UNL     1     -16.242   5.744 -30.932  1.00  0.00     0.066 A 
HETATM   34  C   UNL     1     -17.591   5.644 -30.564  1.00  0.00     0.073 A 
HETATM   35  C   UNL     1     -18.356   4.576 -31.031  1.00  0.00     0.073 A 
HETATM   36  C   UNL     1     -17.773   3.615 -31.850  1.00  0.00     0.073 A 
HETATM   37  C   UNL     1     -16.441   3.728 -32.243  1.00  0.00     0.066 A 
BRANCH  34  38
HETATM   38  O   UNL     1     -18.269   6.517 -29.757  1.00  0.00    -0.356 OA
HETATM   39  C   UNL     1     -17.487   7.346 -28.904  1.00  0.00     0.210 C 
ENDBRANCH  34  38
BRANCH  36  40
HETATM   40  O   UNL     1     -18.534   2.590 -32.343  1.00  0.00    -0.356 OA
HETATM   41  C   UNL     1     -19.358   3.059 -33.412  1.00  0.00     0.210 C 
ENDBRANCH  36  40
ENDBRANCH  28  32
ENDBRANCH   1  26
TORSDOF 8
ENDMDL
MODEL 8
REMARK VINA RESULT:      -8.3      6.577     13.461
REMARK  8 active torsions:
REMARK  status: ('A' for Active; 'I' for Inactive)
REMARK    1  A    between atoms: O_2  and  C_3 
REMARK    2  A    between atoms: C_5  and  O_6 
REMARK    3  A    between atoms: C_9  and  N_10 
REMARK       I    between atoms: N_10  and  C_11 
REMARK       I    between atoms: C_11  and  N_12 
REMARK    4  A    between atoms: N_12  and  C_13 
REMARK    5  A    between atoms: C_16  and  N_17 
REMARK    6  A    between atoms: N_20  and  C_22 
REMARK    7  A    between atoms: C_22  and  C_23 
REMARK    8  A    between atoms: C_25  and  C_26 
ROOT
HETATM    1  C   UNL     1      -3.552   4.980 -32.636  1.00  0.00     0.054 A 
HETATM    2  C   UNL     1      -3.889   6.269 -32.251  1.00  0.00     0.148 A 
HETATM    3  N   UNL     1      -3.107   7.071 -31.471  1.00  0.00    -0.241 NA
HETATM    4  C   UNL     1      -1.927   6.592 -31.026  1.00  0.00     0.125 A 
HETATM    5  C   UNL     1      -1.496   5.326 -31.417  1.00  0.00     0.052 A 
HETATM    6  C   UNL     1      -2.306   4.521 -32.225  1.00  0.00     0.035 A 
ENDROOT
BRANCH   4   7
HETATM    7  N   UNL     1      -1.213   7.357 -30.107  1.00  0.00    -0.364 N 
HETATM    8  C   UNL     1       0.206   7.010 -29.962  1.00  0.00     0.152 C 
HETATM    9  C   UNL     1       0.558   6.378 -28.603  1.00  0.00     0.255 C 
HETATM   10  N   UNL     1       0.416   7.434 -27.504  1.00  0.00    -0.066 N 
HETATM   11  H   UNL     1       0.494   8.334 -27.990  1.00  0.00     0.280 HD
HETATM   12  C   UNL     1      -0.935   7.449 -26.845  1.00  0.00     0.237 C 
HETATM   13  C   UNL     1      -2.110   7.405 -27.819  1.00  0.00     0.047 C 
HETATM   14  C   UNL     1      -1.908   8.176 -29.120  1.00  0.00     0.126 C 
BRANCH  10  15
HETATM   15  C   UNL     1       1.579   7.481 -26.533  1.00  0.00     0.273 C 
BRANCH  15  16
HETATM   16  C   UNL     1       1.825   8.788 -25.828  1.00  0.00    -0.032 A 
HETATM   17  C   UNL     1       2.668   8.841 -24.702  1.00  0.00     0.025 A 
HETATM   18  C   UNL     1       2.892  10.047 -24.014  1.00  0.00     0.048 A 
HETATM   19  C   UNL     1       2.254  11.209 -24.465  1.00  0.00     0.016 A 
HETATM   20  C   UNL     1       1.412  11.169 -25.575  1.00  0.00     0.001 A 
HETATM   21  C   UNL     1       1.198   9.967 -26.251  1.00  0.00     0.009 A 
BRANCH  18  22
HETATM   22  C   UNL     1       3.790  10.102 -22.797  1.00  0.00     0.417 C 
HETATM   23  F   UNL     1       3.650  11.262 -22.096  1.00  0.00    -0.166 F 
HETATM   24  F   UNL     1       3.531   9.099 -21.917  1.00  0.00    -0.166 F 
HETATM   25  F   UNL     1       5.107  10.009 -23.116  1.00  0.00    -0.166 F 
ENDBRANCH  18  22
ENDBRANCH  15  16
ENDBRANCH  10  15
ENDBRANCH   4   7
BRANCH   1  26
HETATM   26  N   UNL     1      -4.368   4.096 -33.375  1.00  0.00    -0.307 N 
HETATM   27  C   UNL     1      -5.193   3.106 -32.860  1.00  0.00     0.325 C 
HETATM   28  N   UNL     1      -5.802   2.398 -33.885  1.00  0.00    -0.309 N 
HETATM   29  O   UNL     1      -5.335   2.886 -31.664  1.00  0.00    -0.247 OA
HETATM   30  H   UNL     1      -5.723   2.787 -34.814  1.00  0.00     0.170 HD
HETATM   31  H   UNL     1      -4.225   4.085 -34.373  1.00  0.00     0.170 HD
BRANCH  28  32
HETATM   32  C   UNL     1      -6.617   1.247 -33.784  1.00  0.00     0.041 A 
HETATM   33  C   UNL     1      -7.977   1.275 -33.453  1.00  0.00     0.066 A 
HETATM   34  C   UNL     1      -8.721   0.090 -33.379  1.00  0.00     0.073 A 
HETATM   35  C   UNL     1      -8.094  -1.133 -33.615  1.00  0.00     0.073 A 
HETATM   36  C   UNL     1      -6.736  -1.167 -33.913  1.00  0.00     0.073 A 
HETATM   37  C   UNL     1      -6.000   0.012 -34.018  1.00  0.00     0.066 A 
BRANCH  34  38
HETATM   38  O   UNL     1     -10.054  -0.005 -33.083  1.00  0.00    -0.356 OA
HETATM   39  C   UNL     1     -10.886   1.067 -33.514  1.00  0.00     0.210 C 
ENDBRANCH  34  38
BRANCH  36  40
HETATM   40  O   UNL     1      -6.129  -2.363 -34.186  1.00  0.00    -0.356 OA
HETATM   41  C   UNL     1      -4.710  -2.229 -34.084  1.00  0.00     0.210 C 
ENDBRANCH  36  40
ENDBRANCH  28  32
ENDBRANCH   1  26
TORSDOF 8
ENDMDL
MODEL 9
REMARK VINA RESULT:      -8.3      6.343     13.107
REMARK  8 active torsions:
REMARK  status: ('A' for Active; 'I' for Inactive)
REMARK    1  A    between atoms: O_2  and  C_3 
REMARK    2  A    between atoms: C_5  and  O_6 
REMARK    3  A    between atoms: C_9  and  N_10 
REMARK       I    between atoms: N_10  and  C_11 
REMARK       I    between atoms: C_11  and  N_12 
REMARK    4  A    between atoms: N_12  and  C_13 
REMARK    5  A    between atoms: C_16  and  N_17 
REMARK    6  A    between atoms: N_20  and  C_22 
REMARK    7  A    between atoms: C_22  and  C_23 
REMARK    8  A    between atoms: C_25  and  C_26 
ROOT
HETATM    1  C   UNL     1      -7.747   4.627 -33.035  1.00  0.00     0.054 A 
HETATM    2  C   UNL     1      -7.179   5.794 -32.541  1.00  0.00     0.148 A 
HETATM    3  N   UNL     1      -5.916   5.881 -32.032  1.00  0.00    -0.241 NA
HETATM    4  C   UNL     1      -5.155   4.768 -31.989  1.00  0.00     0.125 A 
HETATM    5  C   UNL     1      -5.637   3.573 -32.517  1.00  0.00     0.052 A 
HETATM    6  C   UNL     1      -6.931   3.502 -33.043  1.00  0.00     0.035 A 
ENDROOT
BRANCH   4   7
HETATM    7  N   UNL     1      -3.931   4.835 -31.328  1.00  0.00    -0.364 N 
HETATM    8  C   UNL     1      -3.665   6.087 -30.611  1.00  0.00     0.152 C 
HETATM    9  C   UNL     1      -2.545   6.939 -31.234  1.00  0.00     0.255 C 
HETATM   10  N   UNL     1      -1.204   6.224 -31.049  1.00  0.00    -0.066 N 
HETATM   11  H   UNL     1      -1.352   5.585 -30.259  1.00  0.00     0.280 HD
HETATM   12  C   UNL     1      -0.817   5.347 -32.207  1.00  0.00     0.237 C 
HETATM   13  C   UNL     1      -1.939   4.443 -32.715  1.00  0.00     0.047 C 
HETATM   14  C   UNL     1      -2.865   3.887 -31.638  1.00  0.00     0.126 C 
BRANCH  10  15
HETATM   15  C   UNL     1      -0.088   7.116 -30.547  1.00  0.00     0.273 C 
BRANCH  15  16
HETATM   16  C   UNL     1       0.006   7.317 -29.058  1.00  0.00    -0.032 A 
HETATM   17  C   UNL     1      -1.012   6.843 -28.210  1.00  0.00     0.025 A 
HETATM   18  C   UNL     1      -0.955   7.042 -26.819  1.00  0.00     0.048 A 
HETATM   19  C   UNL     1       0.139   7.730 -26.280  1.00  0.00     0.016 A 
HETATM   20  C   UNL     1       1.151   8.210 -27.109  1.00  0.00     0.001 A 
HETATM   21  C   UNL     1       1.086   8.006 -28.488  1.00  0.00     0.009 A 
BRANCH  18  22
HETATM   22  C   UNL     1      -2.056   6.542 -25.909  1.00  0.00     0.417 C 
HETATM   23  F   UNL     1      -1.781   5.316 -25.380  1.00  0.00    -0.166 F 
HETATM   24  F   UNL     1      -2.266   7.367 -24.850  1.00  0.00    -0.166 F 
HETATM   25  F   UNL     1      -3.248   6.420 -26.549  1.00  0.00    -0.166 F 
ENDBRANCH  18  22
ENDBRANCH  15  16
ENDBRANCH  10  15
ENDBRANCH   4   7
BRANCH   1  26
HETATM   26  N   UNL     1      -9.074   4.482 -33.494  1.00  0.00    -0.307 N 
HETATM   27  C   UNL     1     -10.170   4.080 -32.745  1.00  0.00     0.325 C 
HETATM   28  N   UNL     1     -11.302   4.000 -33.542  1.00  0.00    -0.309 N 
HETATM   29  O   UNL     1     -10.122   3.815 -31.550  1.00  0.00    -0.247 OA
HETATM   30  H   UNL     1     -11.234   4.400 -34.467  1.00  0.00     0.170 HD
HETATM   31  H   UNL     1      -9.209   4.533 -34.493  1.00  0.00     0.170 HD
BRANCH  28  32
HETATM   32  C   UNL     1     -12.584   3.519 -33.188  1.00  0.00     0.041 A 
HETATM   33  C   UNL     1     -13.551   4.282 -32.521  1.00  0.00     0.066 A 
HETATM   34  C   UNL     1     -14.803   3.736 -32.211  1.00  0.00     0.073 A 
HETATM   35  C   UNL     1     -15.081   2.412 -32.548  1.00  0.00     0.073 A 
HETATM   36  C   UNL     1     -14.111   1.642 -33.182  1.00  0.00     0.073 A 
HETATM   37  C   UNL     1     -12.877   2.191 -33.520  1.00  0.00     0.066 A 
BRANCH  34  38
HETATM   38  O   UNL     1     -15.829   4.387 -31.580  1.00  0.00    -0.356 OA
HETATM   39  C   UNL     1     -16.310   5.577 -32.195  1.00  0.00     0.210 C 
ENDBRANCH  34  38
BRANCH  36  40
HETATM   40  O   UNL     1     -14.398   0.356 -33.551  1.00  0.00    -0.356 OA
HETATM   41  C   UNL     1     -13.203  -0.427 -33.573  1.00  0.00     0.210 C 
ENDBRANCH  36  40
ENDBRANCH  28  32
ENDBRANCH   1  26
TORSDOF 8
ENDMDL
MODEL 10
REMARK VINA RESULT:      -8.3      8.622     11.905
REMARK  8 active torsions:
REMARK  status: ('A' for Active; 'I' for Inactive)
REMARK    1  A    between atoms: O_2  and  C_3 
REMARK    2  A    between atoms: C_5  and  O_6 
REMARK    3  A    between atoms: C_9  and  N_10 
REMARK       I    between atoms: N_10  and  C_11 
REMARK       I    between atoms: C_11  and  N_12 
REMARK    4  A    between atoms: N_12  and  C_13 
REMARK    5  A    between atoms: C_16  and  N_17 
REMARK    6  A    between atoms: N_20  and  C_22 
REMARK    7  A    between atoms: C_22  and  C_23 
REMARK    8  A    between atoms: C_25  and  C_26 
ROOT
HETATM    1  C   UNL     1     -10.332   4.065 -31.009  1.00  0.00     0.054 A 
HETATM    2  C   UNL     1     -10.304   3.586 -32.311  1.00  0.00     0.148 A 
HETATM    3  N   UNL     1      -9.366   2.722 -32.795  1.00  0.00    -0.241 NA
HETATM    4  C   UNL     1      -8.385   2.299 -31.971  1.00  0.00     0.125 A 
HETATM    5  C   UNL     1      -8.380   2.693 -30.634  1.00  0.00     0.052 A 
HETATM    6  C   UNL     1      -9.355   3.573 -30.152  1.00  0.00     0.035 A 
ENDROOT
BRANCH   4   7
HETATM    7  N   UNL     1      -7.350   1.544 -32.514  1.00  0.00    -0.364 N 
HETATM    8  C   UNL     1      -7.112   0.243 -31.878  1.00  0.00     0.152 C 
HETATM    9  C   UNL     1      -5.785   0.160 -31.104  1.00  0.00     0.255 C 
HETATM   10  N   UNL     1      -4.619   0.200 -32.095  1.00  0.00    -0.066 N 
HETATM   11  H   UNL     1      -5.021  -0.102 -32.989  1.00  0.00     0.280 HD
HETATM   12  C   UNL     1      -4.079   1.581 -32.342  1.00  0.00     0.237 C 
HETATM   13  C   UNL     1      -5.151   2.639 -32.600  1.00  0.00     0.047 C 
HETATM   14  C   UNL     1      -6.362   2.160 -33.394  1.00  0.00     0.126 C 
BRANCH  10  15
HETATM   15  C   UNL     1      -3.553  -0.846 -31.844  1.00  0.00     0.273 C 
BRANCH  15  16
HETATM   16  C   UNL     1      -3.732  -2.178 -32.521  1.00  0.00    -0.032 A 
HETATM   17  C   UNL     1      -4.657  -2.323 -33.572  1.00  0.00     0.025 A 
HETATM   18  C   UNL     1      -4.857  -3.564 -34.202  1.00  0.00     0.048 A 
HETATM   19  C   UNL     1      -4.118  -4.670 -33.764  1.00  0.00     0.016 A 
HETATM   20  C   UNL     1      -3.202  -4.541 -32.721  1.00  0.00     0.001 A 
HETATM   21  C   UNL     1      -3.011  -3.304 -32.103  1.00  0.00     0.009 A 
BRANCH  18  22
HETATM   22  C   UNL     1      -5.860  -3.723 -35.324  1.00  0.00     0.417 C 
HETATM   23  F   UNL     1      -7.109  -3.307 -34.972  1.00  0.00    -0.166 F 
HETATM   24  F   UNL     1      -5.523  -3.002 -36.425  1.00  0.00    -0.166 F 
HETATM   25  F   UNL     1      -5.990  -5.013 -35.728  1.00  0.00    -0.166 F 
ENDBRANCH  18  22
ENDBRANCH  15  16
ENDBRANCH  10  15
ENDBRANCH   4   7
BRANCH   1  26
HETATM   26  N   UNL     1     -11.238   5.018 -30.496  1.00  0.00    -0.307 N 
HETATM   27  C   UNL     1     -12.558   4.794 -30.131  1.00  0.00     0.325 C 
HETATM   28  N   UNL     1     -13.157   5.976 -29.721  1.00  0.00    -0.309 N 
HETATM   29  O   UNL     1     -13.108   3.702 -30.191  1.00  0.00    -0.247 OA
HETATM   30  H   UNL     1     -12.546   6.764 -29.568  1.00  0.00     0.170 HD
HETATM   31  H   UNL     1     -10.943   5.982 -30.538  1.00  0.00     0.170 HD
BRANCH  28  32
HETATM   32  C   UNL     1     -14.513   6.192 -29.385  1.00  0.00     0.041 A 
HETATM   33  C   UNL     1     -15.563   6.177 -30.312  1.00  0.00     0.066 A 
HETATM   34  C   UNL     1     -16.885   6.394 -29.900  1.00  0.00     0.073 A 
HETATM   35  C   UNL     1     -17.155   6.650 -28.557  1.00  0.00     0.073 A 
HETATM   36  C   UNL     1     -16.111   6.697 -27.639  1.00  0.00     0.073 A 
HETATM   37  C   UNL     1     -14.800   6.450 -28.039  1.00  0.00     0.066 A 
BRANCH  34  38
HETATM   38  O   UNL     1     -17.990   6.386 -30.709  1.00  0.00    -0.356 OA
HETATM   39  C   UNL     1     -18.960   5.374 -30.463  1.00  0.00     0.210 C 
ENDBRANCH  34  38
BRANCH  36  40
HETATM   40  O   UNL     1     -16.380   6.905 -26.313  1.00  0.00    -0.356 OA
HETATM   41  C   UNL     1     -15.163   6.940 -25.564  1.00  0.00     0.210 C 
ENDBRANCH  36  40
ENDBRANCH  28  32
ENDBRANCH   1  26
TORSDOF 8
ENDMDL
