MODEL 1
REMARK VINA RESULT:      -9.4      0.000      0.000
REMARK  3 active torsions:
REMARK  status: ('A' for Active; 'I' for Inactive)
REMARK    1  A    between atoms: C_2  and  O_3 
REMARK    2  A    between atoms: O_3  and  C_4 
REMARK    3  A    between atoms: C_10  and  N_11 
REMARK       I    between atoms: N_11  and  C_12 
REMARK       I    between atoms: C_12  and  N_13 
ROOT
HETATM    1  N   UNL     1      -3.999   3.238 -32.338  1.00  0.00    -0.306 N 
HETATM    2  C   UNL     1      -5.252   2.838 -32.737  1.00  0.00     0.323 C 
HETATM    3  N   UNL     1      -5.391   1.474 -33.017  1.00  0.00    -0.328 N 
HETATM    4  C   UNL     1      -4.375   0.463 -32.672  1.00  0.00     0.185 C 
HETATM    5  C   UNL     1      -4.726  -0.854 -33.271  1.00  0.00     0.035 A 
HETATM    6  C   UNL     1      -5.857  -1.163 -33.995  1.00  0.00    -0.020 A 
HETATM    7  C   UNL     1      -6.889  -0.133 -34.267  1.00  0.00     0.061 C 
HETATM    8  C   UNL     1      -6.778   0.991 -33.224  1.00  0.00     0.132 C 
HETATM    9  N   UNL     1      -3.963  -1.987 -33.181  1.00  0.00    -0.357 N 
HETATM   10  H   UNL     1      -3.076  -2.069 -32.704  1.00  0.00     0.166 HD
HETATM   11  C   UNL     1      -4.587  -3.026 -33.842  1.00  0.00     0.043 A 
HETATM   12  C   UNL     1      -5.784  -2.530 -34.365  1.00  0.00    -0.001 A 
HETATM   13  C   UNL     1      -4.183  -4.356 -34.016  1.00  0.00     0.030 A 
HETATM   14  C   UNL     1      -5.029  -5.200 -34.743  1.00  0.00     0.002 A 
HETATM   15  C   UNL     1      -6.228  -4.733 -35.276  1.00  0.00     0.001 A 
HETATM   16  C   UNL     1      -6.618  -3.401 -35.094  1.00  0.00     0.014 A 
HETATM   17  O   UNL     1      -6.210   3.603 -32.840  1.00  0.00    -0.247 OA
HETATM   18  H   UNL     1      -3.232   2.590 -32.413  1.00  0.00     0.171 HD
ENDROOT
BRANCH   1  19
HETATM   19  C   UNL     1      -3.597   4.513 -31.865  1.00  0.00     0.071 A 
HETATM   20  C   UNL     1      -2.559   5.161 -32.568  1.00  0.00     0.117 A 
HETATM   21  C   UNL     1      -2.049   6.383 -32.102  1.00  0.00     0.069 A 
HETATM   22 CL   UNL     1      -0.688   7.161 -32.825  1.00  0.00    -0.081 Cl
HETATM   23  C   UNL     1      -2.619   6.995 -30.984  1.00  0.00     0.027 A 
HETATM   24  C   UNL     1      -3.674   6.379 -30.314  1.00  0.00     0.004 A 
HETATM   25  C   UNL     1      -4.152   5.139 -30.747  1.00  0.00     0.032 A 
BRANCH  20  26
HETATM   26  O   UNL     1      -2.048   4.497 -33.664  1.00  0.00    -0.347 OA
BRANCH  26  27
HETATM   27  C   UNL     1      -2.233   5.233 -34.882  1.00  0.00     0.171 C 
HETATM   28  C   UNL     1      -3.712   5.220 -35.222  1.00  0.00     0.034 C 
ENDBRANCH  26  27
ENDBRANCH  20  26
ENDBRANCH   1  19
TORSDOF 3
ENDMDL
MODEL 2
REMARK VINA RESULT:      -8.2      3.108      8.615
REMARK  3 active torsions:
REMARK  status: ('A' for Active; 'I' for Inactive)
REMARK    1  A    between atoms: C_2  and  O_3 
REMARK    2  A    between atoms: O_3  and  C_4 
REMARK    3  A    between atoms: C_10  and  N_11 
REMARK       I    between atoms: N_11  and  C_12 
REMARK       I    between atoms: C_12  and  N_13 
ROOT
HETATM    1  N   UNL     1      -5.232   2.060 -33.028  1.00  0.00    -0.306 N 
HETATM    2  C   UNL     1      -5.564   3.391 -32.947  1.00  0.00     0.323 C 
HETATM    3  N   UNL     1      -4.596   4.222 -32.374  1.00  0.00    -0.328 N 
HETATM    4  C   UNL     1      -3.210   3.796 -32.105  1.00  0.00     0.185 C 
HETATM    5  C   UNL     1      -2.489   4.833 -31.319  1.00  0.00     0.035 A 
HETATM    6  C   UNL     1      -2.969   6.064 -30.928  1.00  0.00    -0.020 A 
HETATM    7  C   UNL     1      -4.349   6.485 -31.274  1.00  0.00     0.061 C 
HETATM    8  C   UNL     1      -4.840   5.681 -32.489  1.00  0.00     0.132 C 
HETATM    9  N   UNL     1      -1.202   4.722 -30.863  1.00  0.00    -0.357 N 
HETATM   10  H   UNL     1      -0.591   3.929 -31.000  1.00  0.00     0.166 HD
HETATM   11  C   UNL     1      -0.846   5.866 -30.179  1.00  0.00     0.043 A 
HETATM   12  C   UNL     1      -1.945   6.728 -30.205  1.00  0.00    -0.001 A 
HETATM   13  C   UNL     1       0.356   6.199 -29.542  1.00  0.00     0.030 A 
HETATM   14  C   UNL     1       0.435   7.448 -28.918  1.00  0.00     0.002 A 
HETATM   15  C   UNL     1      -0.645   8.328 -28.929  1.00  0.00     0.001 A 
HETATM   16  C   UNL     1      -1.840   7.981 -29.569  1.00  0.00     0.014 A 
HETATM   17  O   UNL     1      -6.629   3.853 -33.354  1.00  0.00    -0.247 OA
HETATM   18  H   UNL     1      -4.410   1.731 -32.549  1.00  0.00     0.171 HD
ENDROOT
BRANCH   1  19
HETATM   19  C   UNL     1      -5.947   1.018 -33.671  1.00  0.00     0.071 A 
HETATM   20  C   UNL     1      -5.319  -0.244 -33.741  1.00  0.00     0.117 A 
HETATM   21  C   UNL     1      -5.930  -1.296 -34.443  1.00  0.00     0.069 A 
HETATM   22 CL   UNL     1      -5.158  -2.821 -34.693  1.00  0.00    -0.081 Cl
HETATM   23  C   UNL     1      -7.192  -1.115 -35.011  1.00  0.00     0.027 A 
HETATM   24  C   UNL     1      -7.834   0.117 -34.905  1.00  0.00     0.004 A 
HETATM   25  C   UNL     1      -7.208   1.180 -34.248  1.00  0.00     0.032 A 
BRANCH  20  26
HETATM   26  O   UNL     1      -4.075  -0.348 -33.156  1.00  0.00    -0.347 OA
BRANCH  26  27
HETATM   27  C   UNL     1      -4.125  -1.005 -31.881  1.00  0.00     0.171 C 
HETATM   28  C   UNL     1      -3.104  -2.128 -31.887  1.00  0.00     0.034 C 
ENDBRANCH  26  27
ENDBRANCH  20  26
ENDBRANCH   1  19
TORSDOF 3
ENDMDL
MODEL 3
REMARK VINA RESULT:      -8.1      2.434      3.223
REMARK  3 active torsions:
REMARK  status: ('A' for Active; 'I' for Inactive)
REMARK    1  A    between atoms: C_2  and  O_3 
REMARK    2  A    between atoms: O_3  and  C_4 
REMARK    3  A    between atoms: C_10  and  N_11 
REMARK       I    between atoms: N_11  and  C_12 
REMARK       I    between atoms: C_12  and  N_13 
ROOT
HETATM    1  N   UNL     1      -6.437   3.089 -31.191  1.00  0.00    -0.306 N 
HETATM    2  C   UNL     1      -5.183   2.552 -31.364  1.00  0.00     0.323 C 
HETATM    3  N   UNL     1      -5.134   1.343 -32.065  1.00  0.00    -0.328 N 
HETATM    4  C   UNL     1      -6.277   0.785 -32.809  1.00  0.00     0.185 C 
HETATM    5  C   UNL     1      -5.971  -0.593 -33.280  1.00  0.00     0.035 A 
HETATM    6  C   UNL     1      -4.784  -1.277 -33.131  1.00  0.00    -0.020 A 
HETATM    7  C   UNL     1      -3.632  -0.657 -32.432  1.00  0.00     0.061 C 
HETATM    8  C   UNL     1      -3.783   0.873 -32.457  1.00  0.00     0.132 C 
HETATM    9  N   UNL     1      -6.841  -1.406 -33.956  1.00  0.00    -0.357 N 
HETATM   10  H   UNL     1      -7.790  -1.174 -34.215  1.00  0.00     0.166 HD
HETATM   11  C   UNL     1      -6.231  -2.609 -34.244  1.00  0.00     0.043 A 
HETATM   12  C   UNL     1      -4.932  -2.553 -33.734  1.00  0.00    -0.001 A 
HETATM   13  C   UNL     1      -6.729  -3.735 -34.913  1.00  0.00     0.030 A 
HETATM   14  C   UNL     1      -5.873  -4.831 -35.063  1.00  0.00     0.002 A 
HETATM   15  C   UNL     1      -4.573  -4.803 -34.564  1.00  0.00     0.001 A 
HETATM   16  C   UNL     1      -4.090  -3.670 -33.898  1.00  0.00     0.014 A 
HETATM   17  O   UNL     1      -4.153   3.083 -30.950  1.00  0.00    -0.247 OA
HETATM   18  H   UNL     1      -7.243   2.535 -31.429  1.00  0.00     0.171 HD
ENDROOT
BRANCH   1  19
HETATM   19  C   UNL     1      -6.780   4.352 -30.646  1.00  0.00     0.071 A 
HETATM   20  C   UNL     1      -6.869   5.437 -31.544  1.00  0.00     0.117 A 
HETATM   21  C   UNL     1      -7.115   6.733 -31.060  1.00  0.00     0.069 A 
HETATM   22 CL   UNL     1      -7.095   8.126 -32.080  1.00  0.00    -0.081 Cl
HETATM   23  C   UNL     1      -7.343   6.937 -29.698  1.00  0.00     0.027 A 
HETATM   24  C   UNL     1      -7.299   5.860 -28.815  1.00  0.00     0.004 A 
HETATM   25  C   UNL     1      -7.008   4.577 -29.286  1.00  0.00     0.032 A 
BRANCH  20  26
HETATM   26  O   UNL     1      -6.633   5.159 -32.874  1.00  0.00    -0.347 OA
BRANCH  26  27
HETATM   27  C   UNL     1      -5.343   5.613 -33.305  1.00  0.00     0.171 C 
HETATM   28  C   UNL     1      -4.918   4.770 -34.494  1.00  0.00     0.034 C 
ENDBRANCH  26  27
ENDBRANCH  20  26
ENDBRANCH   1  19
TORSDOF 3
ENDMDL
MODEL 4
REMARK VINA RESULT:      -8.1      2.682      4.034
REMARK  3 active torsions:
REMARK  status: ('A' for Active; 'I' for Inactive)
REMARK    1  A    between atoms: C_2  and  O_3 
REMARK    2  A    between atoms: O_3  and  C_4 
REMARK    3  A    between atoms: C_10  and  N_11 
REMARK       I    between atoms: N_11  and  C_12 
REMARK       I    between atoms: C_12  and  N_13 
ROOT
HETATM    1  N   UNL     1      -3.487   5.999 -30.253  1.00  0.00    -0.306 N 
HETATM    2  C   UNL     1      -4.324   6.172 -31.330  1.00  0.00     0.323 C 
HETATM    3  N   UNL     1      -4.907   5.006 -31.837  1.00  0.00    -0.328 N 
HETATM    4  C   UNL     1      -4.867   3.706 -31.143  1.00  0.00     0.185 C 
HETATM    5  C   UNL     1      -5.400   2.629 -32.021  1.00  0.00     0.035 A 
HETATM    6  C   UNL     1      -5.931   2.774 -33.284  1.00  0.00    -0.020 A 
HETATM    7  C   UNL     1      -6.014   4.108 -33.925  1.00  0.00     0.061 C 
HETATM    8  C   UNL     1      -5.981   5.199 -32.841  1.00  0.00     0.132 C 
HETATM    9  N   UNL     1      -5.452   1.300 -31.694  1.00  0.00    -0.357 N 
HETATM   10  H   UNL     1      -5.138   0.891 -30.826  1.00  0.00     0.166 HD
HETATM   11  C   UNL     1      -6.009   0.583 -32.732  1.00  0.00     0.043 A 
HETATM   12  C   UNL     1      -6.319   1.491 -33.749  1.00  0.00    -0.001 A 
HETATM   13  C   UNL     1      -6.258  -0.790 -32.848  1.00  0.00     0.030 A 
HETATM   14  C   UNL     1      -6.842  -1.246 -34.035  1.00  0.00     0.002 A 
HETATM   15  C   UNL     1      -7.162  -0.363 -35.065  1.00  0.00     0.001 A 
HETATM   16  C   UNL     1      -6.906   1.007 -34.934  1.00  0.00     0.014 A 
HETATM   17  O   UNL     1      -4.572   7.269 -31.829  1.00  0.00    -0.247 OA
HETATM   18  H   UNL     1      -3.219   5.065 -29.988  1.00  0.00     0.171 HD
ENDROOT
BRANCH   1  19
HETATM   19  C   UNL     1      -2.869   6.996 -29.456  1.00  0.00     0.071 A 
HETATM   20  C   UNL     1      -1.460   7.059 -29.485  1.00  0.00     0.117 A 
HETATM   21  C   UNL     1      -0.778   7.961 -28.652  1.00  0.00     0.069 A 
HETATM   22 CL   UNL     1       0.944   7.996 -28.528  1.00  0.00    -0.081 Cl
HETATM   23  C   UNL     1      -1.498   8.846 -27.847  1.00  0.00     0.027 A 
HETATM   24  C   UNL     1      -2.891   8.817 -27.850  1.00  0.00     0.004 A 
HETATM   25  C   UNL     1      -3.571   7.888 -28.643  1.00  0.00     0.032 A 
BRANCH  20  26
HETATM   26  O   UNL     1      -0.818   6.155 -30.306  1.00  0.00    -0.347 OA
BRANCH  26  27
HETATM   27  C   UNL     1      -0.021   6.800 -31.310  1.00  0.00     0.171 C 
HETATM   28  C   UNL     1      -0.944   7.251 -32.427  1.00  0.00     0.034 C 
ENDBRANCH  26  27
ENDBRANCH  20  26
ENDBRANCH   1  19
TORSDOF 3
ENDMDL
MODEL 5
REMARK VINA RESULT:      -7.9      4.933      8.611
REMARK  3 active torsions:
REMARK  status: ('A' for Active; 'I' for Inactive)
REMARK    1  A    between atoms: C_2  and  O_3 
REMARK    2  A    between atoms: O_3  and  C_4 
REMARK    3  A    between atoms: C_10  and  N_11 
REMARK       I    between atoms: N_11  and  C_12 
REMARK       I    between atoms: C_12  and  N_13 
ROOT
HETATM    1  N   UNL     1      -9.886   3.346 -32.726  1.00  0.00    -0.306 N 
HETATM    2  C   UNL     1      -9.028   3.365 -31.652  1.00  0.00     0.323 C 
HETATM    3  N   UNL     1      -7.726   3.797 -31.925  1.00  0.00    -0.328 N 
HETATM    4  C   UNL     1      -7.329   4.442 -33.189  1.00  0.00     0.185 C 
HETATM    5  C   UNL     1      -5.851   4.605 -33.250  1.00  0.00     0.035 A 
HETATM    6  C   UNL     1      -4.938   4.281 -32.270  1.00  0.00    -0.020 A 
HETATM    7  C   UNL     1      -5.382   3.692 -30.983  1.00  0.00     0.061 C 
HETATM    8  C   UNL     1      -6.861   4.040 -30.745  1.00  0.00     0.132 C 
HETATM    9  N   UNL     1      -5.159   5.123 -34.312  1.00  0.00    -0.357 N 
HETATM   10  H   UNL     1      -5.562   5.454 -35.177  1.00  0.00     0.166 HD
HETATM   11  C   UNL     1      -3.808   5.135 -34.031  1.00  0.00     0.043 A 
HETATM   12  C   UNL     1      -3.643   4.608 -32.747  1.00  0.00    -0.001 A 
HETATM   13  C   UNL     1      -2.729   5.568 -34.811  1.00  0.00     0.030 A 
HETATM   14  C   UNL     1      -1.447   5.461 -34.261  1.00  0.00     0.002 A 
HETATM   15  C   UNL     1      -1.253   4.939 -32.984  1.00  0.00     0.001 A 
HETATM   16  C   UNL     1      -2.342   4.509 -32.217  1.00  0.00     0.014 A 
HETATM   17  O   UNL     1      -9.358   3.039 -30.512  1.00  0.00    -0.247 OA
HETATM   18  H   UNL     1      -9.514   3.488 -33.651  1.00  0.00     0.171 HD
ENDROOT
BRANCH   1  19
HETATM   19  C   UNL     1     -11.280   3.088 -32.728  1.00  0.00     0.071 A 
HETATM   20  C   UNL     1     -11.711   1.891 -33.340  1.00  0.00     0.117 A 
HETATM   21  C   UNL     1     -13.082   1.615 -33.458  1.00  0.00     0.069 A 
HETATM   22 CL   UNL     1     -13.686   0.245 -34.319  1.00  0.00    -0.081 Cl
HETATM   23  C   UNL     1     -14.019   2.490 -32.906  1.00  0.00     0.027 A 
HETATM   24  C   UNL     1     -13.595   3.650 -32.262  1.00  0.00     0.004 A 
HETATM   25  C   UNL     1     -12.233   3.952 -32.184  1.00  0.00     0.032 A 
BRANCH  20  26
HETATM   26  O   UNL     1     -10.727   1.076 -33.860  1.00  0.00    -0.347 OA
BRANCH  26  27
HETATM   27  C   UNL     1     -10.345   0.034 -32.951  1.00  0.00     0.171 C 
HETATM   28  C   UNL     1      -8.840  -0.144 -33.041  1.00  0.00     0.034 C 
ENDBRANCH  26  27
ENDBRANCH  20  26
ENDBRANCH   1  19
TORSDOF 3
ENDMDL
MODEL 6
REMARK VINA RESULT:      -7.9      2.482      3.764
REMARK  3 active torsions:
REMARK  status: ('A' for Active; 'I' for Inactive)
REMARK    1  A    between atoms: C_2  and  O_3 
REMARK    2  A    between atoms: O_3  and  C_4 
REMARK    3  A    between atoms: C_10  and  N_11 
REMARK       I    between atoms: N_11  and  C_12 
REMARK       I    between atoms: C_12  and  N_13 
ROOT
HETATM    1  N   UNL     1      -5.123   3.200 -31.617  1.00  0.00    -0.306 N 
HETATM    2  C   UNL     1      -4.023   2.378 -31.665  1.00  0.00     0.323 C 
HETATM    3  N   UNL     1      -4.207   1.158 -32.323  1.00  0.00    -0.328 N 
HETATM    4  C   UNL     1      -5.390   0.845 -33.146  1.00  0.00     0.185 C 
HETATM    5  C   UNL     1      -5.382  -0.588 -33.546  1.00  0.00     0.035 A 
HETATM    6  C   UNL     1      -4.405  -1.522 -33.276  1.00  0.00    -0.020 A 
HETATM    7  C   UNL     1      -3.197  -1.153 -32.499  1.00  0.00     0.061 C 
HETATM    8  C   UNL     1      -2.979   0.367 -32.583  1.00  0.00     0.132 C 
HETATM    9  N   UNL     1      -6.366  -1.208 -34.270  1.00  0.00    -0.357 N 
HETATM   10  H   UNL     1      -7.209  -0.775 -34.616  1.00  0.00     0.166 HD
HETATM   11  C   UNL     1      -6.037  -2.533 -34.469  1.00  0.00     0.043 A 
HETATM   12  C   UNL     1      -4.804  -2.756 -33.850  1.00  0.00    -0.001 A 
HETATM   13  C   UNL     1      -6.734  -3.544 -35.143  1.00  0.00     0.030 A 
HETATM   14  C   UNL     1      -6.151  -4.815 -35.187  1.00  0.00     0.002 A 
HETATM   15  C   UNL     1      -4.923  -5.066 -34.579  1.00  0.00     0.001 A 
HETATM   16  C   UNL     1      -4.239  -4.045 -33.908  1.00  0.00     0.014 A 
HETATM   17  O   UNL     1      -2.931   2.674 -31.180  1.00  0.00    -0.247 OA
HETATM   18  H   UNL     1      -6.017   2.838 -31.906  1.00  0.00     0.171 HD
ENDROOT
BRANCH   1  19
HETATM   19  C   UNL     1      -5.199   4.534 -31.141  1.00  0.00     0.071 A 
HETATM   20  C   UNL     1      -6.326   4.875 -30.363  1.00  0.00     0.117 A 
HETATM   21  C   UNL     1      -6.511   6.200 -29.936  1.00  0.00     0.069 A 
HETATM   22 CL   UNL     1      -7.933   6.721 -29.106  1.00  0.00    -0.081 Cl
HETATM   23  C   UNL     1      -5.543   7.165 -30.220  1.00  0.00     0.027 A 
HETATM   24  C   UNL     1      -4.408   6.821 -30.949  1.00  0.00     0.004 A 
HETATM   25  C   UNL     1      -4.243   5.514 -31.417  1.00  0.00     0.032 A 
BRANCH  20  26
HETATM   26  O   UNL     1      -7.238   3.869 -30.122  1.00  0.00    -0.347 OA
BRANCH  26  27
HETATM   27  C   UNL     1      -8.322   3.879 -31.062  1.00  0.00     0.171 C 
HETATM   28  C   UNL     1      -9.488   3.126 -30.448  1.00  0.00     0.034 C 
ENDBRANCH  26  27
ENDBRANCH  20  26
ENDBRANCH   1  19
TORSDOF 3
ENDMDL
MODEL 7
REMARK VINA RESULT:      -7.8      3.622      8.578
REMARK  3 active torsions:
REMARK  status: ('A' for Active; 'I' for Inactive)
REMARK    1  A    between atoms: C_2  and  O_3 
REMARK    2  A    between atoms: O_3  and  C_4 
REMARK    3  A    between atoms: C_10  and  N_11 
REMARK       I    between atoms: N_11  and  C_12 
REMARK       I    between atoms: C_12  and  N_13 
ROOT
HETATM    1  N   UNL     1      -4.837  -0.819 -32.517  1.00  0.00    -0.306 N 
HETATM    2  C   UNL     1      -3.931   0.213 -32.470  1.00  0.00     0.323 C 
HETATM    3  N   UNL     1      -4.319   1.325 -31.714  1.00  0.00    -0.328 N 
HETATM    4  C   UNL     1      -5.480   1.329 -30.806  1.00  0.00     0.185 C 
HETATM    5  C   UNL     1      -5.743   2.704 -30.302  1.00  0.00     0.035 A 
HETATM    6  C   UNL     1      -5.003   3.838 -30.556  1.00  0.00    -0.020 A 
HETATM    7  C   UNL     1      -3.802   3.782 -31.424  1.00  0.00     0.061 C 
HETATM    8  C   UNL     1      -3.267   2.341 -31.466  1.00  0.00     0.132 C 
HETATM    9  N   UNL     1      -6.780   3.056 -29.480  1.00  0.00    -0.357 N 
HETATM   10  H   UNL     1      -7.489   2.433 -29.120  1.00  0.00     0.166 HD
HETATM   11  C   UNL     1      -6.721   4.406 -29.202  1.00  0.00     0.043 A 
HETATM   12  C   UNL     1      -5.608   4.923 -29.871  1.00  0.00    -0.001 A 
HETATM   13  C   UNL     1      -7.564   5.203 -28.417  1.00  0.00     0.030 A 
HETATM   14  C   UNL     1      -7.258   6.564 -28.312  1.00  0.00     0.002 A 
HETATM   15  C   UNL     1      -6.155   7.106 -28.968  1.00  0.00     0.001 A 
HETATM   16  C   UNL     1      -5.322   6.297 -29.750  1.00  0.00     0.014 A 
HETATM   17  O   UNL     1      -2.839   0.186 -33.036  1.00  0.00    -0.247 OA
HETATM   18  H   UNL     1      -5.764  -0.673 -32.152  1.00  0.00     0.171 HD
ENDROOT
BRANCH   1  19
HETATM   19  C   UNL     1      -4.667  -2.107 -33.085  1.00  0.00     0.071 A 
HETATM   20  C   UNL     1      -5.676  -2.562 -33.961  1.00  0.00     0.117 A 
HETATM   21  C   UNL     1      -5.618  -3.862 -34.487  1.00  0.00     0.069 A 
HETATM   22 CL   UNL     1      -6.885  -4.536 -35.448  1.00  0.00    -0.081 Cl
HETATM   23  C   UNL     1      -4.524  -4.681 -34.202  1.00  0.00     0.027 A 
HETATM   24  C   UNL     1      -3.504  -4.219 -33.373  1.00  0.00     0.004 A 
HETATM   25  C   UNL     1      -3.582  -2.942 -32.809  1.00  0.00     0.032 A 
BRANCH  20  26
HETATM   26  O   UNL     1      -6.724  -1.697 -34.197  1.00  0.00    -0.347 OA
BRANCH  26  27
HETATM   27  C   UNL     1      -6.462  -0.810 -35.294  1.00  0.00     0.171 C 
HETATM   28  C   UNL     1      -7.479   0.316 -35.245  1.00  0.00     0.034 C 
ENDBRANCH  26  27
ENDBRANCH  20  26
ENDBRANCH   1  19
TORSDOF 3
ENDMDL
MODEL 8
REMARK VINA RESULT:      -7.7      3.347      4.142
REMARK  3 active torsions:
REMARK  status: ('A' for Active; 'I' for Inactive)
REMARK    1  A    between atoms: C_2  and  O_3 
REMARK    2  A    between atoms: O_3  and  C_4 
REMARK    3  A    between atoms: C_10  and  N_11 
REMARK       I    between atoms: N_11  and  C_12 
REMARK       I    between atoms: C_12  and  N_13 
ROOT
HETATM    1  N   UNL     1      -7.160   2.968 -31.256  1.00  0.00    -0.306 N 
HETATM    2  C   UNL     1      -5.864   2.537 -31.412  1.00  0.00     0.323 C 
HETATM    3  N   UNL     1      -5.705   1.340 -32.118  1.00  0.00    -0.328 N 
HETATM    4  C   UNL     1      -6.787   0.693 -32.881  1.00  0.00     0.185 C 
HETATM    5  C   UNL     1      -6.361  -0.653 -33.352  1.00  0.00     0.035 A 
HETATM    6  C   UNL     1      -5.124  -1.237 -33.189  1.00  0.00    -0.020 A 
HETATM    7  C   UNL     1      -4.038  -0.528 -32.470  1.00  0.00     0.061 C 
HETATM    8  C   UNL     1      -4.314   0.984 -32.491  1.00  0.00     0.132 C 
HETATM    9  N   UNL     1      -7.152  -1.531 -34.045  1.00  0.00    -0.357 N 
HETATM   10  H   UNL     1      -8.112  -1.376 -34.318  1.00  0.00     0.166 HD
HETATM   11  C   UNL     1      -6.440  -2.678 -34.330  1.00  0.00     0.043 A 
HETATM   12  C   UNL     1      -5.158  -2.518 -33.799  1.00  0.00    -0.001 A 
HETATM   13  C   UNL     1      -6.834  -3.838 -35.010  1.00  0.00     0.030 A 
HETATM   14  C   UNL     1      -5.888  -4.858 -35.152  1.00  0.00     0.002 A 
HETATM   15  C   UNL     1      -4.602  -4.726 -34.633  1.00  0.00     0.001 A 
HETATM   16  C   UNL     1      -4.224  -3.561 -33.955  1.00  0.00     0.014 A 
HETATM   17  O   UNL     1      -4.887   3.148 -30.980  1.00  0.00    -0.247 OA
HETATM   18  H   UNL     1      -7.914   2.350 -31.509  1.00  0.00     0.171 HD
ENDROOT
BRANCH   1  19
HETATM   19  C   UNL     1      -7.614   4.195 -30.711  1.00  0.00     0.071 A 
HETATM   20  C   UNL     1      -8.139   5.144 -31.613  1.00  0.00     0.117 A 
HETATM   21  C   UNL     1      -8.523   6.415 -31.155  1.00  0.00     0.069 A 
HETATM   22 CL   UNL     1      -9.038   7.673 -32.219  1.00  0.00    -0.081 Cl
HETATM   23  C   UNL     1      -8.452   6.715 -29.793  1.00  0.00     0.027 A 
HETATM   24  C   UNL     1      -7.975   5.764 -28.893  1.00  0.00     0.004 A 
HETATM   25  C   UNL     1      -7.548   4.515 -29.353  1.00  0.00     0.032 A 
BRANCH  20  26
HETATM   26  O   UNL     1      -8.180   4.776 -32.942  1.00  0.00    -0.347 OA
BRANCH  26  27
HETATM   27  C   UNL     1      -9.500   4.404 -33.364  1.00  0.00     0.171 C 
HETATM   28  C   UNL     1      -9.704   4.912 -34.780  1.00  0.00     0.034 C 
ENDBRANCH  26  27
ENDBRANCH  20  26
ENDBRANCH   1  19
TORSDOF 3
ENDMDL
MODEL 9
REMARK VINA RESULT:      -7.7      5.320      8.699
REMARK  3 active torsions:
REMARK  status: ('A' for Active; 'I' for Inactive)
REMARK    1  A    between atoms: C_2  and  O_3 
REMARK    2  A    between atoms: O_3  and  C_4 
REMARK    3  A    between atoms: C_10  and  N_11 
REMARK       I    between atoms: N_11  and  C_12 
REMARK       I    between atoms: C_12  and  N_13 
ROOT
HETATM    1  N   UNL     1     -10.168   2.113 -33.318  1.00  0.00    -0.306 N 
HETATM    2  C   UNL     1      -9.227   1.797 -32.367  1.00  0.00     0.323 C 
HETATM    3  N   UNL     1      -7.990   2.436 -32.503  1.00  0.00    -0.328 N 
HETATM    4  C   UNL     1      -7.752   3.565 -33.420  1.00  0.00     0.185 C 
HETATM    5  C   UNL     1      -6.302   3.893 -33.478  1.00  0.00     0.035 A 
HETATM    6  C   UNL     1      -5.287   3.307 -32.753  1.00  0.00    -0.020 A 
HETATM    7  C   UNL     1      -5.574   2.215 -31.791  1.00  0.00     0.061 C 
HETATM    8  C   UNL     1      -7.051   2.284 -31.366  1.00  0.00     0.132 C 
HETATM    9  N   UNL     1      -5.744   4.857 -34.275  1.00  0.00    -0.357 N 
HETATM   10  H   UNL     1      -6.243   5.458 -34.916  1.00  0.00     0.166 HD
HETATM   11  C   UNL     1      -4.380   4.900 -34.074  1.00  0.00     0.043 A 
HETATM   12  C   UNL     1      -4.067   3.930 -33.119  1.00  0.00    -0.001 A 
HETATM   13  C   UNL     1      -3.407   5.717 -34.665  1.00  0.00     0.030 A 
HETATM   14  C   UNL     1      -2.079   5.536 -34.263  1.00  0.00     0.002 A 
HETATM   15  C   UNL     1      -1.738   4.577 -33.312  1.00  0.00     0.001 A 
HETATM   16  C   UNL     1      -2.722   3.768 -32.732  1.00  0.00     0.014 A 
HETATM   17  O   UNL     1      -9.434   1.015 -31.439  1.00  0.00    -0.247 OA
HETATM   18  H   UNL     1      -9.887   2.646 -34.125  1.00  0.00     0.171 HD
ENDROOT
BRANCH   1  19
HETATM   19  C   UNL     1     -11.533   1.731 -33.360  1.00  0.00     0.071 A 
HETATM   20  C   UNL     1     -12.485   2.705 -32.993  1.00  0.00     0.117 A 
HETATM   21  C   UNL     1     -13.846   2.369 -32.924  1.00  0.00     0.069 A 
HETATM   22 CL   UNL     1     -15.049   3.466 -32.346  1.00  0.00    -0.081 Cl
HETATM   23  C   UNL     1     -14.267   1.089 -33.288  1.00  0.00     0.027 A 
HETATM   24  C   UNL     1     -13.334   0.137 -33.694  1.00  0.00     0.004 A 
HETATM   25  C   UNL     1     -11.972   0.454 -33.718  1.00  0.00     0.032 A 
BRANCH  20  26
HETATM   26  O   UNL     1     -11.994   3.948 -32.648  1.00  0.00    -0.347 OA
BRANCH  26  27
HETATM   27  C   UNL     1     -12.376   4.964 -33.587  1.00  0.00     0.171 C 
HETATM   28  C   UNL     1     -11.166   5.300 -34.438  1.00  0.00     0.034 C 
ENDBRANCH  26  27
ENDBRANCH  20  26
ENDBRANCH   1  19
TORSDOF 3
ENDMDL
MODEL 10
REMARK VINA RESULT:      -7.6      3.923      8.775
REMARK  3 active torsions:
REMARK  status: ('A' for Active; 'I' for Inactive)
REMARK    1  A    between atoms: C_2  and  O_3 
REMARK    2  A    between atoms: O_3  and  C_4 
REMARK    3  A    between atoms: C_10  and  N_11 
REMARK       I    between atoms: N_11  and  C_12 
REMARK       I    between atoms: C_12  and  N_13 
ROOT
HETATM    1  N   UNL     1      -5.753   2.779 -32.874  1.00  0.00    -0.306 N 
HETATM    2  C   UNL     1      -5.846   4.150 -32.846  1.00  0.00     0.323 C 
HETATM    3  N   UNL     1      -4.762   4.819 -32.270  1.00  0.00    -0.328 N 
HETATM    4  C   UNL     1      -3.481   4.166 -31.943  1.00  0.00     0.185 C 
HETATM    5  C   UNL     1      -2.608   5.089 -31.168  1.00  0.00     0.035 A 
HETATM    6  C   UNL     1      -2.873   6.398 -30.832  1.00  0.00    -0.020 A 
HETATM    7  C   UNL     1      -4.147   7.042 -31.234  1.00  0.00     0.061 C 
HETATM    8  C   UNL     1      -4.741   6.292 -32.438  1.00  0.00     0.132 C 
HETATM    9  N   UNL     1      -1.373   4.770 -30.669  1.00  0.00    -0.357 N 
HETATM   10  H   UNL     1      -0.908   3.878 -30.762  1.00  0.00     0.166 HD
HETATM   11  C   UNL     1      -0.838   5.858 -30.011  1.00  0.00     0.043 A 
HETATM   12  C   UNL     1      -1.767   6.899 -30.099  1.00  0.00    -0.001 A 
HETATM   13  C   UNL     1       0.387   5.998 -29.347  1.00  0.00     0.030 A 
HETATM   14  C   UNL     1       0.670   7.236 -28.761  1.00  0.00     0.002 A 
HETATM   15  C   UNL     1      -0.238   8.291 -28.833  1.00  0.00     0.001 A 
HETATM   16  C   UNL     1      -1.459   8.135 -29.500  1.00  0.00     0.014 A 
HETATM   17  O   UNL     1      -6.803   4.776 -33.302  1.00  0.00    -0.247 OA
HETATM   18  H   UNL     1      -5.014   2.329 -32.360  1.00  0.00     0.171 HD
ENDROOT
BRANCH   1  19
HETATM   19  C   UNL     1      -6.624   1.855 -33.507  1.00  0.00     0.071 A 
HETATM   20  C   UNL     1      -7.739   1.412 -32.765  1.00  0.00     0.117 A 
HETATM   21  C   UNL     1      -8.592   0.430 -33.295  1.00  0.00     0.069 A 
HETATM   22 CL   UNL     1      -9.889  -0.263 -32.391  1.00  0.00    -0.081 Cl
HETATM   23  C   UNL     1      -8.377  -0.056 -34.586  1.00  0.00     0.027 A 
HETATM   24  C   UNL     1      -7.302   0.412 -35.338  1.00  0.00     0.004 A 
HETATM   25  C   UNL     1      -6.424   1.355 -34.796  1.00  0.00     0.032 A 
BRANCH  20  26
HETATM   26  O   UNL     1      -7.887   1.938 -31.499  1.00  0.00    -0.347 OA
BRANCH  26  27
HETATM   27  C   UNL     1      -9.048   2.774 -31.388  1.00  0.00     0.171 C 
HETATM   28  C   UNL     1      -8.742   3.880 -30.395  1.00  0.00     0.034 C 
ENDBRANCH  26  27
ENDBRANCH  20  26
ENDBRANCH   1  19
TORSDOF 3
ENDMDL
