MODEL 1
REMARK VINA RESULT:      -8.9      0.000      0.000
REMARK  10 active torsions:
REMARK  status: ('A' for Active; 'I' for Inactive)
REMARK    1  A    between atoms: C_4  and  N_5 
REMARK    2  A    between atoms: N_5  and  C_6 
REMARK    3  A    between atoms: C_6  and  N_7 
REMARK    4  A    between atoms: N_7  and  N_8 
REMARK       I    between atoms: N_8  and  C_9 
REMARK    5  A    between atoms: C_9  and  C_10 
REMARK    6  A    between atoms: C_10  and  O_11 
REMARK    7  A    between atoms: O_11  and  C_12 
REMARK    8  A    between atoms: C_23  and  C_24 
REMARK    9  A    between atoms: C_24  and  O_25 
REMARK   10  A    between atoms: C_28  and  C_29 
ROOT
HETATM    1  C   UNL     1      -4.190   5.355 -32.709  1.00  0.00     0.191 C 
HETATM    2  S   UNL     1      -4.835   4.883 -34.187  1.00  0.00    -0.039 SA
ENDROOT
BRANCH   1   3
HETATM    3  N   UNL     1      -3.309   6.408 -32.718  1.00  0.00    -0.325 N 
HETATM    4  H   UNL     1      -3.163   6.748 -33.665  1.00  0.00     0.169 HD
BRANCH   3   5
HETATM    5  C   UNL     1      -2.183   6.516 -31.917  1.00  0.00     0.094 C 
HETATM    6  S   UNL     1      -1.001   5.385 -32.397  1.00  0.00    -0.075 SA
HETATM    7  C   UNL     1      -0.069   5.661 -30.995  1.00  0.00    -0.007 C 
HETATM    8  C   UNL     1       1.131   4.807 -30.736  1.00  0.00     0.057 C 
HETATM    9  C   UNL     1      -0.588   6.706 -30.245  1.00  0.00     0.006 C 
HETATM   10  C   UNL     1      -1.748   7.321 -30.876  1.00  0.00     0.085 C 
BRANCH   9  11
HETATM   11  C   UNL     1      -0.010   7.050 -28.949  1.00  0.00    -0.024 A 
HETATM   12  C   UNL     1       0.959   8.061 -28.886  1.00  0.00     0.012 A 
HETATM   13  C   UNL     1       1.520   8.422 -27.661  1.00  0.00     0.001 A 
HETATM   14  C   UNL     1       1.115   7.777 -26.493  1.00  0.00     0.000 A 
HETATM   15  C   UNL     1       0.152   6.769 -26.551  1.00  0.00     0.001 A 
HETATM   16  C   UNL     1      -0.409   6.402 -27.776  1.00  0.00     0.012 A 
ENDBRANCH   9  11
BRANCH  10  17
HETATM   17  C   UNL     1      -2.367   8.596 -30.501  1.00  0.00     0.296 C 
HETATM   18  O   UNL     1      -2.269   9.614 -31.178  1.00  0.00    -0.259 OA
BRANCH  17  19
HETATM   19  O   UNL     1      -3.014   8.558 -29.303  1.00  0.00    -0.322 OA
HETATM   20  C   UNL     1      -2.745   9.670 -28.448  1.00  0.00     0.213 C 
ENDBRANCH  17  19
ENDBRANCH  10  17
ENDBRANCH   3   5
ENDBRANCH   1   3
BRANCH   1  21
HETATM   21  N   UNL     1      -4.410   4.698 -31.529  1.00  0.00    -0.273 N 
HETATM   22  H   UNL     1      -4.817   5.268 -30.784  1.00  0.00     0.189 HD
BRANCH  21  23
HETATM   23  N   UNL     1      -4.877   3.370 -31.507  1.00  0.00    -0.266 N 
HETATM   24  C   UNL     1      -3.941   2.361 -31.383  1.00  0.00     0.265 C 
HETATM   25  O   UNL     1      -2.749   2.566 -31.149  1.00  0.00    -0.269 OA
HETATM   26  H   UNL     1      -5.783   3.193 -31.939  1.00  0.00     0.190 HD
BRANCH  24  27
HETATM   27  C   UNL     1      -4.507   0.948 -31.545  1.00  0.00     0.218 C 
HETATM   28  C   UNL     1      -5.341   0.579 -30.322  1.00  0.00     0.050 C 
BRANCH  27  29
HETATM   29  O   UNL     1      -5.363   0.872 -32.686  1.00  0.00    -0.335 OA
BRANCH  29  30
HETATM   30  C   UNL     1      -5.514  -0.361 -33.266  1.00  0.00     0.091 A 
HETATM   31  C   UNL     1      -6.821  -0.786 -33.555  1.00  0.00     0.068 A 
HETATM   32 CL   UNL     1      -8.189   0.190 -33.148  1.00  0.00    -0.081 Cl
HETATM   33  C   UNL     1      -7.053  -2.021 -34.164  1.00  0.00     0.046 A 
HETATM   34  C   UNL     1      -5.974  -2.831 -34.500  1.00  0.00     0.012 A 
HETATM   35 BR   UNL     1      -6.276  -4.505 -35.324  1.00  0.00    -0.051 Br
HETATM   36  C   UNL     1      -4.669  -2.416 -34.241  1.00  0.00     0.022 A 
HETATM   37  C   UNL     1      -4.439  -1.180 -33.629  1.00  0.00     0.040 A 
ENDBRANCH  29  30
ENDBRANCH  27  29
ENDBRANCH  24  27
ENDBRANCH  21  23
ENDBRANCH   1  21
TORSDOF 10
ENDMDL
MODEL 2
REMARK VINA RESULT:      -8.6      1.497      1.899
REMARK  10 active torsions:
REMARK  status: ('A' for Active; 'I' for Inactive)
REMARK    1  A    between atoms: C_4  and  N_5 
REMARK    2  A    between atoms: N_5  and  C_6 
REMARK    3  A    between atoms: C_6  and  N_7 
REMARK    4  A    between atoms: N_7  and  N_8 
REMARK       I    between atoms: N_8  and  C_9 
REMARK    5  A    between atoms: C_9  and  C_10 
REMARK    6  A    between atoms: C_10  and  O_11 
REMARK    7  A    between atoms: O_11  and  C_12 
REMARK    8  A    between atoms: C_23  and  C_24 
REMARK    9  A    between atoms: C_24  and  O_25 
REMARK   10  A    between atoms: C_28  and  C_29 
ROOT
HETATM    1  C   UNL     1      -4.870   5.521 -30.698  1.00  0.00     0.191 C 
HETATM    2  S   UNL     1      -6.250   6.436 -30.986  1.00  0.00    -0.039 SA
ENDROOT
BRANCH   1   3
HETATM    3  N   UNL     1      -3.739   5.855 -31.403  1.00  0.00    -0.325 N 
HETATM    4  H   UNL     1      -3.683   5.324 -32.267  1.00  0.00     0.169 HD
BRANCH   3   5
HETATM    5  C   UNL     1      -2.499   6.126 -30.844  1.00  0.00     0.094 C 
HETATM    6  S   UNL     1      -1.339   5.006 -31.399  1.00  0.00    -0.075 SA
HETATM    7  C   UNL     1      -0.196   5.512 -30.238  1.00  0.00    -0.007 C 
HETATM    8  C   UNL     1       1.093   4.764 -30.108  1.00  0.00     0.057 C 
HETATM    9  C   UNL     1      -0.651   6.617 -29.534  1.00  0.00     0.006 C 
HETATM   10  C   UNL     1      -1.948   7.082 -30.006  1.00  0.00     0.085 C 
BRANCH   9  11
HETATM   11  C   UNL     1       0.121   7.158 -28.418  1.00  0.00    -0.024 A 
HETATM   12  C   UNL     1      -0.084   6.632 -27.134  1.00  0.00     0.012 A 
HETATM   13  C   UNL     1       0.647   7.119 -26.050  1.00  0.00     0.001 A 
HETATM   14  C   UNL     1       1.586   8.130 -26.244  1.00  0.00     0.000 A 
HETATM   15  C   UNL     1       1.793   8.657 -27.519  1.00  0.00     0.001 A 
HETATM   16  C   UNL     1       1.061   8.176 -28.606  1.00  0.00     0.012 A 
ENDBRANCH   9  11
BRANCH  10  17
HETATM   17  C   UNL     1      -2.585   8.360 -29.676  1.00  0.00     0.296 C 
HETATM   18  O   UNL     1      -2.059   9.447 -29.888  1.00  0.00    -0.259 OA
BRANCH  17  19
HETATM   19  O   UNL     1      -3.795   8.226 -29.061  1.00  0.00    -0.322 OA
HETATM   20  C   UNL     1      -3.725   7.790 -27.704  1.00  0.00     0.213 C 
ENDBRANCH  17  19
ENDBRANCH  10  17
ENDBRANCH   3   5
ENDBRANCH   1   3
BRANCH   1  21
HETATM   21  N   UNL     1      -4.834   4.418 -29.890  1.00  0.00    -0.273 N 
HETATM   22  H   UNL     1      -4.906   4.610 -28.888  1.00  0.00     0.189 HD
BRANCH  21  23
HETATM   23  N   UNL     1      -5.478   3.222 -30.256  1.00  0.00    -0.266 N 
HETATM   24  C   UNL     1      -4.822   2.380 -31.134  1.00  0.00     0.265 C 
HETATM   25  O   UNL     1      -3.657   2.551 -31.496  1.00  0.00    -0.269 OA
HETATM   26  H   UNL     1      -6.494   3.201 -30.172  1.00  0.00     0.190 HD
BRANCH  24  27
HETATM   27  C   UNL     1      -5.659   1.193 -31.620  1.00  0.00     0.218 C 
HETATM   28  C   UNL     1      -7.121   1.395 -31.232  1.00  0.00     0.050 C 
BRANCH  27  29
HETATM   29  O   UNL     1      -5.605   1.082 -33.043  1.00  0.00    -0.335 OA
BRANCH  29  30
HETATM   30  C   UNL     1      -5.786  -0.170 -33.573  1.00  0.00     0.091 A 
HETATM   31  C   UNL     1      -4.679  -1.033 -33.589  1.00  0.00     0.068 A 
HETATM   32 CL   UNL     1      -3.134  -0.516 -33.010  1.00  0.00    -0.081 Cl
HETATM   33  C   UNL     1      -4.791  -2.331 -34.094  1.00  0.00     0.046 A 
HETATM   34  C   UNL     1      -6.020  -2.774 -34.571  1.00  0.00     0.012 A 
HETATM   35 BR   UNL     1      -6.183  -4.529 -35.256  1.00  0.00    -0.051 Br
HETATM   36  C   UNL     1      -7.134  -1.939 -34.541  1.00  0.00     0.022 A 
HETATM   37  C   UNL     1      -7.020  -0.640 -34.037  1.00  0.00     0.040 A 
ENDBRANCH  29  30
ENDBRANCH  27  29
ENDBRANCH  24  27
ENDBRANCH  21  23
ENDBRANCH   1  21
TORSDOF 10
ENDMDL
MODEL 3
REMARK VINA RESULT:      -8.5      4.127     10.411
REMARK  10 active torsions:
REMARK  status: ('A' for Active; 'I' for Inactive)
REMARK    1  A    between atoms: C_4  and  N_5 
REMARK    2  A    between atoms: N_5  and  C_6 
REMARK    3  A    between atoms: C_6  and  N_7 
REMARK    4  A    between atoms: N_7  and  N_8 
REMARK       I    between atoms: N_8  and  C_9 
REMARK    5  A    between atoms: C_9  and  C_10 
REMARK    6  A    between atoms: C_10  and  O_11 
REMARK    7  A    between atoms: O_11  and  C_12 
REMARK    8  A    between atoms: C_23  and  C_24 
REMARK    9  A    between atoms: C_24  and  O_25 
REMARK   10  A    between atoms: C_28  and  C_29 
ROOT
HETATM    1  C   UNL     1      -5.190   3.042 -30.576  1.00  0.00     0.191 C 
HETATM    2  S   UNL     1      -5.877   4.315 -29.720  1.00  0.00    -0.039 SA
ENDROOT
BRANCH   1   3
HETATM    3  N   UNL     1      -5.962   1.921 -30.759  1.00  0.00    -0.325 N 
HETATM    4  H   UNL     1      -6.015   1.376 -29.903  1.00  0.00     0.169 HD
BRANCH   3   5
HETATM    5  C   UNL     1      -5.984   1.144 -31.907  1.00  0.00     0.094 C 
HETATM    6  S   UNL     1      -6.940   1.884 -33.109  1.00  0.00    -0.075 SA
HETATM    7  C   UNL     1      -6.933   0.479 -34.076  1.00  0.00    -0.007 C 
HETATM    8  C   UNL     1      -7.775   0.439 -35.311  1.00  0.00     0.057 C 
HETATM    9  C   UNL     1      -6.094  -0.490 -33.548  1.00  0.00     0.006 C 
HETATM   10  C   UNL     1      -5.404  -0.035 -32.348  1.00  0.00     0.085 C 
BRANCH   9  11
HETATM   11  C   UNL     1      -6.012  -1.816 -34.156  1.00  0.00    -0.024 A 
HETATM   12  C   UNL     1      -7.095  -2.695 -34.013  1.00  0.00     0.012 A 
HETATM   13  C   UNL     1      -7.052  -3.963 -34.593  1.00  0.00     0.001 A 
HETATM   14  C   UNL     1      -5.930  -4.358 -35.319  1.00  0.00     0.000 A 
HETATM   15  C   UNL     1      -4.849  -3.487 -35.462  1.00  0.00     0.001 A 
HETATM   16  C   UNL     1      -4.885  -2.219 -34.880  1.00  0.00     0.012 A 
ENDBRANCH   9  11
BRANCH  10  17
HETATM   17  C   UNL     1      -4.263  -0.690 -31.701  1.00  0.00     0.296 C 
HETATM   18  O   UNL     1      -3.429  -0.083 -31.037  1.00  0.00    -0.259 OA
BRANCH  17  19
HETATM   19  O   UNL     1      -4.186  -2.027 -31.952  1.00  0.00    -0.322 OA
HETATM   20  C   UNL     1      -2.878  -2.582 -31.812  1.00  0.00     0.213 C 
ENDBRANCH  17  19
ENDBRANCH  10  17
ENDBRANCH   3   5
ENDBRANCH   1   3
BRANCH   1  21
HETATM   21  N   UNL     1      -3.892   3.019 -31.008  1.00  0.00    -0.273 N 
HETATM   22  H   UNL     1      -3.725   2.467 -31.853  1.00  0.00     0.189 HD
BRANCH  21  23
HETATM   23  N   UNL     1      -3.079   4.165 -30.945  1.00  0.00    -0.266 N 
HETATM   24  C   UNL     1      -2.275   4.444 -32.034  1.00  0.00     0.265 C 
HETATM   25  O   UNL     1      -2.337   3.830 -33.099  1.00  0.00    -0.269 OA
HETATM   26  H   UNL     1      -2.840   4.511 -30.016  1.00  0.00     0.190 HD
BRANCH  24  27
HETATM   27  C   UNL     1      -1.295   5.601 -31.817  1.00  0.00     0.218 C 
HETATM   28  C   UNL     1      -1.124   6.386 -33.114  1.00  0.00     0.050 C 
BRANCH  27  29
HETATM   29  O   UNL     1      -1.789   6.507 -30.829  1.00  0.00    -0.335 OA
BRANCH  29  30
HETATM   30  C   UNL     1      -0.932   6.840 -29.812  1.00  0.00     0.091 A 
HETATM   31  C   UNL     1      -0.987   8.154 -29.321  1.00  0.00     0.068 A 
HETATM   32 CL   UNL     1      -2.061   9.321 -30.012  1.00  0.00    -0.081 Cl
HETATM   33  C   UNL     1      -0.161   8.562 -28.272  1.00  0.00     0.046 A 
HETATM   34  C   UNL     1       0.716   7.647 -27.698  1.00  0.00     0.012 A 
HETATM   35 BR   UNL     1       1.840   8.188 -26.278  1.00  0.00    -0.051 Br
HETATM   36  C   UNL     1       0.769   6.333 -28.157  1.00  0.00     0.022 A 
HETATM   37  C   UNL     1      -0.058   5.928 -29.209  1.00  0.00     0.040 A 
ENDBRANCH  29  30
ENDBRANCH  27  29
ENDBRANCH  24  27
ENDBRANCH  21  23
ENDBRANCH   1  21
TORSDOF 10
ENDMDL
MODEL 4
REMARK VINA RESULT:      -8.3      4.239      9.425
REMARK  10 active torsions:
REMARK  status: ('A' for Active; 'I' for Inactive)
REMARK    1  A    between atoms: C_4  and  N_5 
REMARK    2  A    between atoms: N_5  and  C_6 
REMARK    3  A    between atoms: C_6  and  N_7 
REMARK    4  A    between atoms: N_7  and  N_8 
REMARK       I    between atoms: N_8  and  C_9 
REMARK    5  A    between atoms: C_9  and  C_10 
REMARK    6  A    between atoms: C_10  and  O_11 
REMARK    7  A    between atoms: O_11  and  C_12 
REMARK    8  A    between atoms: C_23  and  C_24 
REMARK    9  A    between atoms: C_24  and  O_25 
REMARK   10  A    between atoms: C_28  and  C_29 
ROOT
HETATM    1  C   UNL     1      -5.385   5.099 -29.124  1.00  0.00     0.191 C 
HETATM    2  S   UNL     1      -5.688   5.809 -27.632  1.00  0.00    -0.039 SA
ENDROOT
BRANCH   1   3
HETATM    3  N   UNL     1      -5.610   3.748 -29.233  1.00  0.00    -0.325 N 
HETATM    4  H   UNL     1      -4.824   3.221 -28.863  1.00  0.00     0.169 HD
BRANCH   3   5
HETATM    5  C   UNL     1      -6.235   3.125 -30.301  1.00  0.00     0.094 C 
HETATM    6  S   UNL     1      -7.929   3.170 -30.108  1.00  0.00    -0.075 SA
HETATM    7  C   UNL     1      -8.171   2.056 -31.376  1.00  0.00    -0.007 C 
HETATM    8  C   UNL     1      -9.551   1.540 -31.641  1.00  0.00     0.057 C 
HETATM    9  C   UNL     1      -6.981   1.767 -32.026  1.00  0.00     0.006 C 
HETATM   10  C   UNL     1      -5.858   2.527 -31.493  1.00  0.00     0.085 C 
BRANCH   9  11
HETATM   11  C   UNL     1      -6.934   0.757 -33.079  1.00  0.00    -0.024 A 
HETATM   12  C   UNL     1      -6.598  -0.562 -32.740  1.00  0.00     0.012 A 
HETATM   13  C   UNL     1      -6.557  -1.552 -33.721  1.00  0.00     0.001 A 
HETATM   14  C   UNL     1      -6.853  -1.231 -35.045  1.00  0.00     0.000 A 
HETATM   15  C   UNL     1      -7.185   0.080 -35.389  1.00  0.00     0.001 A 
HETATM   16  C   UNL     1      -7.224   1.075 -34.410  1.00  0.00     0.012 A 
ENDBRANCH   9  11
BRANCH  10  17
HETATM   17  C   UNL     1      -4.535   2.668 -32.107  1.00  0.00     0.296 C 
HETATM   18  O   UNL     1      -4.369   3.020 -33.270  1.00  0.00    -0.259 OA
BRANCH  17  19
HETATM   19  O   UNL     1      -3.508   2.318 -31.282  1.00  0.00    -0.322 OA
HETATM   20  C   UNL     1      -3.322   0.910 -31.131  1.00  0.00     0.213 C 
ENDBRANCH  17  19
ENDBRANCH  10  17
ENDBRANCH   3   5
ENDBRANCH   1   3
BRANCH   1  21
HETATM   21  N   UNL     1      -4.840   5.758 -30.192  1.00  0.00    -0.273 N 
HETATM   22  H   UNL     1      -5.121   6.737 -30.290  1.00  0.00     0.189 HD
BRANCH  21  23
HETATM   23  N   UNL     1      -3.505   5.541 -30.582  1.00  0.00    -0.266 N 
HETATM   24  C   UNL     1      -3.148   5.884 -31.872  1.00  0.00     0.265 C 
HETATM   25  O   UNL     1      -3.891   6.493 -32.643  1.00  0.00    -0.269 OA
HETATM   26  H   UNL     1      -2.982   4.835 -30.065  1.00  0.00     0.190 HD
BRANCH  24  27
HETATM   27  C   UNL     1      -1.734   5.455 -32.274  1.00  0.00     0.218 C 
HETATM   28  C   UNL     1      -1.694   5.122 -33.762  1.00  0.00     0.050 C 
BRANCH  27  29
HETATM   29  O   UNL     1      -0.799   6.510 -32.045  1.00  0.00    -0.335 OA
BRANCH  29  30
HETATM   30  C   UNL     1      -0.369   6.688 -30.755  1.00  0.00     0.091 A 
HETATM   31  C   UNL     1      -0.796   7.845 -30.084  1.00  0.00     0.068 A 
HETATM   32 CL   UNL     1      -1.783   9.024 -30.874  1.00  0.00    -0.081 Cl
HETATM   33  C   UNL     1      -0.417   8.085 -28.761  1.00  0.00     0.046 A 
HETATM   34  C   UNL     1       0.380   7.157 -28.099  1.00  0.00     0.012 A 
HETATM   35 BR   UNL     1       0.899   7.471 -26.309  1.00  0.00    -0.051 Br
HETATM   36  C   UNL     1       0.794   5.993 -28.743  1.00  0.00     0.022 A 
HETATM   37  C   UNL     1       0.415   5.755 -30.067  1.00  0.00     0.040 A 
ENDBRANCH  29  30
ENDBRANCH  27  29
ENDBRANCH  24  27
ENDBRANCH  21  23
ENDBRANCH   1  21
TORSDOF 10
ENDMDL
MODEL 5
REMARK VINA RESULT:      -8.2      4.006     10.085
REMARK  10 active torsions:
REMARK  status: ('A' for Active; 'I' for Inactive)
REMARK    1  A    between atoms: C_4  and  N_5 
REMARK    2  A    between atoms: N_5  and  C_6 
REMARK    3  A    between atoms: C_6  and  N_7 
REMARK    4  A    between atoms: N_7  and  N_8 
REMARK       I    between atoms: N_8  and  C_9 
REMARK    5  A    between atoms: C_9  and  C_10 
REMARK    6  A    between atoms: C_10  and  O_11 
REMARK    7  A    between atoms: O_11  and  C_12 
REMARK    8  A    between atoms: C_23  and  C_24 
REMARK    9  A    between atoms: C_24  and  O_25 
REMARK   10  A    between atoms: C_28  and  C_29 
ROOT
HETATM    1  C   UNL     1      -4.721   2.948 -31.181  1.00  0.00     0.191 C 
HETATM    2  S   UNL     1      -6.112   2.409 -30.408  1.00  0.00    -0.039 SA
ENDROOT
BRANCH   1   3
HETATM    3  N   UNL     1      -4.242   2.182 -32.216  1.00  0.00    -0.325 N 
HETATM    4  H   UNL     1      -4.251   2.705 -33.087  1.00  0.00     0.169 HD
BRANCH   3   5
HETATM    5  C   UNL     1      -4.485   0.828 -32.387  1.00  0.00     0.094 C 
HETATM    6  S   UNL     1      -3.443  -0.093 -31.401  1.00  0.00    -0.075 SA
HETATM    7  C   UNL     1      -3.864  -1.544 -32.194  1.00  0.00    -0.007 C 
HETATM    8  C   UNL     1      -3.132  -2.802 -31.850  1.00  0.00     0.057 C 
HETATM    9  C   UNL     1      -4.891  -1.340 -33.103  1.00  0.00     0.006 C 
HETATM   10  C   UNL     1      -5.371   0.036 -33.099  1.00  0.00     0.085 C 
BRANCH   9  11
HETATM   11  C   UNL     1      -5.343  -2.424 -33.971  1.00  0.00    -0.024 A 
HETATM   12  C   UNL     1      -6.696  -2.792 -33.947  1.00  0.00     0.012 A 
HETATM   13  C   UNL     1      -7.161  -3.814 -34.773  1.00  0.00     0.001 A 
HETATM   14  C   UNL     1      -6.279  -4.473 -35.628  1.00  0.00     0.000 A 
HETATM   15  C   UNL     1      -4.931  -4.111 -35.655  1.00  0.00     0.001 A 
HETATM   16  C   UNL     1      -4.461  -3.091 -34.826  1.00  0.00     0.012 A 
ENDBRANCH   9  11
BRANCH  10  17
HETATM   17  C   UNL     1      -6.602   0.527 -33.726  1.00  0.00     0.296 C 
HETATM   18  O   UNL     1      -6.621   1.100 -34.810  1.00  0.00    -0.259 OA
BRANCH  17  19
HETATM   19  O   UNL     1      -7.717   0.336 -32.966  1.00  0.00    -0.322 OA
HETATM   20  C   UNL     1      -8.949   0.491 -33.670  1.00  0.00     0.213 C 
ENDBRANCH  17  19
ENDBRANCH  10  17
ENDBRANCH   3   5
ENDBRANCH   1   3
BRANCH   1  21
HETATM   21  N   UNL     1      -3.993   4.035 -30.783  1.00  0.00    -0.273 N 
HETATM   22  H   UNL     1      -4.034   4.243 -29.782  1.00  0.00     0.189 HD
BRANCH  21  23
HETATM   23  N   UNL     1      -2.730   4.313 -31.338  1.00  0.00    -0.266 N 
HETATM   24  C   UNL     1      -2.671   5.217 -32.382  1.00  0.00     0.265 C 
HETATM   25  O   UNL     1      -3.634   5.891 -32.752  1.00  0.00    -0.269 OA
HETATM   26  H   UNL     1      -2.007   3.604 -31.219  1.00  0.00     0.190 HD
BRANCH  24  27
HETATM   27  C   UNL     1      -1.296   5.331 -33.045  1.00  0.00     0.218 C 
HETATM   28  C   UNL     1      -1.452   5.371 -34.562  1.00  0.00     0.050 C 
BRANCH  27  29
HETATM   29  O   UNL     1      -0.639   6.536 -32.650  1.00  0.00    -0.335 OA
BRANCH  29  30
HETATM   30  C   UNL     1      -0.324   6.661 -31.321  1.00  0.00     0.091 A 
HETATM   31  C   UNL     1      -0.927   7.710 -30.608  1.00  0.00     0.068 A 
HETATM   32 CL   UNL     1      -1.986   8.830 -31.392  1.00  0.00    -0.081 Cl
HETATM   33  C   UNL     1      -0.672   7.889 -29.247  1.00  0.00     0.046 A 
HETATM   34  C   UNL     1       0.179   7.007 -28.589  1.00  0.00     0.012 A 
HETATM   35 BR   UNL     1       0.532   7.240 -26.747  1.00  0.00    -0.051 Br
HETATM   36  C   UNL     1       0.768   5.948 -29.276  1.00  0.00     0.022 A 
HETATM   37  C   UNL     1       0.513   5.771 -30.639  1.00  0.00     0.040 A 
ENDBRANCH  29  30
ENDBRANCH  27  29
ENDBRANCH  24  27
ENDBRANCH  21  23
ENDBRANCH   1  21
TORSDOF 10
ENDMDL
MODEL 6
REMARK VINA RESULT:      -8.1      4.983      9.312
REMARK  10 active torsions:
REMARK  status: ('A' for Active; 'I' for Inactive)
REMARK    1  A    between atoms: C_4  and  N_5 
REMARK    2  A    between atoms: N_5  and  C_6 
REMARK    3  A    between atoms: C_6  and  N_7 
REMARK    4  A    between atoms: N_7  and  N_8 
REMARK       I    between atoms: N_8  and  C_9 
REMARK    5  A    between atoms: C_9  and  C_10 
REMARK    6  A    between atoms: C_10  and  O_11 
REMARK    7  A    between atoms: O_11  and  C_12 
REMARK    8  A    between atoms: C_23  and  C_24 
REMARK    9  A    between atoms: C_24  and  O_25 
REMARK   10  A    between atoms: C_28  and  C_29 
ROOT
HETATM    1  C   UNL     1      -7.906   6.012 -32.621  1.00  0.00     0.191 C 
HETATM    2  S   UNL     1      -8.829   7.239 -31.937  1.00  0.00    -0.039 SA
ENDROOT
BRANCH   1   3
HETATM    3  N   UNL     1      -8.256   5.595 -33.883  1.00  0.00    -0.325 N 
HETATM    4  H   UNL     1      -7.914   6.245 -34.585  1.00  0.00     0.169 HD
BRANCH   3   5
HETATM    5  C   UNL     1      -9.462   5.003 -34.223  1.00  0.00     0.094 C 
HETATM    6  S   UNL     1     -10.334   6.002 -35.295  1.00  0.00    -0.075 SA
HETATM    7  C   UNL     1     -11.751   5.070 -35.119  1.00  0.00    -0.007 C 
HETATM    8  C   UNL     1     -13.019   5.542 -35.757  1.00  0.00     0.057 C 
HETATM    9  C   UNL     1     -11.514   3.932 -34.362  1.00  0.00     0.006 C 
HETATM   10  C   UNL     1     -10.117   3.809 -33.968  1.00  0.00     0.085 C 
BRANCH   9  11
HETATM   11  C   UNL     1     -12.610   3.040 -33.996  1.00  0.00    -0.024 A 
HETATM   12  C   UNL     1     -12.886   1.934 -34.814  1.00  0.00     0.012 A 
HETATM   13  C   UNL     1     -13.918   1.056 -34.484  1.00  0.00     0.001 A 
HETATM   14  C   UNL     1     -14.678   1.276 -33.336  1.00  0.00     0.000 A 
HETATM   15  C   UNL     1     -14.408   2.375 -32.520  1.00  0.00     0.001 A 
HETATM   16  C   UNL     1     -13.379   3.259 -32.848  1.00  0.00     0.012 A 
ENDBRANCH   9  11
BRANCH  10  17
HETATM   17  C   UNL     1      -9.476   2.617 -33.405  1.00  0.00     0.296 C 
HETATM   18  O   UNL     1      -9.538   1.510 -33.930  1.00  0.00    -0.259 OA
BRANCH  17  19
HETATM   19  O   UNL     1      -8.850   2.842 -32.215  1.00  0.00    -0.322 OA
HETATM   20  C   UNL     1      -9.731   3.082 -31.118  1.00  0.00     0.213 C 
ENDBRANCH  17  19
ENDBRANCH  10  17
ENDBRANCH   3   5
ENDBRANCH   1   3
BRANCH   1  21
HETATM   21  N   UNL     1      -6.906   5.347 -31.968  1.00  0.00    -0.273 N 
HETATM   22  H   UNL     1      -7.051   5.221 -30.963  1.00  0.00     0.189 HD
BRANCH  21  23
HETATM   23  N   UNL     1      -6.250   4.250 -32.557  1.00  0.00    -0.266 N 
HETATM   24  C   UNL     1      -5.611   3.356 -31.719  1.00  0.00     0.265 C 
HETATM   25  O   UNL     1      -5.706   3.390 -30.491  1.00  0.00    -0.269 OA
HETATM   26  H   UNL     1      -5.961   4.354 -33.529  1.00  0.00     0.190 HD
BRANCH  24  27
HETATM   27  C   UNL     1      -4.776   2.296 -32.442  1.00  0.00     0.218 C 
HETATM   28  C   UNL     1      -3.301   2.686 -32.410  1.00  0.00     0.050 C 
BRANCH  27  29
HETATM   29  O   UNL     1      -4.897   1.027 -31.797  1.00  0.00    -0.335 OA
BRANCH  29  30
HETATM   30  C   UNL     1      -5.218  -0.043 -32.593  1.00  0.00     0.091 A 
HETATM   31  C   UNL     1      -4.249  -1.047 -32.751  1.00  0.00     0.068 A 
HETATM   32 CL   UNL     1      -2.693  -0.911 -32.009  1.00  0.00    -0.081 Cl
HETATM   33  C   UNL     1      -4.510  -2.177 -33.528  1.00  0.00     0.046 A 
HETATM   34  C   UNL     1      -5.751  -2.313 -34.141  1.00  0.00     0.012 A 
HETATM   35 BR   UNL     1      -6.115  -3.839 -35.196  1.00  0.00    -0.051 Br
HETATM   36  C   UNL     1      -6.732  -1.338 -33.977  1.00  0.00     0.022 A 
HETATM   37  C   UNL     1      -6.469  -0.206 -33.199  1.00  0.00     0.040 A 
ENDBRANCH  29  30
ENDBRANCH  27  29
ENDBRANCH  24  27
ENDBRANCH  21  23
ENDBRANCH   1  21
TORSDOF 10
ENDMDL
MODEL 7
REMARK VINA RESULT:      -8.1      2.764      3.866
REMARK  10 active torsions:
REMARK  status: ('A' for Active; 'I' for Inactive)
REMARK    1  A    between atoms: C_4  and  N_5 
REMARK    2  A    between atoms: N_5  and  C_6 
REMARK    3  A    between atoms: C_6  and  N_7 
REMARK    4  A    between atoms: N_7  and  N_8 
REMARK       I    between atoms: N_8  and  C_9 
REMARK    5  A    between atoms: C_9  and  C_10 
REMARK    6  A    between atoms: C_10  and  O_11 
REMARK    7  A    between atoms: O_11  and  C_12 
REMARK    8  A    between atoms: C_23  and  C_24 
REMARK    9  A    between atoms: C_24  and  O_25 
REMARK   10  A    between atoms: C_28  and  C_29 
ROOT
HETATM    1  C   UNL     1      -8.227   4.318 -29.982  1.00  0.00     0.191 C 
HETATM    2  S   UNL     1      -9.762   3.787 -30.412  1.00  0.00    -0.039 SA
ENDROOT
BRANCH   1   3
HETATM    3  N   UNL     1      -7.848   5.562 -30.425  1.00  0.00    -0.325 N 
HETATM    4  H   UNL     1      -8.651   6.086 -30.760  1.00  0.00     0.169 HD
BRANCH   3   5
HETATM    5  C   UNL     1      -6.681   5.843 -31.119  1.00  0.00     0.094 C 
HETATM    6  S   UNL     1      -6.822   5.344 -32.743  1.00  0.00    -0.075 SA
HETATM    7  C   UNL     1      -5.153   5.559 -33.024  1.00  0.00    -0.007 C 
HETATM    8  C   UNL     1      -4.572   5.131 -34.335  1.00  0.00     0.057 C 
HETATM    9  C   UNL     1      -4.529   6.138 -31.929  1.00  0.00     0.006 C 
HETATM   10  C   UNL     1      -5.467   6.457 -30.860  1.00  0.00     0.085 C 
BRANCH   9  11
HETATM   11  C   UNL     1      -3.081   6.320 -31.907  1.00  0.00    -0.024 A 
HETATM   12  C   UNL     1      -2.282   5.335 -31.308  1.00  0.00     0.012 A 
HETATM   13  C   UNL     1      -0.895   5.474 -31.283  1.00  0.00     0.001 A 
HETATM   14  C   UNL     1      -0.298   6.595 -31.857  1.00  0.00     0.000 A 
HETATM   15  C   UNL     1      -1.088   7.579 -32.453  1.00  0.00     0.001 A 
HETATM   16  C   UNL     1      -2.477   7.446 -32.477  1.00  0.00     0.012 A 
ENDBRANCH   9  11
BRANCH  10  17
HETATM   17  C   UNL     1      -5.199   7.305 -29.695  1.00  0.00     0.296 C 
HETATM   18  O   UNL     1      -4.385   8.222 -29.705  1.00  0.00    -0.259 OA
BRANCH  17  19
HETATM   19  O   UNL     1      -5.900   6.944 -28.583  1.00  0.00    -0.322 OA
HETATM   20  C   UNL     1      -5.180   6.114 -27.672  1.00  0.00     0.213 C 
ENDBRANCH  17  19
ENDBRANCH  10  17
ENDBRANCH   3   5
ENDBRANCH   1   3
BRANCH   1  21
HETATM   21  N   UNL     1      -7.309   3.556 -29.312  1.00  0.00    -0.273 N 
HETATM   22  H   UNL     1      -7.366   3.603 -28.292  1.00  0.00     0.189 HD
BRANCH  21  23
HETATM   23  N   UNL     1      -6.946   2.276 -29.772  1.00  0.00    -0.266 N 
HETATM   24  C   UNL     1      -5.715   2.139 -30.385  1.00  0.00     0.265 C 
HETATM   25  O   UNL     1      -4.871   3.035 -30.421  1.00  0.00    -0.269 OA
HETATM   26  H   UNL     1      -7.705   1.624 -29.969  1.00  0.00     0.190 HD
BRANCH  24  27
HETATM   27  C   UNL     1      -5.470   0.764 -31.012  1.00  0.00     0.218 C 
HETATM   28  C   UNL     1      -6.414  -0.264 -30.397  1.00  0.00     0.050 C 
BRANCH  27  29
HETATM   29  O   UNL     1      -5.727   0.794 -32.417  1.00  0.00    -0.335 OA
BRANCH  29  30
HETATM   30  C   UNL     1      -5.771  -0.414 -33.064  1.00  0.00     0.091 A 
HETATM   31  C   UNL     1      -7.007  -0.825 -33.587  1.00  0.00     0.068 A 
HETATM   32 CL   UNL     1      -8.430   0.135 -33.377  1.00  0.00    -0.081 Cl
HETATM   33  C   UNL     1      -7.127  -2.033 -34.277  1.00  0.00     0.046 A 
HETATM   34  C   UNL     1      -6.001  -2.830 -34.460  1.00  0.00     0.012 A 
HETATM   35 BR   UNL     1      -6.151  -4.468 -35.392  1.00  0.00    -0.051 Br
HETATM   36  C   UNL     1      -4.762  -2.427 -33.967  1.00  0.00     0.022 A 
HETATM   37  C   UNL     1      -4.645  -1.218 -33.275  1.00  0.00     0.040 A 
ENDBRANCH  29  30
ENDBRANCH  27  29
ENDBRANCH  24  27
ENDBRANCH  21  23
ENDBRANCH   1  21
TORSDOF 10
ENDMDL
MODEL 8
REMARK VINA RESULT:      -8.0      2.641      3.703
REMARK  10 active torsions:
REMARK  status: ('A' for Active; 'I' for Inactive)
REMARK    1  A    between atoms: C_4  and  N_5 
REMARK    2  A    between atoms: N_5  and  C_6 
REMARK    3  A    between atoms: C_6  and  N_7 
REMARK    4  A    between atoms: N_7  and  N_8 
REMARK       I    between atoms: N_8  and  C_9 
REMARK    5  A    between atoms: C_9  and  C_10 
REMARK    6  A    between atoms: C_10  and  O_11 
REMARK    7  A    between atoms: O_11  and  C_12 
REMARK    8  A    between atoms: C_23  and  C_24 
REMARK    9  A    between atoms: C_24  and  O_25 
REMARK   10  A    between atoms: C_28  and  C_29 
ROOT
HETATM    1  C   UNL     1      -7.242   4.849 -31.519  1.00  0.00     0.191 C 
HETATM    2  S   UNL     1      -8.222   5.850 -30.590  1.00  0.00    -0.039 SA
ENDROOT
BRANCH   1   3
HETATM    3  N   UNL     1      -6.624   5.414 -32.608  1.00  0.00    -0.325 N 
HETATM    4  H   UNL     1      -7.049   5.091 -33.472  1.00  0.00     0.169 HD
BRANCH   3   5
HETATM    5  C   UNL     1      -5.262   5.650 -32.722  1.00  0.00     0.094 C 
HETATM    6  S   UNL     1      -4.707   5.197 -34.269  1.00  0.00    -0.075 SA
HETATM    7  C   UNL     1      -3.074   5.331 -33.796  1.00  0.00    -0.007 C 
HETATM    8  C   UNL     1      -2.001   4.904 -34.747  1.00  0.00     0.057 C 
HETATM    9  C   UNL     1      -2.962   5.852 -32.516  1.00  0.00     0.006 C 
HETATM   10  C   UNL     1      -4.256   6.195 -31.941  1.00  0.00     0.085 C 
BRANCH   9  11
HETATM   11  C   UNL     1      -1.658   5.958 -31.867  1.00  0.00    -0.024 A 
HETATM   12  C   UNL     1      -1.212   4.898 -31.064  1.00  0.00     0.012 A 
HETATM   13  C   UNL     1       0.034   4.964 -30.441  1.00  0.00     0.001 A 
HETATM   14  C   UNL     1       0.841   6.087 -30.617  1.00  0.00     0.000 A 
HETATM   15  C   UNL     1       0.400   7.145 -31.413  1.00  0.00     0.001 A 
HETATM   16  C   UNL     1      -0.848   7.085 -32.035  1.00  0.00     0.012 A 
ENDBRANCH   9  11
BRANCH  10  17
HETATM   17  C   UNL     1      -4.485   7.001 -30.738  1.00  0.00     0.296 C 
HETATM   18  O   UNL     1      -4.650   8.216 -30.765  1.00  0.00    -0.259 OA
BRANCH  17  19
HETATM   19  O   UNL     1      -4.444   6.281 -29.581  1.00  0.00    -0.322 OA
HETATM   20  C   UNL     1      -5.104   6.898 -28.476  1.00  0.00     0.213 C 
ENDBRANCH  17  19
ENDBRANCH  10  17
ENDBRANCH   3   5
ENDBRANCH   1   3
BRANCH   1  21
HETATM   21  N   UNL     1      -7.106   3.503 -31.316  1.00  0.00    -0.273 N 
HETATM   22  H   UNL     1      -7.534   3.147 -30.458  1.00  0.00     0.189 HD
BRANCH  21  23
HETATM   23  N   UNL     1      -7.199   2.590 -32.383  1.00  0.00    -0.266 N 
HETATM   24  C   UNL     1      -8.130   1.574 -32.280  1.00  0.00     0.265 C 
HETATM   25  O   UNL     1      -8.970   1.511 -31.381  1.00  0.00    -0.269 OA
HETATM   26  H   UNL     1      -6.375   2.487 -32.975  1.00  0.00     0.190 HD
BRANCH  24  27
HETATM   27  C   UNL     1      -8.048   0.524 -33.392  1.00  0.00     0.218 C 
HETATM   28  C   UNL     1      -9.078   0.831 -34.474  1.00  0.00     0.050 C 
BRANCH  27  29
HETATM   29  O   UNL     1      -6.760   0.540 -34.010  1.00  0.00    -0.335 OA
BRANCH  29  30
HETATM   30  C   UNL     1      -6.070  -0.645 -34.032  1.00  0.00     0.091 A 
HETATM   31  C   UNL     1      -4.884  -0.719 -33.284  1.00  0.00     0.068 A 
HETATM   32 CL   UNL     1      -4.291   0.651 -32.412  1.00  0.00    -0.081 Cl
HETATM   33  C   UNL     1      -4.138  -1.898 -33.240  1.00  0.00     0.046 A 
HETATM   34  C   UNL     1      -4.586  -3.017 -33.935  1.00  0.00     0.012 A 
HETATM   35 BR   UNL     1      -3.584  -4.619 -33.883  1.00  0.00    -0.051 Br
HETATM   36  C   UNL     1      -5.772  -2.969 -34.664  1.00  0.00     0.022 A 
HETATM   37  C   UNL     1      -6.517  -1.786 -34.708  1.00  0.00     0.040 A 
ENDBRANCH  29  30
ENDBRANCH  27  29
ENDBRANCH  24  27
ENDBRANCH  21  23
ENDBRANCH   1  21
TORSDOF 10
ENDMDL
MODEL 9
REMARK VINA RESULT:      -8.0      1.572      1.891
REMARK  10 active torsions:
REMARK  status: ('A' for Active; 'I' for Inactive)
REMARK    1  A    between atoms: C_4  and  N_5 
REMARK    2  A    between atoms: N_5  and  C_6 
REMARK    3  A    between atoms: C_6  and  N_7 
REMARK    4  A    between atoms: N_7  and  N_8 
REMARK       I    between atoms: N_8  and  C_9 
REMARK    5  A    between atoms: C_9  and  C_10 
REMARK    6  A    between atoms: C_10  and  O_11 
REMARK    7  A    between atoms: O_11  and  C_12 
REMARK    8  A    between atoms: C_23  and  C_24 
REMARK    9  A    between atoms: C_24  and  O_25 
REMARK   10  A    between atoms: C_28  and  C_29 
ROOT
HETATM    1  C   UNL     1      -4.494   5.667 -31.828  1.00  0.00     0.191 C 
HETATM    2  S   UNL     1      -4.881   5.617 -30.193  1.00  0.00    -0.039 SA
ENDROOT
BRANCH   1   3
HETATM    3  N   UNL     1      -3.428   6.453 -32.195  1.00  0.00    -0.325 N 
HETATM    4  H   UNL     1      -3.287   6.422 -33.201  1.00  0.00     0.169 HD
BRANCH   3   5
HETATM    5  C   UNL     1      -2.249   6.586 -31.480  1.00  0.00     0.094 C 
HETATM    6  S   UNL     1      -1.099   5.443 -32.010  1.00  0.00    -0.075 SA
HETATM    7  C   UNL     1      -0.072   5.762 -30.686  1.00  0.00    -0.007 C 
HETATM    8  C   UNL     1       1.147   4.918 -30.488  1.00  0.00     0.057 C 
HETATM    9  C   UNL     1      -0.540   6.827 -29.931  1.00  0.00     0.006 C 
HETATM   10  C   UNL     1      -1.744   7.422 -30.496  1.00  0.00     0.085 C 
BRANCH   9  11
HETATM   11  C   UNL     1       0.127   7.210 -28.690  1.00  0.00    -0.024 A 
HETATM   12  C   UNL     1      -0.211   6.541 -27.505  1.00  0.00     0.012 A 
HETATM   13  C   UNL     1       0.418   6.875 -26.305  1.00  0.00     0.001 A 
HETATM   14  C   UNL     1       1.388   7.876 -26.284  1.00  0.00     0.000 A 
HETATM   15  C   UNL     1       1.726   8.546 -27.460  1.00  0.00     0.001 A 
HETATM   16  C   UNL     1       1.097   8.217 -28.662  1.00  0.00     0.012 A 
ENDBRANCH   9  11
BRANCH  10  17
HETATM   17  C   UNL     1      -2.339   8.706 -30.115  1.00  0.00     0.296 C 
HETATM   18  O   UNL     1      -2.182   9.736 -30.761  1.00  0.00    -0.259 OA
BRANCH  17  19
HETATM   19  O   UNL     1      -3.038   8.659 -28.946  1.00  0.00    -0.322 OA
HETATM   20  C   UNL     1      -4.051   9.658 -28.820  1.00  0.00     0.213 C 
ENDBRANCH  17  19
ENDBRANCH  10  17
ENDBRANCH   3   5
ENDBRANCH   1   3
BRANCH   1  21
HETATM   21  N   UNL     1      -5.227   5.061 -32.811  1.00  0.00    -0.273 N 
HETATM   22  H   UNL     1      -5.166   5.500 -33.733  1.00  0.00     0.189 HD
BRANCH  21  23
HETATM   23  N   UNL     1      -5.329   3.660 -32.888  1.00  0.00    -0.266 N 
HETATM   24  C   UNL     1      -6.450   3.065 -32.342  1.00  0.00     0.265 C 
HETATM   25  O   UNL     1      -7.420   3.699 -31.923  1.00  0.00    -0.269 OA
HETATM   26  H   UNL     1      -4.458   3.139 -32.992  1.00  0.00     0.190 HD
BRANCH  24  27
HETATM   27  C   UNL     1      -6.403   1.535 -32.307  1.00  0.00     0.218 C 
HETATM   28  C   UNL     1      -7.788   0.979 -31.995  1.00  0.00     0.050 C 
BRANCH  27  29
HETATM   29  O   UNL     1      -6.006   1.010 -33.576  1.00  0.00    -0.335 OA
BRANCH  29  30
HETATM   30  C   UNL     1      -5.452  -0.244 -33.580  1.00  0.00     0.091 A 
HETATM   31  C   UNL     1      -6.076  -1.225 -34.368  1.00  0.00     0.068 A 
HETATM   32 CL   UNL     1      -7.517  -0.874 -35.257  1.00  0.00    -0.081 Cl
HETATM   33  C   UNL     1      -5.558  -2.520 -34.441  1.00  0.00     0.046 A 
HETATM   34  C   UNL     1      -4.402  -2.834 -33.734  1.00  0.00     0.012 A 
HETATM   35 BR   UNL     1      -3.692  -4.583 -33.825  1.00  0.00    -0.051 Br
HETATM   36  C   UNL     1      -3.757  -1.867 -32.966  1.00  0.00     0.022 A 
HETATM   37  C   UNL     1      -4.278  -0.572 -32.893  1.00  0.00     0.040 A 
ENDBRANCH  29  30
ENDBRANCH  27  29
ENDBRANCH  24  27
ENDBRANCH  21  23
ENDBRANCH   1  21
TORSDOF 10
ENDMDL
MODEL 10
REMARK VINA RESULT:      -7.9      4.498      7.624
REMARK  10 active torsions:
REMARK  status: ('A' for Active; 'I' for Inactive)
REMARK    1  A    between atoms: C_4  and  N_5 
REMARK    2  A    between atoms: N_5  and  C_6 
REMARK    3  A    between atoms: C_6  and  N_7 
REMARK    4  A    between atoms: N_7  and  N_8 
REMARK       I    between atoms: N_8  and  C_9 
REMARK    5  A    between atoms: C_9  and  C_10 
REMARK    6  A    between atoms: C_10  and  O_11 
REMARK    7  A    between atoms: O_11  and  C_12 
REMARK    8  A    between atoms: C_23  and  C_24 
REMARK    9  A    between atoms: C_24  and  O_25 
REMARK   10  A    between atoms: C_28  and  C_29 
ROOT
HETATM    1  C   UNL     1      -5.978   5.817 -29.084  1.00  0.00     0.191 C 
HETATM    2  S   UNL     1      -5.961   6.986 -27.877  1.00  0.00    -0.039 SA
ENDROOT
BRANCH   1   3
HETATM    3  N   UNL     1      -6.579   6.153 -30.273  1.00  0.00    -0.325 N 
HETATM    4  H   UNL     1      -6.618   7.162 -30.385  1.00  0.00     0.169 HD
BRANCH   3   5
HETATM    5  C   UNL     1      -7.662   5.496 -30.836  1.00  0.00     0.094 C 
HETATM    6  S   UNL     1      -9.081   5.822 -29.949  1.00  0.00    -0.075 SA
HETATM    7  C   UNL     1      -9.951   4.600 -30.762  1.00  0.00    -0.007 C 
HETATM    8  C   UNL     1     -11.339   4.269 -30.312  1.00  0.00     0.057 C 
HETATM    9  C   UNL     1      -9.202   4.051 -31.792  1.00  0.00     0.006 C 
HETATM   10  C   UNL     1      -7.904   4.696 -31.941  1.00  0.00     0.085 C 
BRANCH   9  11
HETATM   11  C   UNL     1      -9.709   2.915 -32.557  1.00  0.00    -0.024 A 
HETATM   12  C   UNL     1      -9.388   1.617 -32.137  1.00  0.00     0.012 A 
HETATM   13  C   UNL     1      -9.867   0.511 -32.839  1.00  0.00     0.001 A 
HETATM   14  C   UNL     1     -10.672   0.697 -33.962  1.00  0.00     0.000 A 
HETATM   15  C   UNL     1     -10.993   1.987 -34.386  1.00  0.00     0.001 A 
HETATM   16  C   UNL     1     -10.512   3.096 -33.688  1.00  0.00     0.012 A 
ENDBRANCH   9  11
BRANCH  10  17
HETATM   17  C   UNL     1      -6.988   4.552 -33.076  1.00  0.00     0.296 C 
HETATM   18  O   UNL     1      -6.856   3.507 -33.703  1.00  0.00    -0.259 OA
BRANCH  17  19
HETATM   19  O   UNL     1      -6.257   5.673 -33.335  1.00  0.00    -0.322 OA
HETATM   20  C   UNL     1      -4.889   5.427 -33.658  1.00  0.00     0.213 C 
ENDBRANCH  17  19
ENDBRANCH  10  17
ENDBRANCH   3   5
ENDBRANCH   1   3
BRANCH   1  21
HETATM   21  N   UNL     1      -5.525   4.537 -28.920  1.00  0.00    -0.273 N 
HETATM   22  H   UNL     1      -6.121   3.935 -28.345  1.00  0.00     0.189 HD
BRANCH  21  23
HETATM   23  N   UNL     1      -4.914   3.836 -29.976  1.00  0.00    -0.266 N 
HETATM   24  C   UNL     1      -5.457   2.619 -30.341  1.00  0.00     0.265 C 
HETATM   25  O   UNL     1      -6.521   2.188 -29.892  1.00  0.00    -0.269 OA
HETATM   26  H   UNL     1      -3.935   4.050 -30.165  1.00  0.00     0.190 HD
BRANCH  24  27
HETATM   27  C   UNL     1      -4.634   1.841 -31.371  1.00  0.00     0.218 C 
HETATM   28  C   UNL     1      -3.197   2.353 -31.382  1.00  0.00     0.050 C 
BRANCH  27  29
HETATM   29  O   UNL     1      -4.591   0.451 -31.042  1.00  0.00    -0.335 OA
BRANCH  29  30
HETATM   30  C   UNL     1      -4.962  -0.429 -32.025  1.00  0.00     0.091 A 
HETATM   31  C   UNL     1      -3.997  -1.346 -32.471  1.00  0.00     0.068 A 
HETATM   32 CL   UNL     1      -2.388  -1.329 -31.838  1.00  0.00    -0.081 Cl
HETATM   33  C   UNL     1      -4.305  -2.288 -33.455  1.00  0.00     0.046 A 
HETATM   34  C   UNL     1      -5.590  -2.324 -33.987  1.00  0.00     0.012 A 
HETATM   35 BR   UNL     1      -6.020  -3.594 -35.320  1.00  0.00    -0.051 Br
HETATM   36  C   UNL     1      -6.567  -1.436 -33.540  1.00  0.00     0.022 A 
HETATM   37  C   UNL     1      -6.255  -0.493 -32.557  1.00  0.00     0.040 A 
ENDBRANCH  29  30
ENDBRANCH  27  29
ENDBRANCH  24  27
ENDBRANCH  21  23
ENDBRANCH   1  21
TORSDOF 10
ENDMDL
