MODEL 1
REMARK VINA RESULT:      -8.2      0.000      0.000
REMARK  4 active torsions:
REMARK  status: ('A' for Active; 'I' for Inactive)
REMARK    1  A    between atoms: C_5  and  C_6 
REMARK    2  A    between atoms: C_6  and  N_7 
REMARK    3  A    between atoms: C_6  and  C_18 
REMARK    4  A    between atoms: N_7  and  C_8 
ROOT
HETATM    1  C   UNL     1      -6.369   0.547 -32.563  1.00  0.00     0.290 C 
ENDROOT
BRANCH   1   2
HETATM    2  C   UNL     1      -5.577  -0.672 -33.004  1.00  0.00     0.021 A 
HETATM    3  C   UNL     1      -5.801  -1.344 -34.218  1.00  0.00     0.055 A 
HETATM    4  C   UNL     1      -5.019  -2.444 -34.565  1.00  0.00     0.117 A 
HETATM    5  C   UNL     1      -4.002  -2.898 -33.736  1.00  0.00     0.045 A 
HETATM    6  F   UNL     1      -5.260  -3.075 -35.722  1.00  0.00    -0.206 F 
HETATM    7  C   UNL     1      -3.759  -2.239 -32.533  1.00  0.00     0.046 A 
HETATM    8  C   UNL     1      -4.541  -1.140 -32.181  1.00  0.00     0.125 A 
HETATM    9  F   UNL     1      -4.298  -0.531 -31.010  1.00  0.00    -0.205 F 
ENDBRANCH   1   2
BRANCH   1  10
HETATM   10  N   UNL     1      -7.791   0.567 -32.980  1.00  0.00     0.101 N 
HETATM   11  H   UNL     1      -7.923  -0.200 -33.642  1.00  0.00     0.317 HD
BRANCH  10  12
HETATM   12  C   UNL     1      -8.800   0.501 -31.913  1.00  0.00     0.225 C 
HETATM   13  C   UNL     1     -10.108  -0.036 -32.544  1.00  0.00     0.069 C 
HETATM   14  C   UNL     1     -10.715   1.002 -33.476  1.00  0.00     0.190 C 
HETATM   15  N   UNL     1     -10.999   2.252 -32.681  1.00  0.00    -0.067 N 
HETATM   16  C   UNL     1     -12.088   0.705 -34.045  1.00  0.00     0.035 C 
HETATM   17  H   UNL     1     -11.591   1.997 -31.878  1.00  0.00     0.280 HD
HETATM   18  C   UNL     1      -9.748   2.872 -32.141  1.00  0.00     0.237 C 
HETATM   19  C   UNL     1     -11.854   3.102 -33.582  1.00  0.00     0.235 C 
HETATM   20  C   UNL     1      -9.082   1.852 -31.220  1.00  0.00     0.063 C 
HETATM   21  C   UNL     1     -12.595   2.088 -34.456  1.00  0.00     0.030 C 
ENDBRANCH  10  12
ENDBRANCH   1  10
BRANCH   1  22
HETATM   22  C   UNL     1      -5.719   1.867 -32.969  1.00  0.00    -0.018 A 
HETATM   23  C   UNL     1      -4.531   2.281 -32.347  1.00  0.00     0.029 A 
HETATM   24  C   UNL     1      -3.971   3.497 -32.705  1.00  0.00     0.116 A 
HETATM   25  N   UNL     1      -4.505   4.325 -33.623  1.00  0.00    -0.273 NA
HETATM   26  C   UNL     1      -5.643   3.918 -34.220  1.00  0.00     0.116 A 
HETATM   27  C   UNL     1      -6.282   2.722 -33.928  1.00  0.00     0.029 A 
ENDBRANCH   1  22
TORSDOF 4
ENDMDL
MODEL 2
REMARK VINA RESULT:      -8.0      0.837      1.877
REMARK  4 active torsions:
REMARK  status: ('A' for Active; 'I' for Inactive)
REMARK    1  A    between atoms: C_5  and  C_6 
REMARK    2  A    between atoms: C_6  and  N_7 
REMARK    3  A    between atoms: C_6  and  C_18 
REMARK    4  A    between atoms: N_7  and  C_8 
ROOT
HETATM    1  C   UNL     1      -6.420   0.592 -32.586  1.00  0.00     0.290 C 
ENDROOT
BRANCH   1   2
HETATM    2  C   UNL     1      -5.609  -0.611 -33.034  1.00  0.00     0.021 A 
HETATM    3  C   UNL     1      -4.612  -1.210 -32.245  1.00  0.00     0.055 A 
HETATM    4  C   UNL     1      -3.923  -2.327 -32.715  1.00  0.00     0.117 A 
HETATM    5  C   UNL     1      -4.204  -2.880 -33.957  1.00  0.00     0.045 A 
HETATM    6  F   UNL     1      -2.968  -2.872 -31.949  1.00  0.00    -0.206 F 
HETATM    7  C   UNL     1      -5.196  -2.306 -34.749  1.00  0.00     0.046 A 
HETATM    8  C   UNL     1      -5.885  -1.187 -34.284  1.00  0.00     0.125 A 
HETATM    9  F   UNL     1      -6.825  -0.642 -35.071  1.00  0.00    -0.205 F 
ENDBRANCH   1   2
BRANCH   1  10
HETATM   10  N   UNL     1      -7.834   0.607 -33.030  1.00  0.00     0.101 N 
HETATM   11  H   UNL     1      -7.947  -0.150 -33.706  1.00  0.00     0.317 HD
BRANCH  10  12
HETATM   12  C   UNL     1      -8.862   0.517 -31.984  1.00  0.00     0.225 C 
HETATM   13  C   UNL     1     -10.173   0.045 -32.660  1.00  0.00     0.069 C 
HETATM   14  C   UNL     1     -10.737   1.143 -33.550  1.00  0.00     0.190 C 
HETATM   15  N   UNL     1     -11.002   2.360 -32.700  1.00  0.00    -0.067 N 
HETATM   16  C   UNL     1     -12.107   0.909 -34.156  1.00  0.00     0.035 C 
HETATM   17  H   UNL     1     -11.616   2.082 -31.921  1.00  0.00     0.280 HD
HETATM   18  C   UNL     1      -9.746   2.920 -32.111  1.00  0.00     0.237 C 
HETATM   19  C   UNL     1     -11.821   3.274 -33.573  1.00  0.00     0.235 C 
HETATM   20  C   UNL     1      -9.123   1.839 -31.230  1.00  0.00     0.063 C 
HETATM   21  C   UNL     1     -12.572   2.323 -34.507  1.00  0.00     0.030 C 
ENDBRANCH  10  12
ENDBRANCH   1  10
BRANCH   1  22
HETATM   22  C   UNL     1      -5.775   1.926 -32.954  1.00  0.00    -0.018 A 
HETATM   23  C   UNL     1      -6.371   2.744 -33.925  1.00  0.00     0.029 A 
HETATM   24  C   UNL     1      -5.757   3.938 -34.270  1.00  0.00     0.116 A 
HETATM   25  N   UNL     1      -4.601   4.367 -33.729  1.00  0.00    -0.273 NA
HETATM   26  C   UNL     1      -4.038   3.579 -32.792  1.00  0.00     0.116 A 
HETATM   27  C   UNL     1      -4.573   2.366 -32.382  1.00  0.00     0.029 A 
ENDBRANCH   1  22
TORSDOF 4
ENDMDL
MODEL 3
REMARK VINA RESULT:      -8.0      1.759      5.755
REMARK  4 active torsions:
REMARK  status: ('A' for Active; 'I' for Inactive)
REMARK    1  A    between atoms: C_5  and  C_6 
REMARK    2  A    between atoms: C_6  and  N_7 
REMARK    3  A    between atoms: C_6  and  C_18 
REMARK    4  A    between atoms: N_7  and  C_8 
ROOT
HETATM    1  C   UNL     1      -5.950   0.858 -33.535  1.00  0.00     0.290 C 
ENDROOT
BRANCH   1   2
HETATM    2  C   UNL     1      -5.273  -0.501 -33.518  1.00  0.00     0.021 A 
HETATM    3  C   UNL     1      -4.328  -0.884 -32.551  1.00  0.00     0.055 A 
HETATM    4  C   UNL     1      -3.765  -2.158 -32.586  1.00  0.00     0.117 A 
HETATM    5  C   UNL     1      -4.123  -3.080 -33.562  1.00  0.00     0.045 A 
HETATM    6  F   UNL     1      -2.857  -2.495 -31.661  1.00  0.00    -0.206 F 
HETATM    7  C   UNL     1      -5.065  -2.722 -34.523  1.00  0.00     0.046 A 
HETATM    8  C   UNL     1      -5.629  -1.448 -34.492  1.00  0.00     0.125 A 
HETATM    9  F   UNL     1      -6.523  -1.121 -35.438  1.00  0.00    -0.205 F 
ENDBRANCH   1   2
BRANCH   1  10
HETATM   10  N   UNL     1      -5.407   1.851 -32.579  1.00  0.00     0.101 N 
HETATM   11  H   UNL     1      -4.392   1.738 -32.569  1.00  0.00     0.317 HD
BRANCH  10  12
HETATM   12  C   UNL     1      -5.762   3.259 -32.805  1.00  0.00     0.225 C 
HETATM   13  C   UNL     1      -4.680   3.869 -33.730  1.00  0.00     0.069 C 
HETATM   14  C   UNL     1      -3.359   4.002 -32.988  1.00  0.00     0.190 C 
HETATM   15  N   UNL     1      -3.572   4.889 -31.786  1.00  0.00    -0.067 N 
HETATM   16  C   UNL     1      -2.238   4.738 -33.693  1.00  0.00     0.035 C 
HETATM   17  H   UNL     1      -3.975   5.780 -32.109  1.00  0.00     0.280 HD
HETATM   18  C   UNL     1      -4.530   4.288 -30.806  1.00  0.00     0.237 C 
HETATM   19  C   UNL     1      -2.188   5.209 -31.287  1.00  0.00     0.235 C 
HETATM   20  C   UNL     1      -5.869   4.104 -31.516  1.00  0.00     0.063 C 
HETATM   21  C   UNL     1      -1.316   5.144 -32.542  1.00  0.00     0.030 C 
ENDBRANCH  10  12
ENDBRANCH   1  10
BRANCH   1  22
HETATM   22  C   UNL     1      -7.464   0.781 -33.357  1.00  0.00    -0.018 A 
HETATM   23  C   UNL     1      -8.311   1.190 -34.399  1.00  0.00     0.029 A 
HETATM   24  C   UNL     1      -9.683   1.142 -34.210  1.00  0.00     0.116 A 
HETATM   25  N   UNL     1     -10.266   0.729 -33.069  1.00  0.00    -0.273 NA
HETATM   26  C   UNL     1      -9.447   0.333 -32.075  1.00  0.00     0.116 A 
HETATM   27  C   UNL     1      -8.062   0.347 -32.166  1.00  0.00     0.029 A 
ENDBRANCH   1  22
TORSDOF 4
ENDMDL
MODEL 4
REMARK VINA RESULT:      -7.9      2.081      4.129
REMARK  4 active torsions:
REMARK  status: ('A' for Active; 'I' for Inactive)
REMARK    1  A    between atoms: C_5  and  C_6 
REMARK    2  A    between atoms: C_6  and  N_7 
REMARK    3  A    between atoms: C_6  and  C_18 
REMARK    4  A    between atoms: N_7  and  C_8 
ROOT
HETATM    1  C   UNL     1      -6.885   0.474 -33.733  1.00  0.00     0.290 C 
ENDROOT
BRANCH   1   2
HETATM    2  C   UNL     1      -6.283   1.085 -32.479  1.00  0.00     0.021 A 
HETATM    3  C   UNL     1      -6.238   0.424 -31.240  1.00  0.00     0.055 A 
HETATM    4  C   UNL     1      -5.649   1.039 -30.137  1.00  0.00     0.117 A 
HETATM    5  C   UNL     1      -5.088   2.307 -30.231  1.00  0.00     0.045 A 
HETATM    6  F   UNL     1      -5.630   0.394 -28.964  1.00  0.00    -0.206 F 
HETATM    7  C   UNL     1      -5.115   2.973 -31.454  1.00  0.00     0.046 A 
HETATM    8  C   UNL     1      -5.705   2.362 -32.558  1.00  0.00     0.125 A 
HETATM    9  F   UNL     1      -5.732   3.030 -33.721  1.00  0.00    -0.205 F 
ENDBRANCH   1   2
BRANCH   1  10
HETATM   10  N   UNL     1      -8.365   0.479 -33.796  1.00  0.00     0.101 N 
HETATM   11  H   UNL     1      -8.650  -0.363 -34.298  1.00  0.00     0.317 HD
BRANCH  10  12
HETATM   12  C   UNL     1      -9.086   0.583 -32.519  1.00  0.00     0.225 C 
HETATM   13  C   UNL     1     -10.399  -0.226 -32.661  1.00  0.00     0.069 C 
HETATM   14  C   UNL     1     -11.357   0.476 -33.612  1.00  0.00     0.190 C 
HETATM   15  N   UNL     1     -11.653   1.851 -33.066  1.00  0.00    -0.067 N 
HETATM   16  C   UNL     1     -12.757  -0.094 -33.732  1.00  0.00     0.035 C 
HETATM   17  H   UNL     1     -12.003   1.747 -32.102  1.00  0.00     0.280 HD
HETATM   18  C   UNL     1     -10.429   2.710 -33.013  1.00  0.00     0.237 C 
HETATM   19  C   UNL     1     -12.813   2.353 -33.883  1.00  0.00     0.235 C 
HETATM   20  C   UNL     1      -9.420   2.029 -32.091  1.00  0.00     0.063 C 
HETATM   21  C   UNL     1     -13.558   1.082 -34.293  1.00  0.00     0.030 C 
ENDBRANCH  10  12
ENDBRANCH   1  10
BRANCH   1  22
HETATM   22  C   UNL     1      -6.386  -0.941 -34.014  1.00  0.00    -0.018 A 
HETATM   23  C   UNL     1      -5.016  -1.229 -33.920  1.00  0.00     0.029 A 
HETATM   24  C   UNL     1      -4.575  -2.512 -34.209  1.00  0.00     0.116 A 
HETATM   25  N   UNL     1      -5.391  -3.515 -34.586  1.00  0.00    -0.273 NA
HETATM   26  C   UNL     1      -6.706  -3.232 -34.667  1.00  0.00     0.116 A 
HETATM   27  C   UNL     1      -7.243  -1.980 -34.403  1.00  0.00     0.029 A 
ENDBRANCH   1  22
TORSDOF 4
ENDMDL
MODEL 5
REMARK VINA RESULT:      -7.9      2.227      6.105
REMARK  4 active torsions:
REMARK  status: ('A' for Active; 'I' for Inactive)
REMARK    1  A    between atoms: C_5  and  C_6 
REMARK    2  A    between atoms: C_6  and  N_7 
REMARK    3  A    between atoms: C_6  and  C_18 
REMARK    4  A    between atoms: N_7  and  C_8 
ROOT
HETATM    1  C   UNL     1      -6.538   2.334 -33.697  1.00  0.00     0.290 C 
ENDROOT
BRANCH   1   2
HETATM    2  C   UNL     1      -6.136   0.876 -33.838  1.00  0.00     0.021 A 
HETATM    3  C   UNL     1      -5.108   0.280 -33.089  1.00  0.00     0.055 A 
HETATM    4  C   UNL     1      -4.809  -1.071 -33.257  1.00  0.00     0.117 A 
HETATM    5  C   UNL     1      -5.518  -1.861 -34.152  1.00  0.00     0.045 A 
HETATM    6  F   UNL     1      -3.816  -1.612 -32.539  1.00  0.00    -0.206 F 
HETATM    7  C   UNL     1      -6.547  -1.290 -34.897  1.00  0.00     0.046 A 
HETATM    8  C   UNL     1      -6.847   0.061 -34.734  1.00  0.00     0.125 A 
HETATM    9  F   UNL     1      -7.832   0.592 -35.474  1.00  0.00    -0.205 F 
ENDBRANCH   1   2
BRANCH   1  10
HETATM   10  N   UNL     1      -5.417   3.291 -33.551  1.00  0.00     0.101 N 
HETATM   11  H   UNL     1      -4.579   2.834 -33.914  1.00  0.00     0.317 HD
BRANCH  10  12
HETATM   12  C   UNL     1      -5.585   4.615 -34.166  1.00  0.00     0.225 C 
HETATM   13  C   UNL     1      -4.292   4.926 -34.959  1.00  0.00     0.069 C 
HETATM   14  C   UNL     1      -3.131   5.176 -34.009  1.00  0.00     0.190 C 
HETATM   15  N   UNL     1      -3.484   6.340 -33.117  1.00  0.00    -0.067 N 
HETATM   16  C   UNL     1      -1.830   5.661 -34.616  1.00  0.00     0.035 C 
HETATM   17  H   UNL     1      -3.729   7.143 -33.715  1.00  0.00     0.280 HD
HETATM   18  C   UNL     1      -4.665   6.046 -32.248  1.00  0.00     0.237 C 
HETATM   19  C   UNL     1      -2.196   6.708 -32.428  1.00  0.00     0.235 C 
HETATM   20  C   UNL     1      -5.855   5.756 -33.160  1.00  0.00     0.063 C 
HETATM   21  C   UNL     1      -1.110   6.294 -33.423  1.00  0.00     0.030 C 
ENDBRANCH  10  12
ENDBRANCH   1  10
BRANCH   1  22
HETATM   22  C   UNL     1      -7.542   2.577 -32.574  1.00  0.00    -0.018 A 
HETATM   23  C   UNL     1      -8.916   2.600 -32.860  1.00  0.00     0.029 A 
HETATM   24  C   UNL     1      -9.814   2.853 -31.834  1.00  0.00     0.116 A 
HETATM   25  N   UNL     1      -9.446   3.089 -30.561  1.00  0.00    -0.273 NA
HETATM   26  C   UNL     1      -8.126   3.060 -30.293  1.00  0.00     0.116 A 
HETATM   27  C   UNL     1      -7.150   2.819 -31.250  1.00  0.00     0.029 A 
ENDBRANCH   1  22
TORSDOF 4
ENDMDL
MODEL 6
REMARK VINA RESULT:      -7.8      1.668      5.340
REMARK  4 active torsions:
REMARK  status: ('A' for Active; 'I' for Inactive)
REMARK    1  A    between atoms: C_5  and  C_6 
REMARK    2  A    between atoms: C_6  and  N_7 
REMARK    3  A    between atoms: C_6  and  C_18 
REMARK    4  A    between atoms: N_7  and  C_8 
ROOT
HETATM    1  C   UNL     1      -6.405   0.524 -33.923  1.00  0.00     0.290 C 
ENDROOT
BRANCH   1   2
HETATM    2  C   UNL     1      -5.943  -0.908 -34.125  1.00  0.00     0.021 A 
HETATM    3  C   UNL     1      -6.762  -1.918 -34.660  1.00  0.00     0.055 A 
HETATM    4  C   UNL     1      -6.262  -3.207 -34.836  1.00  0.00     0.117 A 
HETATM    5  C   UNL     1      -4.952  -3.526 -34.502  1.00  0.00     0.045 A 
HETATM    6  F   UNL     1      -7.066  -4.154 -35.336  1.00  0.00    -0.206 F 
HETATM    7  C   UNL     1      -4.123  -2.536 -33.980  1.00  0.00     0.046 A 
HETATM    8  C   UNL     1      -4.620  -1.247 -33.799  1.00  0.00     0.125 A 
HETATM    9  F   UNL     1      -3.807  -0.314 -33.280  1.00  0.00    -0.205 F 
ENDBRANCH   1   2
BRANCH   1  10
HETATM   10  N   UNL     1      -5.688   1.281 -32.869  1.00  0.00     0.101 N 
HETATM   11  H   UNL     1      -4.694   1.257 -33.102  1.00  0.00     0.317 HD
BRANCH  10  12
HETATM   12  C   UNL     1      -6.124   2.663 -32.627  1.00  0.00     0.225 C 
HETATM   13  C   UNL     1      -5.276   3.584 -33.537  1.00  0.00     0.069 C 
HETATM   14  C   UNL     1      -3.834   3.629 -33.054  1.00  0.00     0.190 C 
HETATM   15  N   UNL     1      -3.819   4.146 -31.637  1.00  0.00    -0.067 N 
HETATM   16  C   UNL     1      -2.906   4.617 -33.732  1.00  0.00     0.035 C 
HETATM   17  H   UNL     1      -4.306   5.054 -31.619  1.00  0.00     0.280 HD
HETATM   18  C   UNL     1      -4.535   3.229 -30.696  1.00  0.00     0.237 C 
HETATM   19  C   UNL     1      -2.372   4.440 -31.345  1.00  0.00     0.235 C 
HETATM   20  C   UNL     1      -5.986   3.126 -31.160  1.00  0.00     0.063 C 
HETATM   21  C   UNL     1      -1.777   4.782 -32.712  1.00  0.00     0.030 C 
ENDBRANCH  10  12
ENDBRANCH   1  10
BRANCH   1  22
HETATM   22  C   UNL     1      -7.907   0.646 -33.680  1.00  0.00    -0.018 A 
HETATM   23  C   UNL     1      -8.475   0.082 -32.527  1.00  0.00     0.029 A 
HETATM   24  C   UNL     1      -9.845   0.174 -32.337  1.00  0.00     0.116 A 
HETATM   25  N   UNL     1     -10.681   0.775 -33.205  1.00  0.00    -0.273 NA
HETATM   26  C   UNL     1     -10.127   1.320 -34.306  1.00  0.00     0.116 A 
HETATM   27  C   UNL     1      -8.769   1.276 -34.588  1.00  0.00     0.029 A 
ENDBRANCH   1  22
TORSDOF 4
ENDMDL
MODEL 7
REMARK VINA RESULT:      -7.7      3.040      6.673
REMARK  4 active torsions:
REMARK  status: ('A' for Active; 'I' for Inactive)
REMARK    1  A    between atoms: C_5  and  C_6 
REMARK    2  A    between atoms: C_6  and  N_7 
REMARK    3  A    between atoms: C_6  and  C_18 
REMARK    4  A    between atoms: N_7  and  C_8 
ROOT
HETATM    1  C   UNL     1      -9.579   2.291 -33.721  1.00  0.00     0.290 C 
ENDROOT
BRANCH   1   2
HETATM    2  C   UNL     1     -10.991   1.804 -34.000  1.00  0.00     0.021 A 
HETATM    3  C   UNL     1     -11.523   0.622 -33.460  1.00  0.00     0.055 A 
HETATM    4  C   UNL     1     -12.836   0.250 -33.743  1.00  0.00     0.117 A 
HETATM    5  C   UNL     1     -13.651   1.033 -34.551  1.00  0.00     0.045 A 
HETATM    6  F   UNL     1     -13.317  -0.888 -33.226  1.00  0.00    -0.206 F 
HETATM    7  C   UNL     1     -13.143   2.213 -35.088  1.00  0.00     0.046 A 
HETATM    8  C   UNL     1     -11.830   2.588 -34.809  1.00  0.00     0.125 A 
HETATM    9  F   UNL     1     -11.358   3.721 -35.350  1.00  0.00    -0.205 F 
ENDBRANCH   1   2
BRANCH   1  10
HETATM   10  N   UNL     1      -8.528   1.247 -33.754  1.00  0.00     0.101 N 
HETATM   11  H   UNL     1      -8.987   0.363 -33.985  1.00  0.00     0.317 HD
BRANCH  10  12
HETATM   12  C   UNL     1      -7.385   1.479 -34.648  1.00  0.00     0.225 C 
HETATM   13  C   UNL     1      -7.067   0.137 -35.354  1.00  0.00     0.069 C 
HETATM   14  C   UNL     1      -6.484  -0.860 -34.364  1.00  0.00     0.190 C 
HETATM   15  N   UNL     1      -5.225  -0.272 -33.778  1.00  0.00    -0.067 N 
HETATM   16  C   UNL     1      -5.959  -2.167 -34.923  1.00  0.00     0.035 C 
HETATM   17  H   UNL     1      -4.595  -0.019 -34.552  1.00  0.00     0.280 HD
HETATM   18  C   UNL     1      -5.497   0.971 -32.990  1.00  0.00     0.237 C 
HETATM   19  C   UNL     1      -4.562  -1.414 -33.054  1.00  0.00     0.235 C 
HETATM   20  C   UNL     1      -6.116   1.996 -33.938  1.00  0.00     0.063 C 
HETATM   21  C   UNL     1      -5.015  -2.656 -33.824  1.00  0.00     0.030 C 
ENDBRANCH  10  12
ENDBRANCH   1  10
BRANCH   1  22
HETATM   22  C   UNL     1      -9.456   3.070 -32.415  1.00  0.00    -0.018 A 
HETATM   23  C   UNL     1     -10.056   4.333 -32.297  1.00  0.00     0.029 A 
HETATM   24  C   UNL     1      -9.909   5.042 -31.114  1.00  0.00     0.116 A 
HETATM   25  N   UNL     1      -9.211   4.591 -30.055  1.00  0.00    -0.273 NA
HETATM   26  C   UNL     1      -8.643   3.374 -30.173  1.00  0.00     0.116 A 
HETATM   27  C   UNL     1      -8.729   2.591 -31.315  1.00  0.00     0.029 A 
ENDBRANCH   1  22
TORSDOF 4
ENDMDL
MODEL 8
REMARK VINA RESULT:      -7.7      2.821      5.982
REMARK  4 active torsions:
REMARK  status: ('A' for Active; 'I' for Inactive)
REMARK    1  A    between atoms: C_5  and  C_6 
REMARK    2  A    between atoms: C_6  and  N_7 
REMARK    3  A    between atoms: C_6  and  C_18 
REMARK    4  A    between atoms: N_7  and  C_8 
ROOT
HETATM    1  C   UNL     1      -6.429  -0.540 -32.727  1.00  0.00     0.290 C 
ENDROOT
BRANCH   1   2
HETATM    2  C   UNL     1      -7.679   0.175 -33.208  1.00  0.00     0.021 A 
HETATM    3  C   UNL     1      -8.981  -0.214 -32.848  1.00  0.00     0.055 A 
HETATM    4  C   UNL     1     -10.082   0.505 -33.312  1.00  0.00     0.117 A 
HETATM    5  C   UNL     1      -9.926   1.620 -34.125  1.00  0.00     0.045 A 
HETATM    6  F   UNL     1     -11.312   0.106 -32.965  1.00  0.00    -0.206 F 
HETATM    7  C   UNL     1      -8.643   2.027 -34.483  1.00  0.00     0.046 A 
HETATM    8  C   UNL     1      -7.540   1.309 -34.024  1.00  0.00     0.125 A 
HETATM    9  F   UNL     1      -6.315   1.711 -34.396  1.00  0.00    -0.205 F 
ENDBRANCH   1   2
BRANCH   1  10
HETATM   10  N   UNL     1      -5.241   0.323 -32.524  1.00  0.00     0.101 N 
HETATM   11  H   UNL     1      -5.474   1.248 -32.888  1.00  0.00     0.317 HD
BRANCH  10  12
HETATM   12  C   UNL     1      -4.719   0.428 -31.154  1.00  0.00     0.225 C 
HETATM   13  C   UNL     1      -5.786   1.160 -30.305  1.00  0.00     0.069 C 
HETATM   14  C   UNL     1      -5.878   2.624 -30.711  1.00  0.00     0.190 C 
HETATM   15  N   UNL     1      -4.527   3.262 -30.507  1.00  0.00    -0.067 N 
HETATM   16  C   UNL     1      -6.754   3.525 -29.864  1.00  0.00     0.035 C 
HETATM   17  H   UNL     1      -4.239   3.105 -29.531  1.00  0.00     0.280 HD
HETATM   18  C   UNL     1      -3.480   2.660 -31.391  1.00  0.00     0.237 C 
HETATM   19  C   UNL     1      -4.771   4.742 -30.640  1.00  0.00     0.235 C 
HETATM   20  C   UNL     1      -3.373   1.177 -31.042  1.00  0.00     0.063 C 
HETATM   21  C   UNL     1      -6.221   4.922 -30.187  1.00  0.00     0.030 C 
ENDBRANCH  10  12
ENDBRANCH   1  10
BRANCH   1  22
HETATM   22  C   UNL     1      -6.033  -1.722 -33.607  1.00  0.00    -0.018 A 
HETATM   23  C   UNL     1      -7.029  -2.503 -34.215  1.00  0.00     0.029 A 
HETATM   24  C   UNL     1      -6.654  -3.592 -34.986  1.00  0.00     0.116 A 
HETATM   25  N   UNL     1      -5.374  -3.959 -35.189  1.00  0.00    -0.273 NA
HETATM   26  C   UNL     1      -4.424  -3.201 -34.608  1.00  0.00     0.116 A 
HETATM   27  C   UNL     1      -4.698  -2.095 -33.815  1.00  0.00     0.029 A 
ENDBRANCH   1  22
TORSDOF 4
ENDMDL
MODEL 9
REMARK VINA RESULT:      -7.6      3.660      6.256
REMARK  4 active torsions:
REMARK  status: ('A' for Active; 'I' for Inactive)
REMARK    1  A    between atoms: C_5  and  C_6 
REMARK    2  A    between atoms: C_6  and  N_7 
REMARK    3  A    between atoms: C_6  and  C_18 
REMARK    4  A    between atoms: N_7  and  C_8 
ROOT
HETATM    1  C   UNL     1      -3.930   3.659 -32.010  1.00  0.00     0.290 C 
ENDROOT
BRANCH   1   2
HETATM    2  C   UNL     1      -2.880   4.642 -32.497  1.00  0.00     0.021 A 
HETATM    3  C   UNL     1      -2.255   4.550 -33.752  1.00  0.00     0.055 A 
HETATM    4  C   UNL     1      -1.314   5.503 -34.139  1.00  0.00     0.117 A 
HETATM    5  C   UNL     1      -0.979   6.565 -33.310  1.00  0.00     0.045 A 
HETATM    6  F   UNL     1      -0.723   5.386 -35.335  1.00  0.00    -0.206 F 
HETATM    7  C   UNL     1      -1.595   6.679 -32.066  1.00  0.00     0.046 A 
HETATM    8  C   UNL     1      -2.534   5.726 -31.674  1.00  0.00     0.125 A 
HETATM    9  F   UNL     1      -3.103   5.848 -30.465  1.00  0.00    -0.205 F 
ENDBRANCH   1   2
BRANCH   1  10
HETATM   10  N   UNL     1      -3.797   2.278 -32.530  1.00  0.00     0.101 N 
HETATM   11  H   UNL     1      -2.912   2.229 -33.037  1.00  0.00     0.317 HD
BRANCH  10  12
HETATM   12  C   UNL     1      -3.888   1.185 -31.552  1.00  0.00     0.225 C 
HETATM   13  C   UNL     1      -3.486  -0.123 -32.277  1.00  0.00     0.069 C 
HETATM   14  C   UNL     1      -4.555  -0.523 -33.283  1.00  0.00     0.190 C 
HETATM   15  N   UNL     1      -5.857  -0.719 -32.546  1.00  0.00    -0.067 N 
HETATM   16  C   UNL     1      -4.401  -1.871 -33.959  1.00  0.00     0.035 C 
HETATM   17  H   UNL     1      -5.701  -1.401 -31.791  1.00  0.00     0.280 HD
HETATM   18  C   UNL     1      -6.344   0.549 -31.918  1.00  0.00     0.237 C 
HETATM   19  C   UNL     1      -6.769  -1.390 -33.538  1.00  0.00     0.235 C 
HETATM   20  C   UNL     1      -5.286   1.011 -30.919  1.00  0.00     0.063 C 
HETATM   21  C   UNL     1      -5.820  -2.174 -34.446  1.00  0.00     0.030 C 
ENDBRANCH  10  12
ENDBRANCH   1  10
BRANCH   1  22
HETATM   22  C   UNL     1      -5.360   4.137 -32.246  1.00  0.00    -0.018 A 
HETATM   23  C   UNL     1      -5.903   4.102 -33.539  1.00  0.00     0.029 A 
HETATM   24  C   UNL     1      -7.193   4.569 -33.742  1.00  0.00     0.116 A 
HETATM   25  N   UNL     1      -7.969   5.070 -32.762  1.00  0.00    -0.273 NA
HETATM   26  C   UNL     1      -7.443   5.095 -31.521  1.00  0.00     0.116 A 
HETATM   27  C   UNL     1      -6.162   4.654 -31.218  1.00  0.00     0.029 A 
ENDBRANCH   1  22
TORSDOF 4
ENDMDL
MODEL 10
REMARK VINA RESULT:      -7.5      2.046      4.288
REMARK  4 active torsions:
REMARK  status: ('A' for Active; 'I' for Inactive)
REMARK    1  A    between atoms: C_5  and  C_6 
REMARK    2  A    between atoms: C_6  and  N_7 
REMARK    3  A    between atoms: C_6  and  C_18 
REMARK    4  A    between atoms: N_7  and  C_8 
ROOT
HETATM    1  C   UNL     1      -6.589   1.038 -33.853  1.00  0.00     0.290 C 
ENDROOT
BRANCH   1   2
HETATM    2  C   UNL     1      -6.076   1.603 -32.540  1.00  0.00     0.021 A 
HETATM    3  C   UNL     1      -5.292   2.767 -32.451  1.00  0.00     0.055 A 
HETATM    4  C   UNL     1      -4.875   3.239 -31.208  1.00  0.00     0.117 A 
HETATM    5  C   UNL     1      -5.225   2.586 -30.033  1.00  0.00     0.045 A 
HETATM    6  F   UNL     1      -4.119   4.343 -31.151  1.00  0.00    -0.206 F 
HETATM    7  C   UNL     1      -6.009   1.437 -30.100  1.00  0.00     0.046 A 
HETATM    8  C   UNL     1      -6.426   0.961 -31.342  1.00  0.00     0.125 A 
HETATM    9  F   UNL     1      -7.168  -0.157 -31.382  1.00  0.00    -0.205 F 
ENDBRANCH   1   2
BRANCH   1  10
HETATM   10  N   UNL     1      -8.049   1.164 -34.072  1.00  0.00     0.101 N 
HETATM   11  H   UNL     1      -8.436   0.219 -34.083  1.00  0.00     0.317 HD
BRANCH  10  12
HETATM   12  C   UNL     1      -8.794   2.012 -33.131  1.00  0.00     0.225 C 
HETATM   13  C   UNL     1     -10.072   1.240 -32.722  1.00  0.00     0.069 C 
HETATM   14  C   UNL     1     -11.041   1.157 -33.892  1.00  0.00     0.190 C 
HETATM   15  N   UNL     1     -11.398   2.559 -34.319  1.00  0.00    -0.067 N 
HETATM   16  C   UNL     1     -12.416   0.582 -33.615  1.00  0.00     0.035 C 
HETATM   17  H   UNL     1     -11.759   3.065 -33.498  1.00  0.00     0.280 HD
HETATM   18  C   UNL     1     -10.209   3.311 -34.828  1.00  0.00     0.237 C 
HETATM   19  C   UNL     1     -12.563   2.396 -35.258  1.00  0.00     0.235 C 
HETATM   20  C   UNL     1      -9.189   3.395 -33.694  1.00  0.00     0.063 C 
HETATM   21  C   UNL     1     -13.253   1.117 -34.778  1.00  0.00     0.030 C 
ENDBRANCH  10  12
ENDBRANCH   1  10
BRANCH   1  22
HETATM   22  C   UNL     1      -6.181  -0.415 -34.085  1.00  0.00    -0.018 A 
HETATM   23  C   UNL     1      -7.138  -1.349 -34.510  1.00  0.00     0.029 A 
HETATM   24  C   UNL     1      -6.759  -2.670 -34.687  1.00  0.00     0.116 A 
HETATM   25  N   UNL     1      -5.511  -3.125 -34.465  1.00  0.00    -0.273 NA
HETATM   26  C   UNL     1      -4.596  -2.221 -34.063  1.00  0.00     0.116 A 
HETATM   27  C   UNL     1      -4.878  -0.879 -33.854  1.00  0.00     0.029 A 
ENDBRANCH   1  22
TORSDOF 4
ENDMDL
