MODEL 1
REMARK VINA RESULT:      -7.2      0.000      0.000
REMARK  5 active torsions:
REMARK  status: ('A' for Active; 'I' for Inactive)
REMARK    1  A    between atoms: C_8  and  C_9 
REMARK    2  A    between atoms: C_11  and  O_12 
REMARK    3  A    between atoms: C_14  and  O_15 
REMARK    4  A    between atoms: C_18  and  C_19 
REMARK    5  A    between atoms: C_22  and  O_23 
ROOT
HETATM    1  C   UNL     1      -6.379  -1.326 -34.942  1.00  0.00     0.070 C 
HETATM    2  C   UNL     1      -5.501  -0.880 -33.835  1.00  0.00     0.033 A 
HETATM    3  N   UNL     1      -4.556  -1.709 -33.291  1.00  0.00    -0.282 N 
HETATM    4  H   UNL     1      -4.343  -2.668 -33.544  1.00  0.00     0.189 HD
HETATM    5  N   UNL     1      -3.828  -1.134 -32.321  1.00  0.00    -0.179 NA
HETATM    6  C   UNL     1      -4.341   0.092 -32.229  1.00  0.00     0.066 A 
HETATM    7  C   UNL     1      -5.411   0.307 -33.128  1.00  0.00     0.001 A 
HETATM    8  C   UNL     1      -6.134   1.620 -33.239  1.00  0.00     0.070 C 
HETATM    9  C   UNL     1      -5.733   2.614 -32.109  1.00  0.00     0.102 C 
HETATM   10  C   UNL     1      -4.220   2.546 -31.704  1.00  0.00     0.071 C 
HETATM   11  C   UNL     1      -3.282   3.055 -32.808  1.00  0.00     0.047 C 
HETATM   12  C   UNL     1      -3.828   1.107 -31.277  1.00  0.00     0.100 C 
ENDROOT
BRANCH   8  13
HETATM   13  C   UNL     1      -7.622   1.282 -33.223  1.00  0.00    -0.046 A 
HETATM   14  C   UNL     1      -8.520   1.819 -34.172  1.00  0.00     0.047 A 
HETATM   15  C   UNL     1      -9.878   1.492 -34.138  1.00  0.00     0.101 A 
HETATM   16  C   UNL     1     -10.336   0.621 -33.146  1.00  0.00     0.099 A 
HETATM   17  C   UNL     1      -9.479   0.084 -32.198  1.00  0.00     0.040 A 
HETATM   18  C   UNL     1      -8.125   0.417 -32.234  1.00  0.00     0.011 A 
BRANCH  15  19
HETATM   19  O   UNL     1     -10.844   1.951 -34.996  1.00  0.00    -0.353 OA
HETATM   20  C   UNL     1     -11.110   3.349 -34.970  1.00  0.00     0.210 C 
ENDBRANCH  15  19
BRANCH  16  21
HETATM   21  O   UNL     1     -11.660   0.280 -33.085  1.00  0.00    -0.358 OA
HETATM   22  H   UNL     1     -11.762  -0.171 -32.225  1.00  0.00     0.218 HD
ENDBRANCH  16  21
ENDBRANCH   8  13
BRANCH   9  23
HETATM   23  C   UNL     1      -6.106   4.072 -32.393  1.00  0.00     0.131 C 
HETATM   24  C   UNL     1      -6.172   4.600 -33.801  1.00  0.00     0.091 C 
HETATM   25  O   UNL     1      -6.268   4.847 -31.443  1.00  0.00    -0.298 OA
ENDBRANCH   9  23
BRANCH  10  26
HETATM   26  O   UNL     1      -3.980   3.363 -30.541  1.00  0.00    -0.389 OA
HETATM   27  H   UNL     1      -3.489   2.840 -29.872  1.00  0.00     0.210 HD
ENDBRANCH  10  26
TORSDOF 5
ENDMDL
MODEL 2
REMARK VINA RESULT:      -7.2     15.683     17.262
REMARK  5 active torsions:
REMARK  status: ('A' for Active; 'I' for Inactive)
REMARK    1  A    between atoms: C_8  and  C_9 
REMARK    2  A    between atoms: C_11  and  O_12 
REMARK    3  A    between atoms: C_14  and  O_15 
REMARK    4  A    between atoms: C_18  and  C_19 
REMARK    5  A    between atoms: C_22  and  O_23 
ROOT
HETATM    1  C   UNL     1      -7.559 -14.025 -36.743  1.00  0.00     0.070 C 
HETATM    2  C   UNL     1      -6.297 -13.556 -37.362  1.00  0.00     0.033 A 
HETATM    3  N   UNL     1      -5.367 -12.850 -36.647  1.00  0.00    -0.282 N 
HETATM    4  H   UNL     1      -5.408 -12.565 -35.674  1.00  0.00     0.189 HD
HETATM    5  N   UNL     1      -4.270 -12.533 -37.353  1.00  0.00    -0.179 NA
HETATM    6  C   UNL     1      -4.520 -13.034 -38.562  1.00  0.00     0.066 A 
HETATM    7  C   UNL     1      -5.784 -13.662 -38.644  1.00  0.00     0.001 A 
HETATM    8  C   UNL     1      -6.283 -14.333 -39.893  1.00  0.00     0.070 C 
HETATM    9  C   UNL     1      -5.369 -14.054 -41.122  1.00  0.00     0.102 C 
HETATM   10  C   UNL     1      -3.840 -13.995 -40.782  1.00  0.00     0.071 C 
HETATM   11  C   UNL     1      -3.267 -15.359 -40.369  1.00  0.00     0.047 C 
HETATM   12  C   UNL     1      -3.559 -12.932 -39.686  1.00  0.00     0.100 C 
ENDROOT
BRANCH   8  13
HETATM   13  C   UNL     1      -7.710 -13.831 -40.096  1.00  0.00    -0.046 A 
HETATM   14  C   UNL     1      -8.796 -14.717 -40.274  1.00  0.00     0.047 A 
HETATM   15  C   UNL     1     -10.094 -14.233 -40.456  1.00  0.00     0.101 A 
HETATM   16  C   UNL     1     -10.303 -12.851 -40.458  1.00  0.00     0.099 A 
HETATM   17  C   UNL     1      -9.255 -11.958 -40.291  1.00  0.00     0.040 A 
HETATM   18  C   UNL     1      -7.961 -12.446 -40.114  1.00  0.00     0.011 A 
BRANCH  15  19
HETATM   19  O   UNL     1     -11.222 -14.989 -40.644  1.00  0.00    -0.353 OA
HETATM   20  C   UNL     1     -11.385 -15.586 -41.926  1.00  0.00     0.210 C 
ENDBRANCH  15  19
BRANCH  16  21
HETATM   21  O   UNL     1     -11.561 -12.344 -40.633  1.00  0.00    -0.358 OA
HETATM   22  H   UNL     1     -12.016 -12.505 -39.784  1.00  0.00     0.218 HD
ENDBRANCH  16  21
ENDBRANCH   8  13
BRANCH   9  23
HETATM   23  C   UNL     1      -5.581 -15.015 -42.294  1.00  0.00     0.131 C 
HETATM   24  C   UNL     1      -6.104 -16.409 -42.075  1.00  0.00     0.091 C 
HETATM   25  O   UNL     1      -5.231 -14.667 -43.428  1.00  0.00    -0.298 OA
ENDBRANCH   9  23
BRANCH  10  26
HETATM   26  O   UNL     1      -3.090 -13.558 -41.933  1.00  0.00    -0.389 OA
HETATM   27  H   UNL     1      -2.628 -12.719 -41.720  1.00  0.00     0.210 HD
ENDBRANCH  10  26
TORSDOF 5
ENDMDL
MODEL 3
REMARK VINA RESULT:      -7.2      3.063      5.486
REMARK  5 active torsions:
REMARK  status: ('A' for Active; 'I' for Inactive)
REMARK    1  A    between atoms: C_8  and  C_9 
REMARK    2  A    between atoms: C_11  and  O_12 
REMARK    3  A    between atoms: C_14  and  O_15 
REMARK    4  A    between atoms: C_18  and  C_19 
REMARK    5  A    between atoms: C_22  and  O_23 
ROOT
HETATM    1  C   UNL     1      -3.308   2.828 -32.506  1.00  0.00     0.070 C 
HETATM    2  C   UNL     1      -4.447   3.138 -31.611  1.00  0.00     0.033 A 
HETATM    3  N   UNL     1      -4.345   4.080 -30.622  1.00  0.00    -0.282 N 
HETATM    4  H   UNL     1      -3.541   4.649 -30.377  1.00  0.00     0.189 HD
HETATM    5  N   UNL     1      -5.480   4.256 -29.927  1.00  0.00    -0.179 NA
HETATM    6  C   UNL     1      -6.323   3.384 -30.476  1.00  0.00     0.066 A 
HETATM    7  C   UNL     1      -5.731   2.631 -31.516  1.00  0.00     0.001 A 
HETATM    8  C   UNL     1      -6.487   1.605 -32.313  1.00  0.00     0.070 C 
HETATM    9  C   UNL     1      -7.894   1.308 -31.715  1.00  0.00     0.102 C 
HETATM   10  C   UNL     1      -8.611   2.564 -31.113  1.00  0.00     0.071 C 
HETATM   11  C   UNL     1      -9.023   3.587 -32.181  1.00  0.00     0.047 C 
HETATM   12  C   UNL     1      -7.729   3.236 -30.027  1.00  0.00     0.100 C 
ENDROOT
BRANCH   8  13
HETATM   13  C   UNL     1      -5.594   0.368 -32.357  1.00  0.00    -0.046 A 
HETATM   14  C   UNL     1      -5.413  -0.382 -33.541  1.00  0.00     0.047 A 
HETATM   15  C   UNL     1      -4.589  -1.509 -33.556  1.00  0.00     0.101 A 
HETATM   16  C   UNL     1      -3.941  -1.886 -32.376  1.00  0.00     0.099 A 
HETATM   17  C   UNL     1      -4.104  -1.172 -31.198  1.00  0.00     0.040 A 
HETATM   18  C   UNL     1      -4.932  -0.050 -31.188  1.00  0.00     0.011 A 
BRANCH  15  19
HETATM   19  O   UNL     1      -4.340  -2.318 -34.635  1.00  0.00    -0.353 OA
HETATM   20  C   UNL     1      -5.414  -3.141 -35.077  1.00  0.00     0.210 C 
ENDBRANCH  15  19
BRANCH  16  21
HETATM   21  O   UNL     1      -3.126  -2.984 -32.357  1.00  0.00    -0.358 OA
HETATM   22  H   UNL     1      -2.886  -3.101 -31.417  1.00  0.00     0.218 HD
ENDBRANCH  16  21
ENDBRANCH   8  13
BRANCH   9  23
HETATM   23  C   UNL     1      -8.851   0.604 -32.680  1.00  0.00     0.131 C 
HETATM   24  C   UNL     1      -8.747   0.805 -34.168  1.00  0.00     0.091 C 
HETATM   25  O   UNL     1      -9.781  -0.071 -32.220  1.00  0.00    -0.298 OA
ENDBRANCH   9  23
BRANCH  10  26
HETATM   26  O   UNL     1      -9.816   2.168 -30.427  1.00  0.00    -0.389 OA
HETATM   27  H   UNL     1     -10.290   1.498 -30.964  1.00  0.00     0.210 HD
ENDBRANCH  10  26
TORSDOF 5
ENDMDL
MODEL 4
REMARK VINA RESULT:      -7.1      3.352      5.674
REMARK  5 active torsions:
REMARK  status: ('A' for Active; 'I' for Inactive)
REMARK    1  A    between atoms: C_8  and  C_9 
REMARK    2  A    between atoms: C_11  and  O_12 
REMARK    3  A    between atoms: C_14  and  O_15 
REMARK    4  A    between atoms: C_18  and  C_19 
REMARK    5  A    between atoms: C_22  and  O_23 
ROOT
HETATM    1  C   UNL     1     -10.597  -0.413 -32.713  1.00  0.00     0.070 C 
HETATM    2  C   UNL     1     -10.872   0.796 -33.525  1.00  0.00     0.033 A 
HETATM    3  N   UNL     1     -12.048   0.946 -34.210  1.00  0.00    -0.282 N 
HETATM    4  H   UNL     1     -12.832   0.304 -34.260  1.00  0.00     0.189 HD
HETATM    5  N   UNL     1     -12.144   2.114 -34.866  1.00  0.00    -0.179 NA
HETATM    6  C   UNL     1     -10.983   2.714 -34.608  1.00  0.00     0.066 A 
HETATM    7  C   UNL     1     -10.129   1.931 -33.798  1.00  0.00     0.001 A 
HETATM    8  C   UNL     1      -8.777   2.403 -33.343  1.00  0.00     0.070 C 
HETATM    9  C   UNL     1      -8.341   3.723 -34.046  1.00  0.00     0.102 C 
HETATM   10  C   UNL     1      -9.515   4.730 -34.300  1.00  0.00     0.071 C 
HETATM   11  C   UNL     1     -10.078   5.331 -33.004  1.00  0.00     0.047 C 
HETATM   12  C   UNL     1     -10.646   4.062 -35.127  1.00  0.00     0.100 C 
ENDROOT
BRANCH   8  13
HETATM   13  C   UNL     1      -7.817   1.248 -33.614  1.00  0.00    -0.046 A 
HETATM   14  C   UNL     1      -7.024   0.680 -32.592  1.00  0.00     0.047 A 
HETATM   15  C   UNL     1      -6.154  -0.379 -32.865  1.00  0.00     0.101 A 
HETATM   16  C   UNL     1      -6.080  -0.870 -34.171  1.00  0.00     0.099 A 
HETATM   17  C   UNL     1      -6.842  -0.328 -35.195  1.00  0.00     0.040 A 
HETATM   18  C   UNL     1      -7.705   0.732 -34.918  1.00  0.00     0.011 A 
BRANCH  15  19
HETATM   19  O   UNL     1      -5.334  -1.007 -31.963  1.00  0.00    -0.353 OA
HETATM   20  C   UNL     1      -4.290  -0.223 -31.395  1.00  0.00     0.210 C 
ENDBRANCH  15  19
BRANCH  16  21
HETATM   21  O   UNL     1      -5.239  -1.906 -34.472  1.00  0.00    -0.358 OA
HETATM   22  H   UNL     1      -5.734  -2.710 -34.221  1.00  0.00     0.218 HD
ENDBRANCH  16  21
ENDBRANCH   8  13
BRANCH   9  23
HETATM   23  C   UNL     1      -7.197   4.460 -33.346  1.00  0.00     0.131 C 
HETATM   24  C   UNL     1      -6.971   4.323 -31.865  1.00  0.00     0.091 C 
HETATM   25  O   UNL     1      -6.502   5.249 -33.998  1.00  0.00    -0.298 OA
ENDBRANCH   9  23
BRANCH  10  26
HETATM   26  O   UNL     1      -9.058   5.833 -35.108  1.00  0.00    -0.389 OA
HETATM   27  H   UNL     1      -8.597   5.485 -35.902  1.00  0.00     0.210 HD
ENDBRANCH  10  26
TORSDOF 5
ENDMDL
MODEL 5
REMARK VINA RESULT:      -7.1      1.743      5.273
REMARK  5 active torsions:
REMARK  status: ('A' for Active; 'I' for Inactive)
REMARK    1  A    between atoms: C_8  and  C_9 
REMARK    2  A    between atoms: C_11  and  O_12 
REMARK    3  A    between atoms: C_14  and  O_15 
REMARK    4  A    between atoms: C_18  and  C_19 
REMARK    5  A    between atoms: C_22  and  O_23 
ROOT
HETATM    1  C   UNL     1      -4.393  -0.464 -31.442  1.00  0.00     0.070 C 
HETATM    2  C   UNL     1      -5.329  -0.504 -32.590  1.00  0.00     0.033 A 
HETATM    3  N   UNL     1      -5.205  -1.437 -33.584  1.00  0.00    -0.282 N 
HETATM    4  H   UNL     1      -4.509  -2.170 -33.673  1.00  0.00     0.189 HD
HETATM    5  N   UNL     1      -6.156  -1.350 -34.528  1.00  0.00    -0.179 NA
HETATM    6  C   UNL     1      -6.895  -0.314 -34.133  1.00  0.00     0.066 A 
HETATM    7  C   UNL     1      -6.415   0.279 -32.943  1.00  0.00     0.001 A 
HETATM    8  C   UNL     1      -7.096   1.443 -32.278  1.00  0.00     0.070 C 
HETATM    9  C   UNL     1      -8.225   2.052 -33.161  1.00  0.00     0.102 C 
HETATM   10  C   UNL     1      -9.035   0.993 -33.984  1.00  0.00     0.071 C 
HETATM   11  C   UNL     1      -9.897   0.081 -33.100  1.00  0.00     0.047 C 
HETATM   12  C   UNL     1      -8.090   0.149 -34.879  1.00  0.00     0.100 C 
ENDROOT
BRANCH   8  13
HETATM   13  C   UNL     1      -5.992   2.447 -31.959  1.00  0.00    -0.046 A 
HETATM   14  C   UNL     1      -5.188   3.020 -32.971  1.00  0.00     0.047 A 
HETATM   15  C   UNL     1      -4.185   3.939 -32.654  1.00  0.00     0.101 A 
HETATM   16  C   UNL     1      -3.988   4.286 -31.314  1.00  0.00     0.099 A 
HETATM   17  C   UNL     1      -4.758   3.736 -30.301  1.00  0.00     0.040 A 
HETATM   18  C   UNL     1      -5.755   2.815 -30.622  1.00  0.00     0.011 A 
BRANCH  15  19
HETATM   19  O   UNL     1      -3.340   4.555 -33.541  1.00  0.00    -0.353 OA
HETATM   20  C   UNL     1      -3.949   5.250 -34.624  1.00  0.00     0.210 C 
ENDBRANCH  15  19
BRANCH  16  21
HETATM   21  O   UNL     1      -3.015   5.183 -30.970  1.00  0.00    -0.358 OA
HETATM   22  H   UNL     1      -3.108   5.913 -31.614  1.00  0.00     0.218 HD
ENDBRANCH  16  21
ENDBRANCH   8  13
BRANCH   9  23
HETATM   23  C   UNL     1      -9.206   2.946 -32.398  1.00  0.00     0.131 C 
HETATM   24  C   UNL     1      -9.407   2.795 -30.915  1.00  0.00     0.091 C 
HETATM   25  O   UNL     1      -9.908   3.744 -33.030  1.00  0.00    -0.298 OA
ENDBRANCH   9  23
BRANCH  10  26
HETATM   26  O   UNL     1      -9.931   1.655 -34.901  1.00  0.00    -0.389 OA
HETATM   27  H   UNL     1      -9.775   2.623 -34.865  1.00  0.00     0.210 HD
ENDBRANCH  10  26
TORSDOF 5
ENDMDL
MODEL 6
REMARK VINA RESULT:      -6.9      3.503      6.596
REMARK  5 active torsions:
REMARK  status: ('A' for Active; 'I' for Inactive)
REMARK    1  A    between atoms: C_8  and  C_9 
REMARK    2  A    between atoms: C_11  and  O_12 
REMARK    3  A    between atoms: C_14  and  O_15 
REMARK    4  A    between atoms: C_18  and  C_19 
REMARK    5  A    between atoms: C_22  and  O_23 
ROOT
HETATM    1  C   UNL     1      -6.491   6.524 -32.146  1.00  0.00     0.070 C 
HETATM    2  C   UNL     1      -6.563   5.334 -31.266  1.00  0.00     0.033 A 
HETATM    3  N   UNL     1      -6.858   5.445 -29.933  1.00  0.00    -0.282 N 
HETATM    4  H   UNL     1      -7.048   6.287 -29.401  1.00  0.00     0.189 HD
HETATM    5  N   UNL     1      -6.913   4.266 -29.294  1.00  0.00    -0.179 NA
HETATM    6  C   UNL     1      -6.622   3.380 -30.245  1.00  0.00     0.066 A 
HETATM    7  C   UNL     1      -6.363   3.984 -31.496  1.00  0.00     0.001 A 
HETATM    8  C   UNL     1      -6.044   3.194 -32.734  1.00  0.00     0.070 C 
HETATM    9  C   UNL     1      -5.803   1.686 -32.429  1.00  0.00     0.102 C 
HETATM   10  C   UNL     1      -6.729   1.104 -31.306  1.00  0.00     0.071 C 
HETATM   11  C   UNL     1      -8.203   1.026 -31.727  1.00  0.00     0.047 C 
HETATM   12  C   UNL     1      -6.580   1.919 -29.993  1.00  0.00     0.100 C 
ENDROOT
BRANCH   8  13
HETATM   13  C   UNL     1      -4.826   3.869 -33.359  1.00  0.00    -0.046 A 
HETATM   14  C   UNL     1      -3.566   3.875 -32.720  1.00  0.00     0.047 A 
HETATM   15  C   UNL     1      -2.465   4.498 -33.313  1.00  0.00     0.101 A 
HETATM   16  C   UNL     1      -2.630   5.117 -34.555  1.00  0.00     0.099 A 
HETATM   17  C   UNL     1      -3.856   5.131 -35.203  1.00  0.00     0.040 A 
HETATM   18  C   UNL     1      -4.952   4.512 -34.604  1.00  0.00     0.011 A 
BRANCH  15  19
HETATM   19  O   UNL     1      -1.199   4.577 -32.792  1.00  0.00    -0.353 OA
HETATM   20  C   UNL     1      -1.075   5.171 -31.504  1.00  0.00     0.210 C 
ENDBRANCH  15  19
BRANCH  16  21
HETATM   21  O   UNL     1      -1.572   5.735 -35.164  1.00  0.00    -0.358 OA
HETATM   22  H   UNL     1      -1.266   6.401 -34.518  1.00  0.00     0.218 HD
ENDBRANCH  16  21
ENDBRANCH   8  13
BRANCH   9  23
HETATM   23  C   UNL     1      -5.882   0.776 -33.658  1.00  0.00     0.131 C 
HETATM   24  C   UNL     1      -6.794   1.098 -34.810  1.00  0.00     0.091 C 
HETATM   25  O   UNL     1      -5.250  -0.288 -33.660  1.00  0.00    -0.298 OA
ENDBRANCH   9  23
BRANCH  10  26
HETATM   26  O   UNL     1      -6.318  -0.236 -30.967  1.00  0.00    -0.389 OA
HETATM   27  H   UNL     1      -7.092  -0.836 -31.019  1.00  0.00     0.210 HD
ENDBRANCH  10  26
TORSDOF 5
ENDMDL
MODEL 7
REMARK VINA RESULT:      -6.8      3.223      5.141
REMARK  5 active torsions:
REMARK  status: ('A' for Active; 'I' for Inactive)
REMARK    1  A    between atoms: C_8  and  C_9 
REMARK    2  A    between atoms: C_11  and  O_12 
REMARK    3  A    between atoms: C_14  and  O_15 
REMARK    4  A    between atoms: C_18  and  C_19 
REMARK    5  A    between atoms: C_22  and  O_23 
ROOT
HETATM    1  C   UNL     1      -9.185   0.278 -31.590  1.00  0.00     0.070 C 
HETATM    2  C   UNL     1      -9.193   1.624 -32.210  1.00  0.00     0.033 A 
HETATM    3  N   UNL     1     -10.364   2.281 -32.479  1.00  0.00    -0.282 N 
HETATM    4  H   UNL     1     -11.314   1.965 -32.313  1.00  0.00     0.189 HD
HETATM    5  N   UNL     1     -10.188   3.501 -33.010  1.00  0.00    -0.179 NA
HETATM    6  C   UNL     1      -8.864   3.615 -33.102  1.00  0.00     0.066 A 
HETATM    7  C   UNL     1      -8.182   2.463 -32.645  1.00  0.00     0.001 A 
HETATM    8  C   UNL     1      -6.683   2.359 -32.616  1.00  0.00     0.070 C 
HETATM    9  C   UNL     1      -5.992   3.545 -33.352  1.00  0.00     0.102 C 
HETATM   10  C   UNL     1      -6.719   4.922 -33.169  1.00  0.00     0.071 C 
HETATM   11  C   UNL     1      -6.634   5.456 -31.732  1.00  0.00     0.047 C 
HETATM   12  C   UNL     1      -8.198   4.830 -33.630  1.00  0.00     0.100 C 
ENDROOT
BRANCH   8  13
HETATM   13  C   UNL     1      -6.346   1.006 -33.236  1.00  0.00    -0.046 A 
HETATM   14  C   UNL     1      -5.500   0.077 -32.589  1.00  0.00     0.047 A 
HETATM   15  C   UNL     1      -5.208  -1.156 -33.176  1.00  0.00     0.101 A 
HETATM   16  C   UNL     1      -5.768  -1.459 -34.420  1.00  0.00     0.099 A 
HETATM   17  C   UNL     1      -6.596  -0.565 -35.081  1.00  0.00     0.040 A 
HETATM   18  C   UNL     1      -6.881   0.667 -34.493  1.00  0.00     0.011 A 
BRANCH  15  19
HETATM   19  O   UNL     1      -4.402  -2.133 -32.652  1.00  0.00    -0.353 OA
HETATM   20  C   UNL     1      -3.200  -1.700 -32.024  1.00  0.00     0.210 C 
ENDBRANCH  15  19
BRANCH  16  21
HETATM   21  O   UNL     1      -5.503  -2.658 -35.022  1.00  0.00    -0.358 OA
HETATM   22  H   UNL     1      -6.095  -3.297 -34.580  1.00  0.00     0.218 HD
ENDBRANCH  16  21
ENDBRANCH   8  13
BRANCH   9  23
HETATM   23  C   UNL     1      -4.510   3.716 -33.012  1.00  0.00     0.131 C 
HETATM   24  C   UNL     1      -3.937   3.184 -31.727  1.00  0.00     0.091 C 
HETATM   25  O   UNL     1      -3.792   4.382 -33.769  1.00  0.00    -0.298 OA
ENDBRANCH   9  23
BRANCH  10  26
HETATM   26  O   UNL     1      -6.119   5.918 -34.022  1.00  0.00    -0.389 OA
HETATM   27  H   UNL     1      -6.767   6.635 -34.190  1.00  0.00     0.210 HD
ENDBRANCH  10  26
TORSDOF 5
ENDMDL
MODEL 8
REMARK VINA RESULT:      -6.7      1.899      5.550
REMARK  5 active torsions:
REMARK  status: ('A' for Active; 'I' for Inactive)
REMARK    1  A    between atoms: C_8  and  C_9 
REMARK    2  A    between atoms: C_11  and  O_12 
REMARK    3  A    between atoms: C_14  and  O_15 
REMARK    4  A    between atoms: C_18  and  C_19 
REMARK    5  A    between atoms: C_22  and  O_23 
ROOT
HETATM    1  C   UNL     1      -3.787   1.012 -32.014  1.00  0.00     0.070 C 
HETATM    2  C   UNL     1      -4.848   0.516 -32.922  1.00  0.00     0.033 A 
HETATM    3  N   UNL     1      -4.702  -0.650 -33.625  1.00  0.00    -0.282 N 
HETATM    4  H   UNL     1      -3.910  -1.285 -33.630  1.00  0.00     0.189 HD
HETATM    5  N   UNL     1      -5.771  -0.966 -34.373  1.00  0.00    -0.179 NA
HETATM    6  C   UNL     1      -6.615   0.041 -34.155  1.00  0.00     0.066 A 
HETATM    7  C   UNL     1      -6.087   1.018 -33.279  1.00  0.00     0.001 A 
HETATM    8  C   UNL     1      -6.860   2.235 -32.852  1.00  0.00     0.070 C 
HETATM    9  C   UNL     1      -8.183   2.409 -33.655  1.00  0.00     0.102 C 
HETATM   10  C   UNL     1      -8.906   1.061 -33.997  1.00  0.00     0.071 C 
HETATM   11  C   UNL     1      -9.475   0.357 -32.757  1.00  0.00     0.047 C 
HETATM   12  C   UNL     1      -7.960   0.109 -34.776  1.00  0.00     0.100 C 
ENDROOT
BRANCH   8  13
HETATM   13  C   UNL     1      -5.908   3.416 -33.024  1.00  0.00    -0.046 A 
HETATM   14  C   UNL     1      -5.328   4.075 -31.917  1.00  0.00     0.047 A 
HETATM   15  C   UNL     1      -4.458   5.152 -32.100  1.00  0.00     0.101 A 
HETATM   16  C   UNL     1      -4.169   5.571 -33.401  1.00  0.00     0.099 A 
HETATM   17  C   UNL     1      -4.729   4.947 -34.506  1.00  0.00     0.040 A 
HETATM   18  C   UNL     1      -5.600   3.875 -34.318  1.00  0.00     0.011 A 
BRANCH  15  19
HETATM   19  O   UNL     1      -3.840   5.872 -31.110  1.00  0.00    -0.353 OA
HETATM   20  C   UNL     1      -4.687   6.531 -30.175  1.00  0.00     0.210 C 
ENDBRANCH  15  19
BRANCH  16  21
HETATM   21  O   UNL     1      -3.321   6.623 -33.616  1.00  0.00    -0.358 OA
HETATM   22  H   UNL     1      -2.596   6.253 -34.157  1.00  0.00     0.218 HD
ENDBRANCH  16  21
ENDBRANCH   8  13
BRANCH   9  23
HETATM   23  C   UNL     1      -9.190   3.363 -33.007  1.00  0.00     0.131 C 
HETATM   24  C   UNL     1      -9.150   3.655 -31.532  1.00  0.00     0.091 C 
HETATM   25  O   UNL     1     -10.105   3.829 -33.696  1.00  0.00    -0.298 OA
ENDBRANCH   9  23
BRANCH  10  26
HETATM   26  O   UNL     1     -10.015   1.303 -34.886  1.00  0.00    -0.389 OA
HETATM   27  H   UNL     1      -9.804   2.064 -35.469  1.00  0.00     0.210 HD
ENDBRANCH  10  26
TORSDOF 5
ENDMDL
MODEL 9
REMARK VINA RESULT:      -6.6      2.624      6.169
REMARK  5 active torsions:
REMARK  status: ('A' for Active; 'I' for Inactive)
REMARK    1  A    between atoms: C_8  and  C_9 
REMARK    2  A    between atoms: C_11  and  O_12 
REMARK    3  A    between atoms: C_14  and  O_15 
REMARK    4  A    between atoms: C_18  and  C_19 
REMARK    5  A    between atoms: C_22  and  O_23 
ROOT
HETATM    1  C   UNL     1      -3.351   2.423 -31.389  1.00  0.00     0.070 C 
HETATM    2  C   UNL     1      -4.421   1.817 -32.216  1.00  0.00     0.033 A 
HETATM    3  N   UNL     1      -4.421   0.481 -32.520  1.00  0.00    -0.282 N 
HETATM    4  H   UNL     1      -3.744  -0.224 -32.250  1.00  0.00     0.189 HD
HETATM    5  N   UNL     1      -5.480   0.095 -33.250  1.00  0.00    -0.179 NA
HETATM    6  C   UNL     1      -6.161   1.224 -33.435  1.00  0.00     0.066 A 
HETATM    7  C   UNL     1      -5.538   2.345 -32.839  1.00  0.00     0.001 A 
HETATM    8  C   UNL     1      -6.129   3.726 -32.880  1.00  0.00     0.070 C 
HETATM    9  C   UNL     1      -7.355   3.818 -33.836  1.00  0.00     0.102 C 
HETATM   10  C   UNL     1      -8.264   2.541 -33.837  1.00  0.00     0.071 C 
HETATM   11  C   UNL     1      -9.015   2.341 -32.513  1.00  0.00     0.047 C 
HETATM   12  C   UNL     1      -7.437   1.276 -34.190  1.00  0.00     0.100 C 
ENDROOT
BRANCH   8  13
HETATM   13  C   UNL     1      -4.991   4.656 -33.292  1.00  0.00    -0.046 A 
HETATM   14  C   UNL     1      -4.441   5.604 -32.400  1.00  0.00     0.047 A 
HETATM   15  C   UNL     1      -3.398   6.443 -32.801  1.00  0.00     0.101 A 
HETATM   16  C   UNL     1      -2.904   6.328 -34.103  1.00  0.00     0.099 A 
HETATM   17  C   UNL     1      -3.428   5.411 -35.001  1.00  0.00     0.040 A 
HETATM   18  C   UNL     1      -4.473   4.580 -34.598  1.00  0.00     0.011 A 
BRANCH  15  19
HETATM   19  O   UNL     1      -2.788   7.401 -32.033  1.00  0.00    -0.353 OA
HETATM   20  C   UNL     1      -1.997   6.938 -30.944  1.00  0.00     0.210 C 
ENDBRANCH  15  19
BRANCH  16  21
HETATM   21  O   UNL     1      -1.883   7.134 -34.527  1.00  0.00    -0.358 OA
HETATM   22  H   UNL     1      -1.158   6.520 -34.755  1.00  0.00     0.218 HD
ENDBRANCH  16  21
ENDBRANCH   8  13
BRANCH   9  23
HETATM   23  C   UNL     1      -8.233   5.053 -33.615  1.00  0.00     0.131 C 
HETATM   24  C   UNL     1      -8.322   5.715 -32.267  1.00  0.00     0.091 C 
HETATM   25  O   UNL     1      -8.949   5.456 -34.541  1.00  0.00    -0.298 OA
ENDBRANCH   9  23
BRANCH  10  26
HETATM   26  O   UNL     1      -9.262   2.641 -34.873  1.00  0.00    -0.389 OA
HETATM   27  H   UNL     1     -10.110   2.275 -34.543  1.00  0.00     0.210 HD
ENDBRANCH  10  26
TORSDOF 5
ENDMDL
MODEL 10
REMARK VINA RESULT:      -6.4     15.249     17.080
REMARK  5 active torsions:
REMARK  status: ('A' for Active; 'I' for Inactive)
REMARK    1  A    between atoms: C_8  and  C_9 
REMARK    2  A    between atoms: C_11  and  O_12 
REMARK    3  A    between atoms: C_14  and  O_15 
REMARK    4  A    between atoms: C_18  and  C_19 
REMARK    5  A    between atoms: C_22  and  O_23 
ROOT
HETATM    1  C   UNL     1      -3.414 -15.034 -36.401  1.00  0.00     0.070 C 
HETATM    2  C   UNL     1      -3.924 -13.955 -37.279  1.00  0.00     0.033 A 
HETATM    3  N   UNL     1      -3.125 -12.913 -37.671  1.00  0.00    -0.282 N 
HETATM    4  H   UNL     1      -2.154 -12.742 -37.432  1.00  0.00     0.189 HD
HETATM    5  N   UNL     1      -3.738 -12.043 -38.490  1.00  0.00    -0.179 NA
HETATM    6  C   UNL     1      -4.970 -12.536 -38.605  1.00  0.00     0.066 A 
HETATM    7  C   UNL     1      -5.162 -13.715 -37.849  1.00  0.00     0.001 A 
HETATM    8  C   UNL     1      -6.457 -14.477 -37.840  1.00  0.00     0.070 C 
HETATM    9  C   UNL     1      -7.605 -13.704 -38.554  1.00  0.00     0.102 C 
HETATM   10  C   UNL     1      -7.144 -12.893 -39.813  1.00  0.00     0.071 C 
HETATM   11  C   UNL     1      -6.709 -13.793 -40.978  1.00  0.00     0.047 C 
HETATM   12  C   UNL     1      -6.013 -11.896 -39.444  1.00  0.00     0.100 C 
ENDROOT
BRANCH   8  13
HETATM   13  C   UNL     1      -6.764 -14.763 -36.373  1.00  0.00    -0.046 A 
HETATM   14  C   UNL     1      -6.981 -16.075 -35.896  1.00  0.00     0.047 A 
HETATM   15  C   UNL     1      -7.258 -16.311 -34.548  1.00  0.00     0.101 A 
HETATM   16  C   UNL     1      -7.318 -15.224 -33.672  1.00  0.00     0.099 A 
HETATM   17  C   UNL     1      -7.116 -13.924 -34.113  1.00  0.00     0.040 A 
HETATM   18  C   UNL     1      -6.844 -13.694 -35.461  1.00  0.00     0.011 A 
BRANCH  15  19
HETATM   19  O   UNL     1      -7.491 -17.532 -33.969  1.00  0.00    -0.353 OA
HETATM   20  C   UNL     1      -6.363 -18.386 -33.805  1.00  0.00     0.210 C 
ENDBRANCH  15  19
BRANCH  16  21
HETATM   21  O   UNL     1      -7.587 -15.420 -32.346  1.00  0.00    -0.358 OA
HETATM   22  H   UNL     1      -8.553 -15.561 -32.305  1.00  0.00     0.218 HD
ENDBRANCH  16  21
ENDBRANCH   8  13
BRANCH   9  23
HETATM   23  C   UNL     1      -8.806 -14.574 -38.935  1.00  0.00     0.131 C 
HETATM   24  C   UNL     1      -8.674 -16.066 -39.080  1.00  0.00     0.091 C 
HETATM   25  O   UNL     1      -9.880 -14.027 -39.215  1.00  0.00    -0.298 OA
ENDBRANCH   9  23
BRANCH  10  26
HETATM   26  O   UNL     1      -8.225 -12.073 -40.300  1.00  0.00    -0.389 OA
HETATM   27  H   UNL     1      -8.922 -12.012 -39.612  1.00  0.00     0.210 HD
ENDBRANCH  10  26
TORSDOF 5
ENDMDL
