MODEL 1
REMARK VINA RESULT:      -8.2      0.000      0.000
REMARK  6 active torsions:
REMARK  status: ('A' for Active; 'I' for Inactive)
REMARK    1  A    between atoms: C_2  and  O_3 
REMARK    2  A    between atoms: O_3  and  C_4 
REMARK    3  A    between atoms: C_6  and  C_7 
REMARK       I    between atoms: C_7  and  N_8 
REMARK    4  A    between atoms: C_10  and  N_11 
REMARK       I    between atoms: N_11  and  C_12 
REMARK    5  A    between atoms: C_12  and  C_13 
REMARK    6  A    between atoms: N_15  and  C_16 
ROOT
HETATM    1  N   UNL     1      -4.353   2.688 -32.845  1.00  0.00    -0.319 N 
HETATM    2  C   UNL     1      -5.612   2.432 -32.321  1.00  0.00     0.295 C 
HETATM    3  O   UNL     1      -6.224   3.173 -31.557  1.00  0.00    -0.264 OA
HETATM    4  H   UNL     1      -4.057   2.039 -33.574  1.00  0.00     0.169 HD
ENDROOT
BRANCH   1   5
HETATM    5  C   UNL     1      -3.479   3.750 -32.519  1.00  0.00     0.051 A 
HETATM    6  C   UNL     1      -3.418   4.899 -33.334  1.00  0.00     0.061 A 
HETATM    7  C   UNL     1      -2.489   5.917 -33.063  1.00  0.00     0.056 A 
HETATM    8  C   UNL     1      -1.625   5.823 -31.973  1.00  0.00     0.069 A 
HETATM    9  C   UNL     1      -1.687   4.698 -31.157  1.00  0.00     0.039 A 
HETATM   10  C   UNL     1      -2.606   3.673 -31.428  1.00  0.00     0.033 A 
BRANCH   6  11
HETATM   11  C   UNL     1      -4.336   5.135 -34.477  1.00  0.00     0.251 C 
HETATM   12  N   UNL     1      -3.756   5.343 -35.699  1.00  0.00    -0.366 N 
HETATM   13  H   UNL     1      -2.796   5.067 -35.867  1.00  0.00     0.159 HD
HETATM   14  H   UNL     1      -4.386   5.324 -36.493  1.00  0.00     0.159 HD
HETATM   15  O   UNL     1      -5.552   5.093 -34.354  1.00  0.00    -0.268 OA
ENDBRANCH   6  11
BRANCH   8  16
HETATM   16  O   UNL     1      -0.784   6.888 -31.809  1.00  0.00    -0.351 OA
BRANCH  16  17
HETATM   17  C   UNL     1       0.445   6.647 -31.124  1.00  0.00     0.171 C 
HETATM   18  C   UNL     1       0.349   7.276 -29.745  1.00  0.00     0.034 C 
ENDBRANCH  16  17
ENDBRANCH   8  16
ENDBRANCH   1   5
BRANCH   2  19
HETATM   19  C   UNL     1      -6.195   1.167 -32.823  1.00  0.00     0.239 A 
HETATM   20  N   UNL     1      -5.446   0.174 -33.347  1.00  0.00    -0.140 NA
HETATM   21  N   UNL     1      -6.366  -0.799 -33.582  1.00  0.00    -0.225 N 
HETATM   22  C   UNL     1      -7.618  -0.317 -33.297  1.00  0.00     0.237 A 
HETATM   23  N   UNL     1      -7.543   0.897 -32.809  1.00  0.00    -0.216 NA
BRANCH  21  24
HETATM   24  C   UNL     1      -5.999  -2.097 -34.025  1.00  0.00     0.059 A 
HETATM   25  C   UNL     1      -4.675  -2.532 -33.868  1.00  0.00     0.031 A 
HETATM   26  C   UNL     1      -4.309  -3.821 -34.263  1.00  0.00     0.002 A 
HETATM   27  C   UNL     1      -5.256  -4.677 -34.821  1.00  0.00     0.000 A 
HETATM   28  C   UNL     1      -6.571  -4.248 -34.989  1.00  0.00     0.002 A 
HETATM   29  C   UNL     1      -6.948  -2.963 -34.591  1.00  0.00     0.031 A 
ENDBRANCH  21  24
ENDBRANCH   2  19
TORSDOF 6
ENDMDL
MODEL 2
REMARK VINA RESULT:      -8.2      1.767      2.346
REMARK  6 active torsions:
REMARK  status: ('A' for Active; 'I' for Inactive)
REMARK    1  A    between atoms: C_2  and  O_3 
REMARK    2  A    between atoms: O_3  and  C_4 
REMARK    3  A    between atoms: C_6  and  C_7 
REMARK       I    between atoms: C_7  and  N_8 
REMARK    4  A    between atoms: C_10  and  N_11 
REMARK       I    between atoms: N_11  and  C_12 
REMARK    5  A    between atoms: C_12  and  C_13 
REMARK    6  A    between atoms: N_15  and  C_16 
ROOT
HETATM    1  N   UNL     1      -3.909   3.140 -32.320  1.00  0.00    -0.319 N 
HETATM    2  C   UNL     1      -3.686   1.806 -32.009  1.00  0.00     0.295 C 
HETATM    3  O   UNL     1      -2.914   1.401 -31.145  1.00  0.00    -0.264 OA
HETATM    4  H   UNL     1      -4.687   3.302 -32.960  1.00  0.00     0.169 HD
ENDROOT
BRANCH   1   5
HETATM    5  C   UNL     1      -3.223   4.272 -31.822  1.00  0.00     0.051 A 
HETATM    6  C   UNL     1      -3.848   5.135 -30.900  1.00  0.00     0.061 A 
HETATM    7  C   UNL     1      -3.204   6.307 -30.471  1.00  0.00     0.056 A 
HETATM    8  C   UNL     1      -1.926   6.628 -30.928  1.00  0.00     0.069 A 
HETATM    9  C   UNL     1      -1.298   5.774 -31.830  1.00  0.00     0.039 A 
HETATM   10  C   UNL     1      -1.941   4.608 -32.270  1.00  0.00     0.033 A 
BRANCH   6  11
HETATM   11  C   UNL     1      -5.175   4.856 -30.295  1.00  0.00     0.251 C 
HETATM   12  N   UNL     1      -5.182   4.459 -28.985  1.00  0.00    -0.366 N 
HETATM   13  H   UNL     1      -4.378   4.626 -28.392  1.00  0.00     0.159 HD
HETATM   14  H   UNL     1      -6.090   4.446 -28.535  1.00  0.00     0.159 HD
HETATM   15  O   UNL     1      -6.219   5.022 -30.910  1.00  0.00    -0.268 OA
ENDBRANCH   6  11
BRANCH   8  16
HETATM   16  O   UNL     1      -1.404   7.783 -30.419  1.00  0.00    -0.351 OA
BRANCH  16  17
HETATM   17  C   UNL     1      -0.979   7.761 -29.057  1.00  0.00     0.171 C 
HETATM   18  C   UNL     1       0.522   7.535 -29.034  1.00  0.00     0.034 C 
ENDBRANCH  16  17
ENDBRANCH   8  16
ENDBRANCH   1   5
BRANCH   2  19
HETATM   19  C   UNL     1      -4.529   0.885 -32.805  1.00  0.00     0.239 A 
HETATM   20  N   UNL     1      -4.165  -0.385 -33.083  1.00  0.00    -0.140 NA
HETATM   21  N   UNL     1      -5.253  -0.868 -33.738  1.00  0.00    -0.225 N 
HETATM   22  C   UNL     1      -6.160   0.144 -33.919  1.00  0.00     0.237 A 
HETATM   23  N   UNL     1      -5.746   1.243 -33.337  1.00  0.00    -0.216 NA
BRANCH  21  24
HETATM   24  C   UNL     1      -5.365  -2.232 -34.116  1.00  0.00     0.059 A 
HETATM   25  C   UNL     1      -4.275  -3.094 -33.925  1.00  0.00     0.031 A 
HETATM   26  C   UNL     1      -4.384  -4.447 -34.254  1.00  0.00     0.002 A 
HETATM   27  C   UNL     1      -5.574  -4.945 -34.782  1.00  0.00     0.000 A 
HETATM   28  C   UNL     1      -6.658  -4.092 -34.984  1.00  0.00     0.002 A 
HETATM   29  C   UNL     1      -6.560  -2.739 -34.651  1.00  0.00     0.031 A 
ENDBRANCH  21  24
ENDBRANCH   2  19
TORSDOF 6
ENDMDL
MODEL 3
REMARK VINA RESULT:      -7.9      1.946      2.538
REMARK  6 active torsions:
REMARK  status: ('A' for Active; 'I' for Inactive)
REMARK    1  A    between atoms: C_2  and  O_3 
REMARK    2  A    between atoms: O_3  and  C_4 
REMARK    3  A    between atoms: C_6  and  C_7 
REMARK       I    between atoms: C_7  and  N_8 
REMARK    4  A    between atoms: C_10  and  N_11 
REMARK       I    between atoms: N_11  and  C_12 
REMARK    5  A    between atoms: C_12  and  C_13 
REMARK    6  A    between atoms: N_15  and  C_16 
ROOT
HETATM    1  N   UNL     1      -3.002   3.404 -32.293  1.00  0.00    -0.319 N 
HETATM    2  C   UNL     1      -3.855   2.648 -31.502  1.00  0.00     0.295 C 
HETATM    3  O   UNL     1      -4.619   3.099 -30.655  1.00  0.00    -0.264 OA
HETATM    4  H   UNL     1      -2.544   2.883 -33.042  1.00  0.00     0.169 HD
ENDROOT
BRANCH   1   5
HETATM    5  C   UNL     1      -2.740   4.791 -32.205  1.00  0.00     0.051 A 
HETATM    6  C   UNL     1      -3.313   5.685 -33.131  1.00  0.00     0.061 A 
HETATM    7  C   UNL     1      -2.987   7.050 -33.100  1.00  0.00     0.056 A 
HETATM    8  C   UNL     1      -2.109   7.553 -32.141  1.00  0.00     0.069 A 
HETATM    9  C   UNL     1      -1.548   6.679 -31.216  1.00  0.00     0.039 A 
HETATM   10  C   UNL     1      -1.863   5.312 -31.248  1.00  0.00     0.033 A 
BRANCH   6  11
HETATM   11  C   UNL     1      -4.313   5.271 -34.149  1.00  0.00     0.251 C 
HETATM   12  N   UNL     1      -5.572   4.988 -33.694  1.00  0.00    -0.366 N 
HETATM   13  H   UNL     1      -5.878   5.317 -32.787  1.00  0.00     0.159 HD
HETATM   14  H   UNL     1      -6.283   4.883 -34.409  1.00  0.00     0.159 HD
HETATM   15  O   UNL     1      -4.049   5.234 -35.343  1.00  0.00    -0.268 OA
ENDBRANCH   6  11
BRANCH   8  16
HETATM   16  O   UNL     1      -1.891   8.900 -32.207  1.00  0.00    -0.351 OA
BRANCH  16  17
HETATM   17  C   UNL     1      -2.192   9.667 -31.041  1.00  0.00     0.171 C 
HETATM   18  C   UNL     1      -3.686   9.573 -30.787  1.00  0.00     0.034 C 
ENDBRANCH  16  17
ENDBRANCH   8  16
ENDBRANCH   1   5
BRANCH   2  19
HETATM   19  C   UNL     1      -3.795   1.202 -31.817  1.00  0.00     0.239 A 
HETATM   20  N   UNL     1      -4.761   0.563 -32.509  1.00  0.00    -0.140 NA
HETATM   21  N   UNL     1      -4.254  -0.692 -32.636  1.00  0.00    -0.225 N 
HETATM   22  C   UNL     1      -3.080  -0.779 -31.933  1.00  0.00     0.237 A 
HETATM   23  N   UNL     1      -2.760   0.385 -31.425  1.00  0.00    -0.216 NA
BRANCH  21  24
HETATM   24  C   UNL     1      -4.892  -1.690 -33.418  1.00  0.00     0.059 A 
HETATM   25  C   UNL     1      -6.203  -1.481 -33.871  1.00  0.00     0.031 A 
HETATM   26  C   UNL     1      -6.828  -2.436 -34.675  1.00  0.00     0.002 A 
HETATM   27  C   UNL     1      -6.155  -3.605 -35.025  1.00  0.00     0.000 A 
HETATM   28  C   UNL     1      -4.856  -3.824 -34.571  1.00  0.00     0.002 A 
HETATM   29  C   UNL     1      -4.220  -2.871 -33.771  1.00  0.00     0.031 A 
ENDBRANCH  21  24
ENDBRANCH   2  19
TORSDOF 6
ENDMDL
MODEL 4
REMARK VINA RESULT:      -7.9      1.794      2.093
REMARK  6 active torsions:
REMARK  status: ('A' for Active; 'I' for Inactive)
REMARK    1  A    between atoms: C_2  and  O_3 
REMARK    2  A    between atoms: O_3  and  C_4 
REMARK    3  A    between atoms: C_6  and  C_7 
REMARK       I    between atoms: C_7  and  N_8 
REMARK    4  A    between atoms: C_10  and  N_11 
REMARK       I    between atoms: N_11  and  C_12 
REMARK    5  A    between atoms: C_12  and  C_13 
REMARK    6  A    between atoms: N_15  and  C_16 
ROOT
HETATM    1  N   UNL     1      -4.492   3.757 -32.577  1.00  0.00    -0.319 N 
HETATM    2  C   UNL     1      -4.036   2.472 -32.319  1.00  0.00     0.295 C 
HETATM    3  O   UNL     1      -3.070   2.194 -31.614  1.00  0.00    -0.264 OA
HETATM    4  H   UNL     1      -5.389   3.799 -33.062  1.00  0.00     0.169 HD
ENDROOT
BRANCH   1   5
HETATM    5  C   UNL     1      -3.888   4.981 -32.210  1.00  0.00     0.051 A 
HETATM    6  C   UNL     1      -3.135   5.715 -33.148  1.00  0.00     0.061 A 
HETATM    7  C   UNL     1      -2.461   6.886 -32.765  1.00  0.00     0.056 A 
HETATM    8  C   UNL     1      -2.541   7.358 -31.455  1.00  0.00     0.069 A 
HETATM    9  C   UNL     1      -3.292   6.646 -30.526  1.00  0.00     0.039 A 
HETATM   10  C   UNL     1      -3.959   5.471 -30.901  1.00  0.00     0.033 A 
BRANCH   6  11
HETATM   11  C   UNL     1      -3.039   5.343 -34.583  1.00  0.00     0.251 C 
HETATM   12  N   UNL     1      -1.801   4.987 -35.045  1.00  0.00    -0.366 N 
HETATM   13  H   UNL     1      -1.069   4.714 -34.400  1.00  0.00     0.159 HD
HETATM   14  H   UNL     1      -1.780   4.567 -35.967  1.00  0.00     0.159 HD
HETATM   15  O   UNL     1      -4.021   5.300 -35.311  1.00  0.00    -0.268 OA
ENDBRANCH   6  11
BRANCH   8  16
HETATM   16  O   UNL     1      -1.857   8.517 -31.217  1.00  0.00    -0.351 OA
BRANCH  16  17
HETATM   17  C   UNL     1      -2.091   9.165 -29.967  1.00  0.00     0.171 C 
HETATM   18  C   UNL     1      -2.765  10.497 -30.245  1.00  0.00     0.034 C 
ENDBRANCH  16  17
ENDBRANCH   8  16
ENDBRANCH   1   5
BRANCH   2  19
HETATM   19  C   UNL     1      -4.877   1.429 -32.949  1.00  0.00     0.239 A 
HETATM   20  N   UNL     1      -4.415   0.196 -33.242  1.00  0.00    -0.140 NA
HETATM   21  N   UNL     1      -5.527  -0.434 -33.708  1.00  0.00    -0.225 N 
HETATM   22  C   UNL     1      -6.560   0.465 -33.777  1.00  0.00     0.237 A 
HETATM   23  N   UNL     1      -6.193   1.627 -33.298  1.00  0.00    -0.216 NA
BRANCH  21  24
HETATM   24  C   UNL     1      -5.537  -1.817 -34.025  1.00  0.00     0.059 A 
HETATM   25  C   UNL     1      -6.717  -2.409 -34.498  1.00  0.00     0.031 A 
HETATM   26  C   UNL     1      -6.732  -3.760 -34.852  1.00  0.00     0.002 A 
HETATM   27  C   UNL     1      -5.575  -4.528 -34.730  1.00  0.00     0.000 A 
HETATM   28  C   UNL     1      -4.401  -3.949 -34.252  1.00  0.00     0.002 A 
HETATM   29  C   UNL     1      -4.376  -2.596 -33.902  1.00  0.00     0.031 A 
ENDBRANCH  21  24
ENDBRANCH   2  19
TORSDOF 6
ENDMDL
MODEL 5
REMARK VINA RESULT:      -7.8      2.507      8.684
REMARK  6 active torsions:
REMARK  status: ('A' for Active; 'I' for Inactive)
REMARK    1  A    between atoms: C_2  and  O_3 
REMARK    2  A    between atoms: O_3  and  C_4 
REMARK    3  A    between atoms: C_6  and  C_7 
REMARK       I    between atoms: C_7  and  N_8 
REMARK    4  A    between atoms: C_10  and  N_11 
REMARK       I    between atoms: N_11  and  C_12 
REMARK    5  A    between atoms: C_12  and  C_13 
REMARK    6  A    between atoms: N_15  and  C_16 
ROOT
HETATM    1  N   UNL     1      -5.137   2.343 -32.594  1.00  0.00    -0.319 N 
HETATM    2  C   UNL     1      -5.848   3.278 -31.855  1.00  0.00     0.295 C 
HETATM    3  O   UNL     1      -7.004   3.140 -31.466  1.00  0.00    -0.264 OA
HETATM    4  H   UNL     1      -4.145   2.556 -32.707  1.00  0.00     0.169 HD
ENDROOT
BRANCH   1   5
HETATM    5  C   UNL     1      -5.615   1.136 -33.153  1.00  0.00     0.051 A 
HETATM    6  C   UNL     1      -5.203  -0.105 -32.629  1.00  0.00     0.061 A 
HETATM    7  C   UNL     1      -5.606  -1.306 -33.236  1.00  0.00     0.056 A 
HETATM    8  C   UNL     1      -6.439  -1.296 -34.354  1.00  0.00     0.069 A 
HETATM    9  C   UNL     1      -6.859  -0.074 -34.871  1.00  0.00     0.039 A 
HETATM   10  C   UNL     1      -6.452   1.128 -34.275  1.00  0.00     0.033 A 
BRANCH   6  11
HETATM   11  C   UNL     1      -4.375  -0.236 -31.403  1.00  0.00     0.251 C 
HETATM   12  N   UNL     1      -3.265  -1.032 -31.492  1.00  0.00    -0.366 N 
HETATM   13  H   UNL     1      -2.877  -1.275 -32.395  1.00  0.00     0.159 HD
HETATM   14  H   UNL     1      -2.618  -0.971 -30.714  1.00  0.00     0.159 HD
HETATM   15  O   UNL     1      -4.632   0.377 -30.376  1.00  0.00    -0.268 OA
ENDBRANCH   6  11
BRANCH   8  16
HETATM   16  O   UNL     1      -6.773  -2.530 -34.837  1.00  0.00    -0.351 OA
BRANCH  16  17
HETATM   17  C   UNL     1      -5.717  -3.477 -34.989  1.00  0.00     0.171 C 
HETATM   18  C   UNL     1      -6.324  -4.795 -35.436  1.00  0.00     0.034 C 
ENDBRANCH  16  17
ENDBRANCH   8  16
ENDBRANCH   1   5
BRANCH   2  19
HETATM   19  C   UNL     1      -5.043   4.475 -31.521  1.00  0.00     0.239 A 
HETATM   20  N   UNL     1      -3.744   4.407 -31.161  1.00  0.00    -0.140 NA
HETATM   21  N   UNL     1      -3.400   5.717 -31.043  1.00  0.00    -0.225 N 
HETATM   22  C   UNL     1      -4.514   6.496 -31.227  1.00  0.00     0.237 A 
HETATM   23  N   UNL     1      -5.547   5.755 -31.541  1.00  0.00    -0.216 NA
BRANCH  21  24
HETATM   24  C   UNL     1      -2.065   6.130 -30.796  1.00  0.00     0.059 A 
HETATM   25  C   UNL     1      -1.820   7.159 -29.875  1.00  0.00     0.031 A 
HETATM   26  C   UNL     1      -0.508   7.549 -29.591  1.00  0.00     0.002 A 
HETATM   27  C   UNL     1       0.561   6.921 -30.227  1.00  0.00     0.000 A 
HETATM   28  C   UNL     1       0.324   5.904 -31.150  1.00  0.00     0.002 A 
HETATM   29  C   UNL     1      -0.984   5.504 -31.435  1.00  0.00     0.031 A 
ENDBRANCH  21  24
ENDBRANCH   2  19
TORSDOF 6
ENDMDL
MODEL 6
REMARK VINA RESULT:      -7.8      2.808      9.303
REMARK  6 active torsions:
REMARK  status: ('A' for Active; 'I' for Inactive)
REMARK    1  A    between atoms: C_2  and  O_3 
REMARK    2  A    between atoms: O_3  and  C_4 
REMARK    3  A    between atoms: C_6  and  C_7 
REMARK       I    between atoms: C_7  and  N_8 
REMARK    4  A    between atoms: C_10  and  N_11 
REMARK       I    between atoms: N_11  and  C_12 
REMARK    5  A    between atoms: C_12  and  C_13 
REMARK    6  A    between atoms: N_15  and  C_16 
ROOT
HETATM    1  N   UNL     1      -4.003   2.059 -32.348  1.00  0.00    -0.319 N 
HETATM    2  C   UNL     1      -4.429   3.071 -31.499  1.00  0.00     0.295 C 
HETATM    3  O   UNL     1      -5.492   3.078 -30.886  1.00  0.00    -0.264 OA
HETATM    4  H   UNL     1      -3.035   2.146 -32.659  1.00  0.00     0.169 HD
ENDROOT
BRANCH   1   5
HETATM    5  C   UNL     1      -4.730   0.926 -32.779  1.00  0.00     0.051 A 
HETATM    6  C   UNL     1      -4.258  -0.372 -32.503  1.00  0.00     0.061 A 
HETATM    7  C   UNL     1      -4.931  -1.498 -33.004  1.00  0.00     0.056 A 
HETATM    8  C   UNL     1      -6.091  -1.356 -33.765  1.00  0.00     0.069 A 
HETATM    9  C   UNL     1      -6.570  -0.078 -34.033  1.00  0.00     0.039 A 
HETATM   10  C   UNL     1      -5.896   1.051 -33.543  1.00  0.00     0.033 A 
BRANCH   6  11
HETATM   11  C   UNL     1      -3.075  -0.642 -31.646  1.00  0.00     0.251 C 
HETATM   12  N   UNL     1      -2.568  -1.913 -31.681  1.00  0.00    -0.366 N 
HETATM   13  H   UNL     1      -2.793  -2.536 -32.446  1.00  0.00     0.159 HD
HETATM   14  H   UNL     1      -1.665  -2.036 -31.237  1.00  0.00     0.159 HD
HETATM   15  O   UNL     1      -2.541   0.234 -30.980  1.00  0.00    -0.268 OA
ENDBRANCH   6  11
BRANCH   8  16
HETATM   16  O   UNL     1      -6.659  -2.529 -34.176  1.00  0.00    -0.351 OA
BRANCH  16  17
HETATM   17  C   UNL     1      -5.794  -3.503 -34.758  1.00  0.00     0.171 C 
HETATM   18  C   UNL     1      -6.654  -4.572 -35.407  1.00  0.00     0.034 C 
ENDBRANCH  16  17
ENDBRANCH   8  16
ENDBRANCH   1   5
BRANCH   2  19
HETATM   19  C   UNL     1      -3.430   4.155 -31.354  1.00  0.00     0.239 A 
HETATM   20  N   UNL     1      -3.757   5.403 -30.959  1.00  0.00    -0.140 NA
HETATM   21  N   UNL     1      -2.545   6.015 -30.881  1.00  0.00    -0.225 N 
HETATM   22  C   UNL     1      -1.574   5.158 -31.330  1.00  0.00     0.237 A 
HETATM   23  N   UNL     1      -2.090   3.988 -31.617  1.00  0.00    -0.216 NA
BRANCH  21  24
HETATM   24  C   UNL     1      -2.394   7.333 -30.374  1.00  0.00     0.059 A 
HETATM   25  C   UNL     1      -2.456   8.423 -31.254  1.00  0.00     0.031 A 
HETATM   26  C   UNL     1      -2.350   9.727 -30.764  1.00  0.00     0.002 A 
HETATM   27  C   UNL     1      -2.174   9.949 -29.400  1.00  0.00     0.000 A 
HETATM   28  C   UNL     1      -2.103   8.870 -28.520  1.00  0.00     0.002 A 
HETATM   29  C   UNL     1      -2.215   7.563 -29.001  1.00  0.00     0.031 A 
ENDBRANCH  21  24
ENDBRANCH   2  19
TORSDOF 6
ENDMDL
MODEL 7
REMARK VINA RESULT:      -7.7      2.814      9.414
REMARK  6 active torsions:
REMARK  status: ('A' for Active; 'I' for Inactive)
REMARK    1  A    between atoms: C_2  and  O_3 
REMARK    2  A    between atoms: O_3  and  C_4 
REMARK    3  A    between atoms: C_6  and  C_7 
REMARK       I    between atoms: C_7  and  N_8 
REMARK    4  A    between atoms: C_10  and  N_11 
REMARK       I    between atoms: N_11  and  C_12 
REMARK    5  A    between atoms: C_12  and  C_13 
REMARK    6  A    between atoms: N_15  and  C_16 
ROOT
HETATM    1  N   UNL     1      -2.907   3.230 -31.203  1.00  0.00    -0.319 N 
HETATM    2  C   UNL     1      -2.383   4.282 -31.941  1.00  0.00     0.295 C 
HETATM    3  O   UNL     1      -2.748   4.607 -33.066  1.00  0.00    -0.264 OA
HETATM    4  H   UNL     1      -2.589   3.190 -30.234  1.00  0.00     0.169 HD
ENDROOT
BRANCH   1   5
HETATM    5  C   UNL     1      -3.845   2.259 -31.624  1.00  0.00     0.051 A 
HETATM    6  C   UNL     1      -5.208   2.394 -31.293  1.00  0.00     0.061 A 
HETATM    7  C   UNL     1      -6.128   1.390 -31.634  1.00  0.00     0.056 A 
HETATM    8  C   UNL     1      -5.718   0.251 -32.325  1.00  0.00     0.069 A 
HETATM    9  C   UNL     1      -4.376   0.115 -32.666  1.00  0.00     0.039 A 
HETATM   10  C   UNL     1      -3.451   1.111 -32.320  1.00  0.00     0.033 A 
BRANCH   6  11
HETATM   11  C   UNL     1      -5.766   3.595 -30.620  1.00  0.00     0.251 C 
HETATM   12  N   UNL     1      -6.238   3.424 -29.347  1.00  0.00    -0.366 N 
HETATM   13  H   UNL     1      -5.961   2.618 -28.799  1.00  0.00     0.159 HD
HETATM   14  H   UNL     1      -6.448   4.275 -28.838  1.00  0.00     0.159 HD
HETATM   15  O   UNL     1      -5.760   4.698 -31.148  1.00  0.00    -0.268 OA
ENDBRANCH   6  11
BRANCH   8  16
HETATM   16  O   UNL     1      -6.713  -0.640 -32.613  1.00  0.00    -0.351 OA
BRANCH  16  17
HETATM   17  C   UNL     1      -6.637  -1.318 -33.867  1.00  0.00     0.171 C 
HETATM   18  C   UNL     1      -7.249  -0.420 -34.927  1.00  0.00     0.034 C 
ENDBRANCH  16  17
ENDBRANCH   8  16
ENDBRANCH   1   5
BRANCH   2  19
HETATM   19  C   UNL     1      -1.341   5.034 -31.203  1.00  0.00     0.239 A 
HETATM   20  N   UNL     1      -1.601   6.175 -30.532  1.00  0.00    -0.140 NA
HETATM   21  N   UNL     1      -0.405   6.455 -29.950  1.00  0.00    -0.225 N 
HETATM   22  C   UNL     1       0.531   5.548 -30.379  1.00  0.00     0.237 A 
HETATM   23  N   UNL     1      -0.024   4.643 -31.147  1.00  0.00    -0.216 NA
BRANCH  21  24
HETATM   24  C   UNL     1      -0.242   7.523 -29.029  1.00  0.00     0.059 A 
HETATM   25  C   UNL     1       0.981   7.676 -28.359  1.00  0.00     0.031 A 
HETATM   26  C   UNL     1       1.170   8.746 -27.480  1.00  0.00     0.002 A 
HETATM   27  C   UNL     1       0.141   9.660 -27.260  1.00  0.00     0.000 A 
HETATM   28  C   UNL     1      -1.080   9.508 -27.916  1.00  0.00     0.002 A 
HETATM   29  C   UNL     1      -1.274   8.445 -28.801  1.00  0.00     0.031 A 
ENDBRANCH  21  24
ENDBRANCH   2  19
TORSDOF 6
ENDMDL
MODEL 8
REMARK VINA RESULT:      -7.5      2.206      3.235
REMARK  6 active torsions:
REMARK  status: ('A' for Active; 'I' for Inactive)
REMARK    1  A    between atoms: C_2  and  O_3 
REMARK    2  A    between atoms: O_3  and  C_4 
REMARK    3  A    between atoms: C_6  and  C_7 
REMARK       I    between atoms: C_7  and  N_8 
REMARK    4  A    between atoms: C_10  and  N_11 
REMARK       I    between atoms: N_11  and  C_12 
REMARK    5  A    between atoms: C_12  and  C_13 
REMARK    6  A    between atoms: N_15  and  C_16 
ROOT
HETATM    1  N   UNL     1      -5.453   2.509 -32.581  1.00  0.00    -0.319 N 
HETATM    2  C   UNL     1      -6.496   2.462 -33.495  1.00  0.00     0.295 C 
HETATM    3  O   UNL     1      -7.215   3.409 -33.797  1.00  0.00    -0.264 OA
HETATM    4  H   UNL     1      -4.869   1.672 -32.559  1.00  0.00     0.169 HD
ENDROOT
BRANCH   1   5
HETATM    5  C   UNL     1      -5.091   3.582 -31.734  1.00  0.00     0.051 A 
HETATM    6  C   UNL     1      -5.772   3.791 -30.518  1.00  0.00     0.061 A 
HETATM    7  C   UNL     1      -5.475   4.906 -29.717  1.00  0.00     0.056 A 
HETATM    8  C   UNL     1      -4.488   5.814 -30.095  1.00  0.00     0.069 A 
HETATM    9  C   UNL     1      -3.803   5.609 -31.289  1.00  0.00     0.039 A 
HETATM   10  C   UNL     1      -4.102   4.503 -32.098  1.00  0.00     0.033 A 
BRANCH   6  11
HETATM   11  C   UNL     1      -6.790   2.851 -29.985  1.00  0.00     0.251 C 
HETATM   12  N   UNL     1      -6.322   1.730 -29.355  1.00  0.00    -0.366 N 
HETATM   13  H   UNL     1      -5.367   1.688 -29.020  1.00  0.00     0.159 HD
HETATM   14  H   UNL     1      -7.013   1.193 -28.843  1.00  0.00     0.159 HD
HETATM   15  O   UNL     1      -7.989   3.085 -30.050  1.00  0.00    -0.268 OA
ENDBRANCH   6  11
BRANCH   8  16
HETATM   16  O   UNL     1      -4.283   6.843 -29.219  1.00  0.00    -0.351 OA
BRANCH  16  17
HETATM   17  C   UNL     1      -2.930   7.156 -28.888  1.00  0.00     0.171 C 
HETATM   18  C   UNL     1      -2.647   8.574 -29.349  1.00  0.00     0.034 C 
ENDBRANCH  16  17
ENDBRANCH   8  16
ENDBRANCH   1   5
BRANCH   2  19
HETATM   19  C   UNL     1      -6.637   1.132 -34.132  1.00  0.00     0.239 A 
HETATM   20  N   UNL     1      -5.814   0.099 -33.859  1.00  0.00    -0.140 NA
HETATM   21  N   UNL     1      -6.361  -0.915 -34.582  1.00  0.00    -0.225 N 
HETATM   22  C   UNL     1      -7.402  -0.427 -35.329  1.00  0.00     0.237 A 
HETATM   23  N   UNL     1      -7.609   0.839 -35.060  1.00  0.00    -0.216 NA
BRANCH  21  24
HETATM   24  C   UNL     1      -5.884  -2.249 -34.497  1.00  0.00     0.059 A 
HETATM   25  C   UNL     1      -6.742  -3.311 -34.818  1.00  0.00     0.031 A 
HETATM   26  C   UNL     1      -6.276  -4.627 -34.778  1.00  0.00     0.002 A 
HETATM   27  C   UNL     1      -4.957  -4.890 -34.411  1.00  0.00     0.000 A 
HETATM   28  C   UNL     1      -4.101  -3.841 -34.082  1.00  0.00     0.002 A 
HETATM   29  C   UNL     1      -4.559  -2.521 -34.126  1.00  0.00     0.031 A 
ENDBRANCH  21  24
ENDBRANCH   2  19
TORSDOF 6
ENDMDL
MODEL 9
REMARK VINA RESULT:      -7.4      2.463      3.078
REMARK  6 active torsions:
REMARK  status: ('A' for Active; 'I' for Inactive)
REMARK    1  A    between atoms: C_2  and  O_3 
REMARK    2  A    between atoms: O_3  and  C_4 
REMARK    3  A    between atoms: C_6  and  C_7 
REMARK       I    between atoms: C_7  and  N_8 
REMARK    4  A    between atoms: C_10  and  N_11 
REMARK       I    between atoms: N_11  and  C_12 
REMARK    5  A    between atoms: C_12  and  C_13 
REMARK    6  A    between atoms: N_15  and  C_16 
ROOT
HETATM    1  N   UNL     1      -3.238   4.738 -31.664  1.00  0.00    -0.319 N 
HETATM    2  C   UNL     1      -4.417   4.090 -32.001  1.00  0.00     0.295 C 
HETATM    3  O   UNL     1      -5.488   4.645 -32.228  1.00  0.00    -0.264 OA
HETATM    4  H   UNL     1      -2.412   4.138 -31.652  1.00  0.00     0.169 HD
ENDROOT
BRANCH   1   5
HETATM    5  C   UNL     1      -3.052   6.113 -31.388  1.00  0.00     0.051 A 
HETATM    6  C   UNL     1      -2.553   6.978 -32.381  1.00  0.00     0.061 A 
HETATM    7  C   UNL     1      -2.286   8.325 -32.086  1.00  0.00     0.056 A 
HETATM    8  C   UNL     1      -2.529   8.838 -30.812  1.00  0.00     0.069 A 
HETATM    9  C   UNL     1      -3.032   7.992 -29.829  1.00  0.00     0.039 A 
HETATM   10  C   UNL     1      -3.292   6.644 -30.116  1.00  0.00     0.033 A 
BRANCH   6  11
HETATM   11  C   UNL     1      -2.325   6.557 -33.787  1.00  0.00     0.251 C 
HETATM   12  N   UNL     1      -1.026   6.535 -34.219  1.00  0.00    -0.366 N 
HETATM   13  H   UNL     1      -0.262   6.521 -33.554  1.00  0.00     0.159 HD
HETATM   14  H   UNL     1      -0.868   6.080 -35.111  1.00  0.00     0.159 HD
HETATM   15  O   UNL     1      -3.239   6.193 -34.514  1.00  0.00    -0.268 OA
ENDBRANCH   6  11
BRANCH   8  16
HETATM   16  O   UNL     1      -2.245  10.166 -30.660  1.00  0.00    -0.351 OA
BRANCH  16  17
HETATM   17  C   UNL     1      -2.984  10.881 -29.670  1.00  0.00     0.171 C 
HETATM   18  C   UNL     1      -2.007  11.387 -28.625  1.00  0.00     0.034 C 
ENDBRANCH  16  17
ENDBRANCH   8  16
ENDBRANCH   1   5
BRANCH   2  19
HETATM   19  C   UNL     1      -4.251   2.623 -32.115  1.00  0.00     0.239 A 
HETATM   20  N   UNL     1      -5.102   1.843 -32.813  1.00  0.00    -0.140 NA
HETATM   21  N   UNL     1      -4.523   0.616 -32.721  1.00  0.00    -0.225 N 
HETATM   22  C   UNL     1      -3.431   0.692 -31.895  1.00  0.00     0.237 A 
HETATM   23  N   UNL     1      -3.227   1.929 -31.515  1.00  0.00    -0.216 NA
BRANCH  21  24
HETATM   24  C   UNL     1      -5.020  -0.511 -33.427  1.00  0.00     0.059 A 
HETATM   25  C   UNL     1      -4.204  -1.640 -33.586  1.00  0.00     0.031 A 
HETATM   26  C   UNL     1      -4.693  -2.772 -34.243  1.00  0.00     0.002 A 
HETATM   27  C   UNL     1      -5.991  -2.780 -34.750  1.00  0.00     0.000 A 
HETATM   28  C   UNL     1      -6.804  -1.658 -34.603  1.00  0.00     0.002 A 
HETATM   29  C   UNL     1      -6.325  -0.524 -33.942  1.00  0.00     0.031 A 
ENDBRANCH  21  24
ENDBRANCH   2  19
TORSDOF 6
ENDMDL
MODEL 10
REMARK VINA RESULT:      -7.3      2.571      9.164
REMARK  6 active torsions:
REMARK  status: ('A' for Active; 'I' for Inactive)
REMARK    1  A    between atoms: C_2  and  O_3 
REMARK    2  A    between atoms: O_3  and  C_4 
REMARK    3  A    between atoms: C_6  and  C_7 
REMARK       I    between atoms: C_7  and  N_8 
REMARK    4  A    between atoms: C_10  and  N_11 
REMARK       I    between atoms: N_11  and  C_12 
REMARK    5  A    between atoms: C_12  and  C_13 
REMARK    6  A    between atoms: N_15  and  C_16 
ROOT
HETATM    1  N   UNL     1      -3.829   4.134 -32.169  1.00  0.00    -0.319 N 
HETATM    2  C   UNL     1      -2.675   4.686 -32.709  1.00  0.00     0.295 C 
HETATM    3  O   UNL     1      -2.027   4.205 -33.633  1.00  0.00    -0.264 OA
HETATM    4  H   UNL     1      -4.318   4.737 -31.507  1.00  0.00     0.169 HD
ENDROOT
BRANCH   1   5
HETATM    5  C   UNL     1      -4.409   2.879 -32.466  1.00  0.00     0.051 A 
HETATM    6  C   UNL     1      -5.564   2.800 -33.269  1.00  0.00     0.061 A 
HETATM    7  C   UNL     1      -6.193   1.564 -33.494  1.00  0.00     0.056 A 
HETATM    8  C   UNL     1      -5.677   0.391 -32.946  1.00  0.00     0.069 A 
HETATM    9  C   UNL     1      -4.531   0.459 -32.160  1.00  0.00     0.039 A 
HETATM   10  C   UNL     1      -3.904   1.692 -31.925  1.00  0.00     0.033 A 
BRANCH   6  11
HETATM   11  C   UNL     1      -6.157   3.974 -33.959  1.00  0.00     0.251 C 
HETATM   12  N   UNL     1      -7.481   4.224 -33.718  1.00  0.00    -0.366 N 
HETATM   13  H   UNL     1      -7.943   3.822 -32.911  1.00  0.00     0.159 HD
HETATM   14  H   UNL     1      -7.825   5.119 -34.047  1.00  0.00     0.159 HD
HETATM   15  O   UNL     1      -5.491   4.718 -34.665  1.00  0.00    -0.268 OA
ENDBRANCH   6  11
BRANCH   8  16
HETATM   16  O   UNL     1      -6.371  -0.745 -33.256  1.00  0.00    -0.351 OA
BRANCH  16  17
HETATM   17  C   UNL     1      -6.428  -1.118 -34.632  1.00  0.00     0.171 C 
HETATM   18  C   UNL     1      -5.660  -2.417 -34.802  1.00  0.00     0.034 C 
ENDBRANCH  16  17
ENDBRANCH   8  16
ENDBRANCH   1   5
BRANCH   2  19
HETATM   19  C   UNL     1      -2.312   5.977 -32.081  1.00  0.00     0.239 A 
HETATM   20  N   UNL     1      -1.765   6.064 -30.851  1.00  0.00    -0.140 NA
HETATM   21  N   UNL     1      -1.521   7.397 -30.729  1.00  0.00    -0.225 N 
HETATM   22  C   UNL     1      -2.023   8.051 -31.824  1.00  0.00     0.237 A 
HETATM   23  N   UNL     1      -2.507   7.195 -32.690  1.00  0.00    -0.216 NA
BRANCH  21  24
HETATM   24  C   UNL     1      -0.822   7.940 -29.620  1.00  0.00     0.059 A 
HETATM   25  C   UNL     1      -1.414   8.961 -28.863  1.00  0.00     0.031 A 
HETATM   26  C   UNL     1      -0.756   9.477 -27.744  1.00  0.00     0.002 A 
HETATM   27  C   UNL     1       0.496   8.985 -27.380  1.00  0.00     0.000 A 
HETATM   28  C   UNL     1       1.095   7.977 -28.133  1.00  0.00     0.002 A 
HETATM   29  C   UNL     1       0.440   7.451 -29.250  1.00  0.00     0.031 A 
ENDBRANCH  21  24
ENDBRANCH   2  19
TORSDOF 6
ENDMDL
