MODEL 1
REMARK VINA RESULT:      -9.2      0.000      0.000
REMARK  3 active torsions:
REMARK  status: ('A' for Active; 'I' for Inactive)
REMARK    1  A    between atoms: C_9  and  C_10 
REMARK       I    between atoms: C_10  and  N_11 
REMARK    2  A    between atoms: N_11  and  C_12 
REMARK    3  A    between atoms: C_14  and  C_15 
ROOT
HETATM    1  C   UNL     1      -6.293   2.128 -33.430  1.00  0.00     0.252 C 
HETATM    2  N   UNL     1      -5.809   1.319 -32.417  1.00  0.00    -0.325 N 
HETATM    3  O   UNL     1      -6.544   1.778 -34.581  1.00  0.00    -0.270 OA
HETATM    4  H   UNL     1      -5.822   1.736 -31.492  1.00  0.00     0.169 HD
ENDROOT
BRANCH   2   5
HETATM    5  C   UNL     1      -5.174   0.071 -32.535  1.00  0.00     0.035 A 
HETATM    6  C   UNL     1      -5.712  -1.009 -33.238  1.00  0.00     0.042 A 
HETATM    7  C   UNL     1      -4.980  -2.197 -33.408  1.00  0.00    -0.021 A 
HETATM    8  C   UNL     1      -3.699  -2.291 -32.845  1.00  0.00     0.012 A 
HETATM    9  C   UNL     1      -3.161  -1.221 -32.130  1.00  0.00     0.003 A 
HETATM   10  C   UNL     1      -3.895  -0.045 -31.979  1.00  0.00     0.029 A 
BRANCH   7  11
HETATM   11  C   UNL     1      -5.516  -3.302 -34.183  1.00  0.00     0.010 A 
HETATM   12  C   UNL     1      -4.937  -4.537 -34.561  1.00  0.00     0.152 A 
HETATM   13  N   UNL     1      -5.762  -5.299 -35.285  1.00  0.00    -0.187 NA
HETATM   14  N   UNL     1      -6.874  -4.551 -35.378  1.00  0.00    -0.289 N 
HETATM   15  H   UNL     1      -7.663  -4.924 -35.897  1.00  0.00     0.188 HD
HETATM   16  C   UNL     1      -6.779  -3.352 -34.736  1.00  0.00     0.123 A 
ENDBRANCH   7  11
ENDBRANCH   2   5
BRANCH   1  17
HETATM   17  C   UNL     1      -6.415   3.613 -33.010  1.00  0.00     0.225 C 
HETATM   18  C   UNL     1      -6.008   4.500 -34.196  1.00  0.00     0.083 C 
HETATM   19  C   UNL     1      -4.592   4.732 -33.819  1.00  0.00    -0.021 A 
HETATM   20  C   UNL     1      -4.433   4.460 -32.473  1.00  0.00     0.076 A 
HETATM   21  C   UNL     1      -3.521   5.139 -34.590  1.00  0.00     0.017 A 
HETATM   22  C   UNL     1      -3.220   4.597 -31.833  1.00  0.00     0.044 A 
HETATM   23  O   UNL     1      -5.567   3.952 -31.882  1.00  0.00    -0.336 OA
HETATM   24  C   UNL     1      -2.107   4.991 -32.594  1.00  0.00    -0.053 A 
HETATM   25  C   UNL     1      -2.257   5.252 -33.984  1.00  0.00    -0.055 A 
HETATM   26  C   UNL     1      -0.764   5.086 -31.923  1.00  0.00     0.049 C 
HETATM   27  C   UNL     1      -1.071   5.614 -34.839  1.00  0.00     0.049 C 
ENDBRANCH   1  17
TORSDOF 3
ENDMDL
MODEL 2
REMARK VINA RESULT:      -8.9      1.548      2.216
REMARK  3 active torsions:
REMARK  status: ('A' for Active; 'I' for Inactive)
REMARK    1  A    between atoms: C_9  and  C_10 
REMARK       I    between atoms: C_10  and  N_11 
REMARK    2  A    between atoms: N_11  and  C_12 
REMARK    3  A    between atoms: C_14  and  C_15 
ROOT
HETATM    1  C   UNL     1      -5.527   1.889 -31.836  1.00  0.00     0.252 C 
HETATM    2  N   UNL     1      -5.599   1.613 -33.189  1.00  0.00    -0.325 N 
HETATM    3  O   UNL     1      -5.435   1.063 -30.930  1.00  0.00    -0.270 OA
HETATM    4  H   UNL     1      -5.500   2.420 -33.797  1.00  0.00     0.169 HD
ENDROOT
BRANCH   2   5
HETATM    5  C   UNL     1      -5.936   0.397 -33.809  1.00  0.00     0.035 A 
HETATM    6  C   UNL     1      -5.183  -0.773 -33.682  1.00  0.00     0.042 A 
HETATM    7  C   UNL     1      -5.630  -1.983 -34.240  1.00  0.00    -0.021 A 
HETATM    8  C   UNL     1      -6.842  -1.999 -34.944  1.00  0.00     0.012 A 
HETATM    9  C   UNL     1      -7.592  -0.831 -35.086  1.00  0.00     0.003 A 
HETATM   10  C   UNL     1      -7.142   0.360 -34.518  1.00  0.00     0.029 A 
BRANCH   7  11
HETATM   11  C   UNL     1      -4.874  -3.212 -34.064  1.00  0.00     0.010 A 
HETATM   12  C   UNL     1      -3.679  -3.471 -33.352  1.00  0.00     0.152 A 
HETATM   13  N   UNL     1      -3.294  -4.748 -33.430  1.00  0.00    -0.187 NA
HETATM   14  N   UNL     1      -4.242  -5.313 -34.197  1.00  0.00    -0.289 N 
HETATM   15  H   UNL     1      -4.165  -6.302 -34.407  1.00  0.00     0.188 HD
HETATM   16  C   UNL     1      -5.208  -4.439 -34.600  1.00  0.00     0.123 A 
ENDBRANCH   7  11
ENDBRANCH   2   5
BRANCH   1  17
HETATM   17  C   UNL     1      -5.674   3.397 -31.519  1.00  0.00     0.225 C 
HETATM   18  C   UNL     1      -5.635   4.188 -32.835  1.00  0.00     0.083 C 
HETATM   19  C   UNL     1      -4.195   4.545 -32.832  1.00  0.00    -0.021 A 
HETATM   20  C   UNL     1      -3.700   4.417 -31.547  1.00  0.00     0.076 A 
HETATM   21  C   UNL     1      -3.375   4.943 -33.869  1.00  0.00     0.017 A 
HETATM   22  C   UNL     1      -2.387   4.693 -31.233  1.00  0.00     0.044 A 
HETATM   23  O   UNL     1      -4.615   3.898 -30.660  1.00  0.00    -0.336 OA
HETATM   24  C   UNL     1      -1.523   5.081 -32.270  1.00  0.00    -0.053 A 
HETATM   25  C   UNL     1      -2.017   5.194 -33.598  1.00  0.00    -0.055 A 
HETATM   26  C   UNL     1      -0.072   5.326 -31.954  1.00  0.00     0.049 C 
HETATM   27  C   UNL     1      -1.101   5.546 -34.741  1.00  0.00     0.049 C 
ENDBRANCH   1  17
TORSDOF 3
ENDMDL
MODEL 3
REMARK VINA RESULT:      -8.6      3.173      8.576
REMARK  3 active torsions:
REMARK  status: ('A' for Active; 'I' for Inactive)
REMARK    1  A    between atoms: C_9  and  C_10 
REMARK       I    between atoms: C_10  and  N_11 
REMARK    2  A    between atoms: N_11  and  C_12 
REMARK    3  A    between atoms: C_14  and  C_15 
ROOT
HETATM    1  C   UNL     1      -4.807   2.590 -32.083  1.00  0.00     0.252 C 
HETATM    2  N   UNL     1      -3.462   2.804 -31.842  1.00  0.00    -0.325 N 
HETATM    3  O   UNL     1      -5.514   3.222 -32.866  1.00  0.00    -0.270 OA
HETATM    4  H   UNL     1      -3.005   2.082 -31.294  1.00  0.00     0.169 HD
ENDROOT
BRANCH   2   5
HETATM    5  C   UNL     1      -2.702   3.951 -32.129  1.00  0.00     0.035 A 
HETATM    6  C   UNL     1      -2.223   4.828 -31.154  1.00  0.00     0.042 A 
HETATM    7  C   UNL     1      -1.380   5.898 -31.497  1.00  0.00    -0.021 A 
HETATM    8  C   UNL     1      -1.035   6.086 -32.842  1.00  0.00     0.012 A 
HETATM    9  C   UNL     1      -1.520   5.221 -33.823  1.00  0.00     0.003 A 
HETATM   10  C   UNL     1      -2.347   4.157 -33.467  1.00  0.00     0.029 A 
BRANCH   7  11
HETATM   11  C   UNL     1      -0.839   6.781 -30.477  1.00  0.00     0.010 A 
HETATM   12  C   UNL     1       0.439   6.823 -29.870  1.00  0.00     0.152 A 
HETATM   13  N   UNL     1       0.552   7.796 -28.961  1.00  0.00    -0.187 NA
HETATM   14  N   UNL     1      -0.657   8.381 -28.980  1.00  0.00    -0.289 N 
HETATM   15  H   UNL     1      -0.823   9.164 -28.357  1.00  0.00     0.188 HD
HETATM   16  C   UNL     1      -1.523   7.814 -29.869  1.00  0.00     0.123 A 
ENDBRANCH   7  11
ENDBRANCH   2   5
BRANCH   1  17
HETATM   17  C   UNL     1      -5.417   1.495 -31.175  1.00  0.00     0.225 C 
HETATM   18  C   UNL     1      -4.367   0.397 -30.946  1.00  0.00     0.083 C 
HETATM   19  C   UNL     1      -4.799  -0.544 -32.008  1.00  0.00    -0.021 A 
HETATM   20  C   UNL     1      -6.100  -0.249 -32.371  1.00  0.00     0.076 A 
HETATM   21  C   UNL     1      -4.110  -1.572 -32.621  1.00  0.00     0.017 A 
HETATM   22  C   UNL     1      -6.777  -0.965 -33.334  1.00  0.00     0.044 A 
HETATM   23  O   UNL     1      -6.597   0.876 -31.752  1.00  0.00    -0.336 OA
HETATM   24  C   UNL     1      -6.097  -2.006 -33.989  1.00  0.00    -0.053 A 
HETATM   25  C   UNL     1      -4.751  -2.302 -33.639  1.00  0.00    -0.055 A 
HETATM   26  C   UNL     1      -6.801  -2.758 -35.086  1.00  0.00     0.049 C 
HETATM   27  C   UNL     1      -3.975  -3.368 -34.367  1.00  0.00     0.049 C 
ENDBRANCH   1  17
TORSDOF 3
ENDMDL
MODEL 4
REMARK VINA RESULT:      -8.3      2.125      3.383
REMARK  3 active torsions:
REMARK  status: ('A' for Active; 'I' for Inactive)
REMARK    1  A    between atoms: C_9  and  C_10 
REMARK       I    between atoms: C_10  and  N_11 
REMARK    2  A    between atoms: N_11  and  C_12 
REMARK    3  A    between atoms: C_14  and  C_15 
ROOT
HETATM    1  C   UNL     1      -4.358   4.289 -32.661  1.00  0.00     0.252 C 
HETATM    2  N   UNL     1      -3.929   3.026 -32.300  1.00  0.00    -0.325 N 
HETATM    3  O   UNL     1      -5.492   4.742 -32.511  1.00  0.00    -0.270 OA
HETATM    4  H   UNL     1      -2.924   2.886 -32.343  1.00  0.00     0.169 HD
ENDROOT
BRANCH   2   5
HETATM    5  C   UNL     1      -4.710   1.889 -32.030  1.00  0.00     0.035 A 
HETATM    6  C   UNL     1      -4.913   0.853 -32.944  1.00  0.00     0.042 A 
HETATM    7  C   UNL     1      -5.618  -0.306 -32.577  1.00  0.00    -0.021 A 
HETATM    8  C   UNL     1      -6.133  -0.404 -31.277  1.00  0.00     0.012 A 
HETATM    9  C   UNL     1      -5.946   0.633 -30.364  1.00  0.00     0.003 A 
HETATM   10  C   UNL     1      -5.236   1.773 -30.738  1.00  0.00     0.029 A 
BRANCH   7  11
HETATM   11  C   UNL     1      -5.784  -1.408 -33.510  1.00  0.00     0.010 A 
HETATM   12  C   UNL     1      -4.830  -2.250 -34.131  1.00  0.00     0.152 A 
HETATM   13  N   UNL     1      -5.385  -3.159 -34.937  1.00  0.00    -0.187 NA
HETATM   14  N   UNL     1      -6.700  -2.900 -34.839  1.00  0.00    -0.289 N 
HETATM   15  H   UNL     1      -7.344  -3.471 -35.376  1.00  0.00     0.188 HD
HETATM   16  C   UNL     1      -6.991  -1.866 -33.999  1.00  0.00     0.123 A 
ENDBRANCH   7  11
ENDBRANCH   2   5
BRANCH   1  17
HETATM   17  C   UNL     1      -3.271   5.110 -33.396  1.00  0.00     0.225 C 
HETATM   18  C   UNL     1      -1.894   4.509 -33.077  1.00  0.00     0.083 C 
HETATM   19  C   UNL     1      -1.516   5.410 -31.961  1.00  0.00    -0.021 A 
HETATM   20  C   UNL     1      -2.290   6.553 -32.022  1.00  0.00     0.076 A 
HETATM   21  C   UNL     1      -0.577   5.243 -30.962  1.00  0.00     0.017 A 
HETATM   22  C   UNL     1      -2.156   7.583 -31.115  1.00  0.00     0.044 A 
HETATM   23  O   UNL     1      -3.255   6.507 -33.002  1.00  0.00    -0.336 OA
HETATM   24  C   UNL     1      -1.222   7.436 -30.076  1.00  0.00    -0.053 A 
HETATM   25  C   UNL     1      -0.438   6.253 -29.992  1.00  0.00    -0.055 A 
HETATM   26  C   UNL     1      -1.107   8.523 -29.042  1.00  0.00     0.049 C 
HETATM   27  C   UNL     1       0.525   6.038 -28.853  1.00  0.00     0.049 C 
ENDBRANCH   1  17
TORSDOF 3
ENDMDL
MODEL 5
REMARK VINA RESULT:      -8.3      3.127      4.681
REMARK  3 active torsions:
REMARK  status: ('A' for Active; 'I' for Inactive)
REMARK    1  A    between atoms: C_9  and  C_10 
REMARK       I    between atoms: C_10  and  N_11 
REMARK    2  A    between atoms: N_11  and  C_12 
REMARK    3  A    between atoms: C_14  and  C_15 
ROOT
HETATM    1  C   UNL     1      -2.252   4.450 -31.938  1.00  0.00     0.252 C 
HETATM    2  N   UNL     1      -3.363   3.802 -32.446  1.00  0.00    -0.325 N 
HETATM    3  O   UNL     1      -1.426   3.975 -31.161  1.00  0.00    -0.270 OA
HETATM    4  H   UNL     1      -3.836   4.289 -33.201  1.00  0.00     0.169 HD
ENDROOT
BRANCH   2   5
HETATM    5  C   UNL     1      -3.992   2.646 -31.952  1.00  0.00     0.035 A 
HETATM    6  C   UNL     1      -3.807   1.371 -32.494  1.00  0.00     0.042 A 
HETATM    7  C   UNL     1      -4.381   0.240 -31.890  1.00  0.00    -0.021 A 
HETATM    8  C   UNL     1      -5.161   0.409 -30.737  1.00  0.00     0.012 A 
HETATM    9  C   UNL     1      -5.362   1.680 -30.199  1.00  0.00     0.003 A 
HETATM   10  C   UNL     1      -4.777   2.792 -30.803  1.00  0.00     0.029 A 
BRANCH   7  11
HETATM   11  C   UNL     1      -4.146  -1.092 -32.421  1.00  0.00     0.010 A 
HETATM   12  C   UNL     1      -3.363  -2.162 -31.927  1.00  0.00     0.152 A 
HETATM   13  N   UNL     1      -3.402  -3.242 -32.713  1.00  0.00    -0.187 NA
HETATM   14  N   UNL     1      -4.209  -2.865 -33.719  1.00  0.00    -0.289 N 
HETATM   15  H   UNL     1      -4.395  -3.530 -34.462  1.00  0.00     0.188 HD
HETATM   16  C   UNL     1      -4.681  -1.592 -33.590  1.00  0.00     0.123 A 
ENDBRANCH   7  11
ENDBRANCH   2   5
BRANCH   1  17
HETATM   17  C   UNL     1      -2.170   5.935 -32.369  1.00  0.00     0.225 C 
HETATM   18  C   UNL     1      -0.701   6.383 -32.333  1.00  0.00     0.083 C 
HETATM   19  C   UNL     1      -0.693   6.996 -30.983  1.00  0.00    -0.021 A 
HETATM   20  C   UNL     1      -1.994   7.274 -30.605  1.00  0.00     0.076 A 
HETATM   21  C   UNL     1       0.363   7.283 -30.141  1.00  0.00     0.017 A 
HETATM   22  C   UNL     1      -2.301   7.860 -29.396  1.00  0.00     0.044 A 
HETATM   23  O   UNL     1      -2.931   6.817 -31.503  1.00  0.00    -0.336 OA
HETATM   24  C   UNL     1      -1.249   8.147 -28.510  1.00  0.00    -0.053 A 
HETATM   25  C   UNL     1       0.090   7.845 -28.881  1.00  0.00    -0.055 A 
HETATM   26  C   UNL     1      -1.572   8.730 -27.161  1.00  0.00     0.049 C 
HETATM   27  C   UNL     1       1.232   8.081 -27.927  1.00  0.00     0.049 C 
ENDBRANCH   1  17
TORSDOF 3
ENDMDL
MODEL 6
REMARK VINA RESULT:      -8.3      2.950      4.775
REMARK  3 active torsions:
REMARK  status: ('A' for Active; 'I' for Inactive)
REMARK    1  A    between atoms: C_9  and  C_10 
REMARK       I    between atoms: C_10  and  N_11 
REMARK    2  A    between atoms: N_11  and  C_12 
REMARK    3  A    between atoms: C_14  and  C_15 
ROOT
HETATM    1  C   UNL     1      -3.196   4.668 -31.828  1.00  0.00     0.252 C 
HETATM    2  N   UNL     1      -2.892   3.367 -32.185  1.00  0.00    -0.325 N 
HETATM    3  O   UNL     1      -4.129   5.026 -31.113  1.00  0.00    -0.270 OA
HETATM    4  H   UNL     1      -1.992   3.246 -32.638  1.00  0.00     0.169 HD
ENDROOT
BRANCH   2   5
HETATM    5  C   UNL     1      -3.726   2.237 -32.132  1.00  0.00     0.035 A 
HETATM    6  C   UNL     1      -4.897   2.102 -32.882  1.00  0.00     0.042 A 
HETATM    7  C   UNL     1      -5.631   0.904 -32.865  1.00  0.00    -0.021 A 
HETATM    8  C   UNL     1      -5.180  -0.157 -32.067  1.00  0.00     0.012 A 
HETATM    9  C   UNL     1      -4.020  -0.024 -31.305  1.00  0.00     0.003 A 
HETATM   10  C   UNL     1      -3.295   1.167 -31.340  1.00  0.00     0.029 A 
BRANCH   7  11
HETATM   11  C   UNL     1      -6.820   0.743 -33.685  1.00  0.00     0.010 A 
HETATM   12  C   UNL     1      -8.175   1.064 -33.427  1.00  0.00     0.152 A 
HETATM   13  N   UNL     1      -8.984   0.759 -34.446  1.00  0.00    -0.187 NA
HETATM   14  N   UNL     1      -8.150   0.238 -35.361  1.00  0.00    -0.289 N 
HETATM   15  H   UNL     1      -8.539  -0.079 -36.242  1.00  0.00     0.188 HD
HETATM   16  C   UNL     1      -6.848   0.208 -34.956  1.00  0.00     0.123 A 
ENDBRANCH   7  11
ENDBRANCH   2   5
BRANCH   1  17
HETATM   17  C   UNL     1      -2.277   5.711 -32.510  1.00  0.00     0.225 C 
HETATM   18  C   UNL     1      -0.819   5.417 -32.125  1.00  0.00     0.083 C 
HETATM   19  C   UNL     1      -0.697   6.366 -30.991  1.00  0.00    -0.021 A 
HETATM   20  C   UNL     1      -1.696   7.317 -31.089  1.00  0.00     0.076 A 
HETATM   21  C   UNL     1       0.207   6.395 -29.948  1.00  0.00     0.017 A 
HETATM   22  C   UNL     1      -1.830   8.342 -30.177  1.00  0.00     0.044 A 
HETATM   23  O   UNL     1      -2.581   7.075 -32.115  1.00  0.00    -0.336 OA
HETATM   24  C   UNL     1      -0.937   8.388 -29.094  1.00  0.00    -0.053 A 
HETATM   25  C   UNL     1       0.080   7.401 -28.972  1.00  0.00    -0.055 A 
HETATM   26  C   UNL     1      -1.107   9.464 -28.056  1.00  0.00     0.049 C 
HETATM   27  C   UNL     1       1.011   7.386 -27.788  1.00  0.00     0.049 C 
ENDBRANCH   1  17
TORSDOF 3
ENDMDL
MODEL 7
REMARK VINA RESULT:      -8.3      5.673      8.675
REMARK  3 active torsions:
REMARK  status: ('A' for Active; 'I' for Inactive)
REMARK    1  A    between atoms: C_9  and  C_10 
REMARK       I    between atoms: C_10  and  N_11 
REMARK    2  A    between atoms: N_11  and  C_12 
REMARK    3  A    between atoms: C_14  and  C_15 
ROOT
HETATM    1  C   UNL     1      -9.407   1.192 -33.412  1.00  0.00     0.252 C 
HETATM    2  N   UNL     1     -10.572   1.260 -34.154  1.00  0.00    -0.325 N 
HETATM    3  O   UNL     1      -9.317   0.860 -32.231  1.00  0.00    -0.270 OA
HETATM    4  H   UNL     1     -10.437   1.388 -35.153  1.00  0.00     0.169 HD
ENDROOT
BRANCH   2   5
HETATM    5  C   UNL     1     -11.895   1.324 -33.686  1.00  0.00     0.035 A 
HETATM    6  C   UNL     1     -12.437   2.439 -33.042  1.00  0.00     0.042 A 
HETATM    7  C   UNL     1     -13.797   2.481 -32.692  1.00  0.00    -0.021 A 
HETATM    8  C   UNL     1     -14.607   1.375 -32.985  1.00  0.00     0.012 A 
HETATM    9  C   UNL     1     -14.070   0.253 -33.615  1.00  0.00     0.003 A 
HETATM   10  C   UNL     1     -12.721   0.230 -33.966  1.00  0.00     0.029 A 
BRANCH   7  11
HETATM   11  C   UNL     1     -14.374   3.661 -32.070  1.00  0.00     0.010 A 
HETATM   12  C   UNL     1     -15.714   4.110 -31.998  1.00  0.00     0.152 A 
HETATM   13  N   UNL     1     -15.843   5.259 -31.329  1.00  0.00    -0.187 NA
HETATM   14  N   UNL     1     -14.582   5.554 -30.971  1.00  0.00    -0.289 N 
HETATM   15  H   UNL     1     -14.417   6.404 -30.443  1.00  0.00     0.188 HD
HETATM   16  C   UNL     1     -13.668   4.631 -31.388  1.00  0.00     0.123 A 
ENDBRANCH   7  11
ENDBRANCH   2   5
BRANCH   1  17
HETATM   17  C   UNL     1      -8.163   1.681 -34.192  1.00  0.00     0.225 C 
HETATM   18  C   UNL     1      -7.869   0.692 -35.330  1.00  0.00     0.083 C 
HETATM   19  C   UNL     1      -6.847  -0.134 -34.642  1.00  0.00    -0.021 A 
HETATM   20  C   UNL     1      -6.340   0.576 -33.570  1.00  0.00     0.076 A 
HETATM   21  C   UNL     1      -6.400  -1.411 -34.921  1.00  0.00     0.017 A 
HETATM   22  C   UNL     1      -5.361   0.065 -32.745  1.00  0.00     0.044 A 
HETATM   23  O   UNL     1      -6.977   1.777 -33.361  1.00  0.00    -0.336 OA
HETATM   24  C   UNL     1      -4.898  -1.239 -32.991  1.00  0.00    -0.053 A 
HETATM   25  C   UNL     1      -5.430  -1.985 -34.078  1.00  0.00    -0.055 A 
HETATM   26  C   UNL     1      -3.874  -1.834 -32.064  1.00  0.00     0.049 C 
HETATM   27  C   UNL     1      -5.001  -3.407 -34.329  1.00  0.00     0.049 C 
ENDBRANCH   1  17
TORSDOF 3
ENDMDL
MODEL 8
REMARK VINA RESULT:      -8.2      2.792      7.780
REMARK  3 active torsions:
REMARK  status: ('A' for Active; 'I' for Inactive)
REMARK    1  A    between atoms: C_9  and  C_10 
REMARK       I    between atoms: C_10  and  N_11 
REMARK    2  A    between atoms: N_11  and  C_12 
REMARK    3  A    between atoms: C_14  and  C_15 
ROOT
HETATM    1  C   UNL     1      -6.840   3.467 -32.238  1.00  0.00     0.252 C 
HETATM    2  N   UNL     1      -5.575   3.190 -32.723  1.00  0.00    -0.325 N 
HETATM    3  O   UNL     1      -7.469   4.510 -32.403  1.00  0.00    -0.270 OA
HETATM    4  H   UNL     1      -5.284   2.221 -32.635  1.00  0.00     0.169 HD
ENDROOT
BRANCH   2   5
HETATM    5  C   UNL     1      -4.603   4.099 -33.176  1.00  0.00     0.035 A 
HETATM    6  C   UNL     1      -3.517   4.521 -32.406  1.00  0.00     0.042 A 
HETATM    7  C   UNL     1      -2.523   5.349 -32.954  1.00  0.00    -0.021 A 
HETATM    8  C   UNL     1      -2.642   5.762 -34.288  1.00  0.00     0.012 A 
HETATM    9  C   UNL     1      -3.731   5.356 -35.058  1.00  0.00     0.003 A 
HETATM   10  C   UNL     1      -4.705   4.526 -34.505  1.00  0.00     0.029 A 
BRANCH   7  11
HETATM   11  C   UNL     1      -1.365   5.746 -32.170  1.00  0.00     0.010 A 
HETATM   12  C   UNL     1      -0.529   6.885 -32.262  1.00  0.00     0.152 A 
HETATM   13  N   UNL     1       0.445   6.890 -31.349  1.00  0.00    -0.187 NA
HETATM   14  N   UNL     1       0.241   5.749 -30.669  1.00  0.00    -0.289 N 
HETATM   15  H   UNL     1       0.872   5.523 -29.907  1.00  0.00     0.188 HD
HETATM   16  C   UNL     1      -0.828   5.032 -31.118  1.00  0.00     0.123 A 
ENDBRANCH   7  11
ENDBRANCH   2   5
BRANCH   1  17
HETATM   17  C   UNL     1      -7.404   2.337 -31.343  1.00  0.00     0.225 C 
HETATM   18  C   UNL     1      -6.232   1.562 -30.723  1.00  0.00     0.083 C 
HETATM   19  C   UNL     1      -6.158   0.454 -31.706  1.00  0.00    -0.021 A 
HETATM   20  C   UNL     1      -7.355   0.381 -32.395  1.00  0.00     0.076 A 
HETATM   21  C   UNL     1      -5.126  -0.418 -31.989  1.00  0.00     0.017 A 
HETATM   22  C   UNL     1      -7.586  -0.564 -33.371  1.00  0.00     0.044 A 
HETATM   23  O   UNL     1      -8.230   1.394 -32.077  1.00  0.00    -0.336 OA
HETATM   24  C   UNL     1      -6.548  -1.454 -33.694  1.00  0.00    -0.053 A 
HETATM   25  C   UNL     1      -5.306  -1.371 -33.007  1.00  0.00    -0.055 A 
HETATM   26  C   UNL     1      -6.763  -2.451 -34.801  1.00  0.00     0.049 C 
HETATM   27  C   UNL     1      -4.153  -2.268 -33.376  1.00  0.00     0.049 C 
ENDBRANCH   1  17
TORSDOF 3
ENDMDL
MODEL 9
REMARK VINA RESULT:      -8.0     15.107     17.575
REMARK  3 active torsions:
REMARK  status: ('A' for Active; 'I' for Inactive)
REMARK    1  A    between atoms: C_9  and  C_10 
REMARK       I    between atoms: C_10  and  N_11 
REMARK    2  A    between atoms: N_11  and  C_12 
REMARK    3  A    between atoms: C_14  and  C_15 
ROOT
HETATM    1  C   UNL     1      -5.482 -15.126 -37.283  1.00  0.00     0.252 C 
HETATM    2  N   UNL     1      -4.475 -14.444 -36.625  1.00  0.00    -0.325 N 
HETATM    3  O   UNL     1      -5.396 -15.662 -38.386  1.00  0.00    -0.270 OA
HETATM    4  H   UNL     1      -4.674 -14.217 -35.656  1.00  0.00     0.169 HD
ENDROOT
BRANCH   2   5
HETATM    5  C   UNL     1      -3.296 -13.905 -37.168  1.00  0.00     0.035 A 
HETATM    6  C   UNL     1      -2.080 -14.590 -37.212  1.00  0.00     0.042 A 
HETATM    7  C   UNL     1      -0.963 -14.038 -37.863  1.00  0.00    -0.021 A 
HETATM    8  C   UNL     1      -1.082 -12.775 -38.458  1.00  0.00     0.012 A 
HETATM    9  C   UNL     1      -2.289 -12.079 -38.406  1.00  0.00     0.003 A 
HETATM   10  C   UNL     1      -3.392 -12.644 -37.766  1.00  0.00     0.029 A 
BRANCH   7  11
HETATM   11  C   UNL     1       0.288 -14.772 -37.955  1.00  0.00     0.010 A 
HETATM   12  C   UNL     1       1.397 -14.608 -38.819  1.00  0.00     0.152 A 
HETATM   13  N   UNL     1       2.370 -15.494 -38.589  1.00  0.00    -0.187 NA
HETATM   14  N   UNL     1       1.885 -16.234 -37.578  1.00  0.00    -0.289 N 
HETATM   15  H   UNL     1       2.456 -16.993 -37.220  1.00  0.00     0.188 HD
HETATM   16  C   UNL     1       0.647 -15.842 -37.162  1.00  0.00     0.123 A 
ENDBRANCH   7  11
ENDBRANCH   2   5
BRANCH   1  17
HETATM   17  C   UNL     1      -6.833 -15.085 -36.528  1.00  0.00     0.225 C 
HETATM   18  C   UNL     1      -7.769 -16.148 -37.124  1.00  0.00     0.083 C 
HETATM   19  C   UNL     1      -8.514 -15.279 -38.067  1.00  0.00    -0.021 A 
HETATM   20  C   UNL     1      -8.363 -13.960 -37.681  1.00  0.00     0.076 A 
HETATM   21  C   UNL     1      -9.258 -15.609 -39.182  1.00  0.00     0.017 A 
HETATM   22  C   UNL     1      -8.953 -12.920 -38.366  1.00  0.00     0.044 A 
HETATM   23  O   UNL     1      -7.495 -13.797 -36.626  1.00  0.00    -0.336 OA
HETATM   24  C   UNL     1      -9.702 -13.222 -39.516  1.00  0.00    -0.053 A 
HETATM   25  C   UNL     1      -9.844 -14.574 -39.933  1.00  0.00    -0.055 A 
HETATM   26  C   UNL     1     -10.303 -12.093 -40.310  1.00  0.00     0.049 C 
HETATM   27  C   UNL     1     -10.586 -14.923 -41.197  1.00  0.00     0.049 C 
ENDBRANCH   1  17
TORSDOF 3
ENDMDL
MODEL 10
REMARK VINA RESULT:      -8.0     15.651     17.982
REMARK  3 active torsions:
REMARK  status: ('A' for Active; 'I' for Inactive)
REMARK    1  A    between atoms: C_9  and  C_10 
REMARK       I    between atoms: C_10  and  N_11 
REMARK    2  A    between atoms: N_11  and  C_12 
REMARK    3  A    between atoms: C_14  and  C_15 
ROOT
HETATM    1  C   UNL     1      -4.404 -14.726 -41.894  1.00  0.00     0.252 C 
HETATM    2  N   UNL     1      -4.853 -13.451 -41.602  1.00  0.00    -0.325 N 
HETATM    3  O   UNL     1      -4.962 -15.779 -41.592  1.00  0.00    -0.270 OA
HETATM    4  H   UNL     1      -4.355 -12.702 -42.075  1.00  0.00     0.169 HD
ENDROOT
BRANCH   2   5
HETATM    5  C   UNL     1      -5.797 -13.065 -40.636  1.00  0.00     0.035 A 
HETATM    6  C   UNL     1      -7.172 -13.007 -40.874  1.00  0.00     0.042 A 
HETATM    7  C   UNL     1      -8.074 -12.716 -39.836  1.00  0.00    -0.021 A 
HETATM    8  C   UNL     1      -7.572 -12.468 -38.552  1.00  0.00     0.012 A 
HETATM    9  C   UNL     1      -6.199 -12.510 -38.309  1.00  0.00     0.003 A 
HETATM   10  C   UNL     1      -5.317 -12.810 -39.346  1.00  0.00     0.029 A 
BRANCH   7  11
HETATM   11  C   UNL     1      -9.508 -12.707 -40.071  1.00  0.00     0.010 A 
HETATM   12  C   UNL     1     -10.473 -13.736 -39.953  1.00  0.00     0.152 A 
HETATM   13  N   UNL     1     -11.707 -13.329 -40.262  1.00  0.00    -0.187 NA
HETATM   14  N   UNL     1     -11.537 -12.036 -40.585  1.00  0.00    -0.289 N 
HETATM   15  H   UNL     1     -12.350 -11.498 -40.864  1.00  0.00     0.188 HD
HETATM   16  C   UNL     1     -10.243 -11.616 -40.485  1.00  0.00     0.123 A 
ENDBRANCH   7  11
ENDBRANCH   2   5
BRANCH   1  17
HETATM   17  C   UNL     1      -3.020 -14.735 -42.587  1.00  0.00     0.225 C 
HETATM   18  C   UNL     1      -2.475 -16.171 -42.592  1.00  0.00     0.083 C 
HETATM   19  C   UNL     1      -1.628 -16.086 -41.377  1.00  0.00    -0.021 A 
HETATM   20  C   UNL     1      -1.375 -14.757 -41.094  1.00  0.00     0.076 A 
HETATM   21  C   UNL     1      -1.123 -17.089 -40.573  1.00  0.00     0.017 A 
HETATM   22  C   UNL     1      -0.602 -14.366 -40.022  1.00  0.00     0.044 A 
HETATM   23  O   UNL     1      -2.049 -13.887 -41.920  1.00  0.00    -0.336 OA
HETATM   24  C   UNL     1      -0.090 -15.362 -39.174  1.00  0.00    -0.053 A 
HETATM   25  C   UNL     1      -0.363 -16.731 -39.444  1.00  0.00    -0.055 A 
HETATM   26  C   UNL     1       0.705 -14.949 -37.965  1.00  0.00     0.049 C 
HETATM   27  C   UNL     1       0.119 -17.817 -38.518  1.00  0.00     0.049 C 
ENDBRANCH   1  17
TORSDOF 3
ENDMDL
