MODEL 1
REMARK VINA RESULT:      -8.0      0.000      0.000
REMARK  3 active torsions:
REMARK  status: ('A' for Active; 'I' for Inactive)
REMARK    1  A    between atoms: C_8  and  C_9 
REMARK    2  A    between atoms: C_16  and  O_17 
REMARK    3  A    between atoms: C_24  and  N_25 
ROOT
HETATM    1  C   UNL     1      -6.884   0.319 -35.739  1.00  0.00     0.073 C 
HETATM    2  C   UNL     1      -6.394  -0.198 -34.438  1.00  0.00     0.062 A 
HETATM    3  N   UNL     1      -5.654  -1.319 -34.388  1.00  0.00    -0.177 NA
HETATM    4  N   UNL     1      -5.381  -1.483 -33.077  1.00  0.00    -0.256 N 
HETATM    5  H   UNL     1      -4.814  -2.271 -32.789  1.00  0.00     0.191 HD
HETATM    6  C   UNL     1      -5.923  -0.507 -32.305  1.00  0.00     0.175 A 
HETATM    7  C   UNL     1      -6.601   0.337 -33.144  1.00  0.00     0.034 A 
HETATM    8  C   UNL     1      -7.297   1.536 -32.595  1.00  0.00     0.106 A 
HETATM    9  C   UNL     1      -7.061   1.642 -31.084  1.00  0.00     0.081 A 
HETATM   10  C   UNL     1      -7.584   2.801 -30.439  1.00  0.00     0.100 C 
HETATM   11  N   UNL     1      -8.008   3.740 -29.903  1.00  0.00    -0.191 NA
HETATM   12  C   UNL     1      -6.355   0.717 -30.377  1.00  0.00     0.140 A 
HETATM   13  O   UNL     1      -5.788  -0.417 -30.988  1.00  0.00    -0.279 OA
ENDROOT
BRANCH   8  14
HETATM   14  C   UNL     1      -8.776   1.378 -32.966  1.00  0.00    -0.033 A 
HETATM   15  C   UNL     1      -9.525   2.410 -33.612  1.00  0.00    -0.016 A 
HETATM   16  C   UNL     1     -10.902   2.183 -33.905  1.00  0.00     0.008 A 
HETATM   17  C   UNL     1      -8.981   3.667 -33.987  1.00  0.00     0.013 A 
HETATM   18  C   UNL     1     -11.643   3.201 -34.546  1.00  0.00     0.015 A 
HETATM   19  C   UNL     1     -11.514   0.955 -33.551  1.00  0.00     0.079 A 
HETATM   20  C   UNL     1     -11.075   4.422 -34.901  1.00  0.00     0.001 A 
HETATM   21  C   UNL     1      -9.741   4.655 -34.620  1.00  0.00     0.001 A 
HETATM   22  C   UNL     1     -10.772  -0.038 -32.918  1.00  0.00     0.038 A 
HETATM   23  C   UNL     1      -9.429   0.172 -32.627  1.00  0.00     0.012 A 
BRANCH  19  24
HETATM   24  O   UNL     1     -12.846   0.820 -33.870  1.00  0.00    -0.355 OA
HETATM   25  C   UNL     1     -13.476  -0.421 -33.588  1.00  0.00     0.210 C 
ENDBRANCH  19  24
ENDBRANCH   8  14
BRANCH  12  26
HETATM   26  N   UNL     1      -6.110   0.766 -29.023  1.00  0.00    -0.282 NA
HETATM   27  H   UNL     1      -6.862   1.141 -28.451  1.00  0.00     0.126 HD
HETATM   28  H   UNL     1      -5.735  -0.110 -28.667  1.00  0.00     0.126 HD
ENDBRANCH  12  26
TORSDOF 3
ENDMDL
MODEL 2
REMARK VINA RESULT:      -8.0      3.160      6.074
REMARK  3 active torsions:
REMARK  status: ('A' for Active; 'I' for Inactive)
REMARK    1  A    between atoms: C_8  and  C_9 
REMARK    2  A    between atoms: C_16  and  O_17 
REMARK    3  A    between atoms: C_24  and  N_25 
ROOT
HETATM    1  C   UNL     1      -9.362   0.384 -31.608  1.00  0.00     0.073 C 
HETATM    2  C   UNL     1      -9.257   1.653 -32.369  1.00  0.00     0.062 A 
HETATM    3  N   UNL     1     -10.367   2.289 -32.783  1.00  0.00    -0.177 NA
HETATM    4  N   UNL     1      -9.906   3.386 -33.418  1.00  0.00    -0.256 N 
HETATM    5  H   UNL     1     -10.571   4.040 -33.814  1.00  0.00     0.191 HD
HETATM    6  C   UNL     1      -8.550   3.460 -33.418  1.00  0.00     0.175 A 
HETATM    7  C   UNL     1      -8.090   2.349 -32.762  1.00  0.00     0.034 A 
HETATM    8  C   UNL     1      -6.625   2.146 -32.575  1.00  0.00     0.106 A 
HETATM    9  C   UNL     1      -5.846   3.338 -33.144  1.00  0.00     0.081 A 
HETATM   10  C   UNL     1      -4.434   3.329 -32.944  1.00  0.00     0.100 C 
HETATM   11  N   UNL     1      -3.284   3.331 -32.788  1.00  0.00    -0.191 NA
HETATM   12  C   UNL     1      -6.447   4.384 -33.774  1.00  0.00     0.140 A 
HETATM   13  O   UNL     1      -7.842   4.447 -33.953  1.00  0.00    -0.279 OA
ENDROOT
BRANCH   8  14
HETATM   14  C   UNL     1      -6.286   0.819 -33.263  1.00  0.00    -0.033 A 
HETATM   15  C   UNL     1      -5.259  -0.056 -32.788  1.00  0.00    -0.016 A 
HETATM   16  C   UNL     1      -5.000  -1.265 -33.500  1.00  0.00     0.008 A 
HETATM   17  C   UNL     1      -4.467   0.201 -31.639  1.00  0.00     0.013 A 
HETATM   18  C   UNL     1      -3.988  -2.132 -33.032  1.00  0.00     0.015 A 
HETATM   19  C   UNL     1      -5.746  -1.582 -34.663  1.00  0.00     0.079 A 
HETATM   20  C   UNL     1      -3.232  -1.847 -31.899  1.00  0.00     0.001 A 
HETATM   21  C   UNL     1      -3.472  -0.678 -31.201  1.00  0.00     0.001 A 
HETATM   22  C   UNL     1      -6.738  -0.717 -35.114  1.00  0.00     0.038 A 
HETATM   23  C   UNL     1      -7.000   0.464 -34.428  1.00  0.00     0.012 A 
BRANCH  19  24
HETATM   24  O   UNL     1      -5.430  -2.766 -35.289  1.00  0.00    -0.355 OA
HETATM   25  C   UNL     1      -6.302  -3.872 -35.100  1.00  0.00     0.210 C 
ENDBRANCH  19  24
ENDBRANCH   8  14
BRANCH  12  26
HETATM   26  N   UNL     1      -5.798   5.479 -34.299  1.00  0.00    -0.282 NA
HETATM   27  H   UNL     1      -4.970   5.785 -33.795  1.00  0.00     0.126 HD
HETATM   28  H   UNL     1      -5.648   5.394 -35.302  1.00  0.00     0.126 HD
ENDBRANCH  12  26
TORSDOF 3
ENDMDL
MODEL 3
REMARK VINA RESULT:      -7.7      3.974      5.814
REMARK  3 active torsions:
REMARK  status: ('A' for Active; 'I' for Inactive)
REMARK    1  A    between atoms: C_8  and  C_9 
REMARK    2  A    between atoms: C_16  and  O_17 
REMARK    3  A    between atoms: C_24  and  N_25 
ROOT
HETATM    1  C   UNL     1      -3.110   4.091 -33.811  1.00  0.00     0.073 C 
HETATM    2  C   UNL     1      -3.436   4.575 -32.447  1.00  0.00     0.062 A 
HETATM    3  N   UNL     1      -2.587   5.387 -31.794  1.00  0.00    -0.177 NA
HETATM    4  N   UNL     1      -3.196   5.629 -30.615  1.00  0.00    -0.256 N 
HETATM    5  H   UNL     1      -2.743   6.240 -29.945  1.00  0.00     0.191 HD
HETATM    6  C   UNL     1      -4.393   4.999 -30.505  1.00  0.00     0.175 A 
HETATM    7  C   UNL     1      -4.580   4.292 -31.664  1.00  0.00     0.034 A 
HETATM    8  C   UNL     1      -5.827   3.500 -31.862  1.00  0.00     0.106 A 
HETATM    9  C   UNL     1      -6.769   3.681 -30.665  1.00  0.00     0.081 A 
HETATM   10  C   UNL     1      -8.048   3.061 -30.763  1.00  0.00     0.100 C 
HETATM   11  N   UNL     1      -9.093   2.559 -30.832  1.00  0.00    -0.191 NA
HETATM   12  C   UNL     1      -6.444   4.426 -29.572  1.00  0.00     0.140 A 
HETATM   13  O   UNL     1      -5.206   5.087 -29.460  1.00  0.00    -0.279 OA
ENDROOT
BRANCH   8  14
HETATM   14  C   UNL     1      -5.383   2.048 -32.065  1.00  0.00    -0.033 A 
HETATM   15  C   UNL     1      -5.907   1.218 -33.105  1.00  0.00    -0.016 A 
HETATM   16  C   UNL     1      -5.448  -0.128 -33.212  1.00  0.00     0.008 A 
HETATM   17  C   UNL     1      -6.870   1.651 -34.055  1.00  0.00     0.013 A 
HETATM   18  C   UNL     1      -5.963  -0.949 -34.240  1.00  0.00     0.015 A 
HETATM   19  C   UNL     1      -4.494  -0.632 -32.292  1.00  0.00     0.079 A 
HETATM   20  C   UNL     1      -6.907  -0.489 -35.154  1.00  0.00     0.001 A 
HETATM   21  C   UNL     1      -7.361   0.814 -35.061  1.00  0.00     0.001 A 
HETATM   22  C   UNL     1      -3.998   0.187 -31.283  1.00  0.00     0.038 A 
HETATM   23  C   UNL     1      -4.438   1.502 -31.169  1.00  0.00     0.012 A 
BRANCH  19  24
HETATM   24  O   UNL     1      -4.108  -1.941 -32.467  1.00  0.00    -0.355 OA
HETATM   25  C   UNL     1      -2.929  -2.381 -31.807  1.00  0.00     0.210 C 
ENDBRANCH  19  24
ENDBRANCH   8  14
BRANCH  12  26
HETATM   26  N   UNL     1      -7.251   4.625 -28.474  1.00  0.00    -0.282 NA
HETATM   27  H   UNL     1      -6.774   4.658 -27.577  1.00  0.00     0.126 HD
HETATM   28  H   UNL     1      -7.903   5.394 -28.610  1.00  0.00     0.126 HD
ENDBRANCH  12  26
TORSDOF 3
ENDMDL
MODEL 4
REMARK VINA RESULT:      -7.7      2.765      5.849
REMARK  3 active torsions:
REMARK  status: ('A' for Active; 'I' for Inactive)
REMARK    1  A    between atoms: C_8  and  C_9 
REMARK    2  A    between atoms: C_16  and  O_17 
REMARK    3  A    between atoms: C_24  and  N_25 
ROOT
HETATM    1  C   UNL     1     -11.348  -0.124 -33.134  1.00  0.00     0.073 C 
HETATM    2  C   UNL     1     -11.393   1.095 -33.979  1.00  0.00     0.062 A 
HETATM    3  N   UNL     1     -12.374   1.259 -34.883  1.00  0.00    -0.177 NA
HETATM    4  N   UNL     1     -12.112   2.455 -35.448  1.00  0.00    -0.256 N 
HETATM    5  H   UNL     1     -12.736   2.806 -36.166  1.00  0.00     0.191 HD
HETATM    6  C   UNL     1     -11.004   3.046 -34.933  1.00  0.00     0.175 A 
HETATM    7  C   UNL     1     -10.498   2.191 -33.989  1.00  0.00     0.034 A 
HETATM    8  C   UNL     1      -9.278   2.567 -33.219  1.00  0.00     0.106 A 
HETATM    9  C   UNL     1      -8.810   3.972 -33.615  1.00  0.00     0.081 A 
HETATM   10  C   UNL     1      -7.709   4.506 -32.884  1.00  0.00     0.100 C 
HETATM   11  N   UNL     1      -6.812   4.949 -32.296  1.00  0.00    -0.191 NA
HETATM   12  C   UNL     1      -9.422   4.712 -34.581  1.00  0.00     0.140 A 
HETATM   13  O   UNL     1     -10.537   4.234 -35.294  1.00  0.00    -0.279 OA
ENDROOT
BRANCH   8  14
HETATM   14  C   UNL     1      -8.238   1.480 -33.511  1.00  0.00    -0.033 A 
HETATM   15  C   UNL     1      -7.346   0.977 -32.512  1.00  0.00    -0.016 A 
HETATM   16  C   UNL     1      -6.397  -0.025 -32.876  1.00  0.00     0.008 A 
HETATM   17  C   UNL     1      -7.340   1.414 -31.161  1.00  0.00     0.013 A 
HETATM   18  C   UNL     1      -5.517  -0.525 -31.891  1.00  0.00     0.015 A 
HETATM   19  C   UNL     1      -6.339  -0.502 -34.209  1.00  0.00     0.079 A 
HETATM   20  C   UNL     1      -5.542  -0.072 -30.574  1.00  0.00     0.001 A 
HETATM   21  C   UNL     1      -6.456   0.899 -30.210  1.00  0.00     0.001 A 
HETATM   22  C   UNL     1      -7.211   0.002 -35.170  1.00  0.00     0.038 A 
HETATM   23  C   UNL     1      -8.140   0.978 -34.827  1.00  0.00     0.012 A 
BRANCH  19  24
HETATM   24  O   UNL     1      -5.394  -1.467 -34.473  1.00  0.00    -0.355 OA
HETATM   25  C   UNL     1      -5.849  -2.768 -34.819  1.00  0.00     0.210 C 
ENDBRANCH  19  24
ENDBRANCH   8  14
BRANCH  12  26
HETATM   26  N   UNL     1      -9.047   5.978 -34.973  1.00  0.00    -0.282 NA
HETATM   27  H   UNL     1      -9.797   6.661 -35.033  1.00  0.00     0.126 HD
HETATM   28  H   UNL     1      -8.237   6.317 -34.458  1.00  0.00     0.126 HD
ENDBRANCH  12  26
TORSDOF 3
ENDMDL
MODEL 5
REMARK VINA RESULT:      -7.7     15.149     16.583
REMARK  3 active torsions:
REMARK  status: ('A' for Active; 'I' for Inactive)
REMARK    1  A    between atoms: C_8  and  C_9 
REMARK    2  A    between atoms: C_16  and  O_17 
REMARK    3  A    between atoms: C_24  and  N_25 
ROOT
HETATM    1  C   UNL     1      -5.661 -12.873 -40.931  1.00  0.00     0.073 C 
HETATM    2  C   UNL     1      -4.736 -13.377 -39.886  1.00  0.00     0.062 A 
HETATM    3  N   UNL     1      -3.470 -13.703 -40.200  1.00  0.00    -0.177 NA
HETATM    4  N   UNL     1      -2.928 -14.103 -39.031  1.00  0.00    -0.256 N 
HETATM    5  H   UNL     1      -1.957 -14.391 -39.014  1.00  0.00     0.191 HD
HETATM    6  C   UNL     1      -3.807 -14.039 -37.999  1.00  0.00     0.175 A 
HETATM    7  C   UNL     1      -4.995 -13.589 -38.512  1.00  0.00     0.034 A 
HETATM    8  C   UNL     1      -6.168 -13.391 -37.614  1.00  0.00     0.106 A 
HETATM    9  C   UNL     1      -5.784 -13.696 -36.161  1.00  0.00     0.081 A 
HETATM   10  C   UNL     1      -6.784 -13.450 -35.174  1.00  0.00     0.100 C 
HETATM   11  N   UNL     1      -7.590 -13.255 -34.363  1.00  0.00    -0.191 NA
HETATM   12  C   UNL     1      -4.549 -14.139 -35.798  1.00  0.00     0.140 A 
HETATM   13  O   UNL     1      -3.525 -14.352 -36.740  1.00  0.00    -0.279 OA
ENDROOT
BRANCH   8  14
HETATM   14  C   UNL     1      -7.276 -14.304 -38.150  1.00  0.00    -0.033 A 
HETATM   15  C   UNL     1      -8.409 -13.806 -38.867  1.00  0.00    -0.016 A 
HETATM   16  C   UNL     1      -9.401 -14.727 -39.316  1.00  0.00     0.008 A 
HETATM   17  C   UNL     1      -8.616 -12.433 -39.165  1.00  0.00     0.013 A 
HETATM   18  C   UNL     1     -10.519 -14.237 -40.026  1.00  0.00     0.015 A 
HETATM   19  C   UNL     1      -9.264 -16.111 -39.046  1.00  0.00     0.079 A 
HETATM   20  C   UNL     1     -10.689 -12.883 -40.302  1.00  0.00     0.001 A 
HETATM   21  C   UNL     1      -9.735 -11.979 -39.869  1.00  0.00     0.001 A 
HETATM   22  C   UNL     1      -8.158 -16.580 -38.343  1.00  0.00     0.038 A 
HETATM   23  C   UNL     1      -7.184 -15.691 -37.900  1.00  0.00     0.012 A 
BRANCH  19  24
HETATM   24  O   UNL     1     -10.267 -16.929 -39.515  1.00  0.00    -0.355 OA
HETATM   25  C   UNL     1     -10.363 -18.241 -38.978  1.00  0.00     0.210 C 
ENDBRANCH  19  24
ENDBRANCH   8  14
BRANCH  12  26
HETATM   26  N   UNL     1      -4.150 -14.424 -34.511  1.00  0.00    -0.282 NA
HETATM   27  H   UNL     1      -4.896 -14.503 -33.825  1.00  0.00     0.126 HD
HETATM   28  H   UNL     1      -3.489 -15.196 -34.474  1.00  0.00     0.126 HD
ENDBRANCH  12  26
TORSDOF 3
ENDMDL
MODEL 6
REMARK VINA RESULT:      -7.7     14.824     16.684
REMARK  3 active torsions:
REMARK  status: ('A' for Active; 'I' for Inactive)
REMARK    1  A    between atoms: C_8  and  C_9 
REMARK    2  A    between atoms: C_16  and  O_17 
REMARK    3  A    between atoms: C_24  and  N_25 
ROOT
HETATM    1  C   UNL     1      -7.055 -15.640 -35.641  1.00  0.00     0.073 C 
HETATM    2  C   UNL     1      -6.033 -14.565 -35.644  1.00  0.00     0.062 A 
HETATM    3  N   UNL     1      -5.610 -14.027 -34.487  1.00  0.00    -0.177 NA
HETATM    4  N   UNL     1      -4.694 -13.110 -34.861  1.00  0.00    -0.256 N 
HETATM    5  H   UNL     1      -4.218 -12.572 -34.145  1.00  0.00     0.191 HD
HETATM    6  C   UNL     1      -4.528 -13.053 -36.207  1.00  0.00     0.175 A 
HETATM    7  C   UNL     1      -5.388 -13.969 -36.753  1.00  0.00     0.034 A 
HETATM    8  C   UNL     1      -5.430 -14.164 -38.231  1.00  0.00     0.106 A 
HETATM    9  C   UNL     1      -4.383 -13.276 -38.915  1.00  0.00     0.081 A 
HETATM   10  C   UNL     1      -4.240 -13.433 -40.324  1.00  0.00     0.100 C 
HETATM   11  N   UNL     1      -4.116 -13.551 -41.472  1.00  0.00    -0.191 NA
HETATM   12  C   UNL     1      -3.589 -12.406 -38.232  1.00  0.00     0.140 A 
HETATM   13  O   UNL     1      -3.674 -12.256 -36.835  1.00  0.00    -0.279 OA
ENDROOT
BRANCH   8  14
HETATM   14  C   UNL     1      -6.866 -13.846 -38.663  1.00  0.00    -0.033 A 
HETATM   15  C   UNL     1      -7.776 -14.851 -39.117  1.00  0.00    -0.016 A 
HETATM   16  C   UNL     1      -9.090 -14.463 -39.515  1.00  0.00     0.008 A 
HETATM   17  C   UNL     1      -7.455 -16.231 -39.201  1.00  0.00     0.013 A 
HETATM   18  C   UNL     1      -9.991 -15.454 -39.962  1.00  0.00     0.015 A 
HETATM   19  C   UNL     1      -9.477 -13.100 -39.466  1.00  0.00     0.079 A 
HETATM   20  C   UNL     1      -9.641 -16.800 -40.030  1.00  0.00     0.001 A 
HETATM   21  C   UNL     1      -8.370 -17.188 -39.649  1.00  0.00     0.001 A 
HETATM   22  C   UNL     1      -8.577 -12.134 -39.026  1.00  0.00     0.038 A 
HETATM   23  C   UNL     1      -7.294 -12.500 -38.636  1.00  0.00     0.012 A 
BRANCH  19  24
HETATM   24  O   UNL     1     -10.762 -12.814 -39.869  1.00  0.00    -0.355 OA
HETATM   25  C   UNL     1     -11.013 -11.535 -40.435  1.00  0.00     0.210 C 
ENDBRANCH  19  24
ENDBRANCH   8  14
BRANCH  12  26
HETATM   26  N   UNL     1      -2.632 -11.590 -38.794  1.00  0.00    -0.282 NA
HETATM   27  H   UNL     1      -2.058 -12.017 -39.516  1.00  0.00     0.126 HD
HETATM   28  H   UNL     1      -3.008 -10.685 -39.065  1.00  0.00     0.126 HD
ENDBRANCH  12  26
TORSDOF 3
ENDMDL
MODEL 7
REMARK VINA RESULT:      -7.3      3.109      5.415
REMARK  3 active torsions:
REMARK  status: ('A' for Active; 'I' for Inactive)
REMARK    1  A    between atoms: C_8  and  C_9 
REMARK    2  A    between atoms: C_16  and  O_17 
REMARK    3  A    between atoms: C_24  and  N_25 
ROOT
HETATM    1  C   UNL     1      -4.199  -0.099 -32.064  1.00  0.00     0.073 C 
HETATM    2  C   UNL     1      -5.497  -0.479 -32.673  1.00  0.00     0.062 A 
HETATM    3  N   UNL     1      -5.586  -1.568 -33.458  1.00  0.00    -0.177 NA
HETATM    4  N   UNL     1      -6.884  -1.614 -33.820  1.00  0.00    -0.256 N 
HETATM    5  H   UNL     1      -7.201  -2.371 -34.415  1.00  0.00     0.191 HD
HETATM    6  C   UNL     1      -7.611  -0.596 -33.292  1.00  0.00     0.175 A 
HETATM    7  C   UNL     1      -6.748   0.171 -32.555  1.00  0.00     0.034 A 
HETATM    8  C   UNL     1      -7.252   1.369 -31.824  1.00  0.00     0.106 A 
HETATM    9  C   UNL     1      -8.770   1.499 -31.999  1.00  0.00     0.081 A 
HETATM   10  C   UNL     1      -9.406   2.545 -31.268  1.00  0.00     0.100 C 
HETATM   11  N   UNL     1      -9.935   3.394 -30.679  1.00  0.00    -0.191 NA
HETATM   12  C   UNL     1      -9.503   0.649 -32.769  1.00  0.00     0.140 A 
HETATM   13  O   UNL     1      -8.914  -0.420 -33.471  1.00  0.00    -0.279 OA
ENDROOT
BRANCH   8  14
HETATM   14  C   UNL     1      -6.476   2.567 -32.381  1.00  0.00    -0.033 A 
HETATM   15  C   UNL     1      -5.948   3.601 -31.546  1.00  0.00    -0.016 A 
HETATM   16  C   UNL     1      -5.252   4.689 -32.151  1.00  0.00     0.008 A 
HETATM   17  C   UNL     1      -6.074   3.619 -30.132  1.00  0.00     0.013 A 
HETATM   18  C   UNL     1      -4.728   5.710 -31.327  1.00  0.00     0.015 A 
HETATM   19  C   UNL     1      -5.097   4.742 -33.559  1.00  0.00     0.079 A 
HETATM   20  C   UNL     1      -4.870   5.693 -29.943  1.00  0.00     0.001 A 
HETATM   21  C   UNL     1      -5.545   4.645 -29.344  1.00  0.00     0.001 A 
HETATM   22  C   UNL     1      -5.620   3.730 -34.358  1.00  0.00     0.038 A 
HETATM   23  C   UNL     1      -6.301   2.664 -33.779  1.00  0.00     0.012 A 
BRANCH  19  24
HETATM   24  O   UNL     1      -4.412   5.827 -34.058  1.00  0.00    -0.355 OA
HETATM   25  C   UNL     1      -3.326   5.580 -34.941  1.00  0.00     0.210 C 
ENDBRANCH  19  24
ENDBRANCH   8  14
BRANCH  12  26
HETATM   26  N   UNL     1     -10.866   0.717 -32.957  1.00  0.00    -0.282 NA
HETATM   27  H   UNL     1     -11.416   0.913 -32.125  1.00  0.00     0.126 HD
HETATM   28  H   UNL     1     -11.117   1.302 -33.750  1.00  0.00     0.126 HD
ENDBRANCH  12  26
TORSDOF 3
ENDMDL
MODEL 8
REMARK VINA RESULT:      -7.3      3.070      3.633
REMARK  3 active torsions:
REMARK  status: ('A' for Active; 'I' for Inactive)
REMARK    1  A    between atoms: C_8  and  C_9 
REMARK    2  A    between atoms: C_16  and  O_17 
REMARK    3  A    between atoms: C_24  and  N_25 
ROOT
HETATM    1  C   UNL     1      -7.512   0.402 -35.342  1.00  0.00     0.073 C 
HETATM    2  C   UNL     1      -6.583  -0.450 -34.559  1.00  0.00     0.062 A 
HETATM    3  N   UNL     1      -6.632  -1.789 -34.672  1.00  0.00    -0.177 NA
HETATM    4  N   UNL     1      -5.660  -2.229 -33.846  1.00  0.00    -0.256 N 
HETATM    5  H   UNL     1      -5.496  -3.226 -33.770  1.00  0.00     0.191 HD
HETATM    6  C   UNL     1      -5.006  -1.217 -33.221  1.00  0.00     0.175 A 
HETATM    7  C   UNL     1      -5.582  -0.048 -33.643  1.00  0.00     0.034 A 
HETATM    8  C   UNL     1      -5.067   1.260 -33.146  1.00  0.00     0.106 A 
HETATM    9  C   UNL     1      -3.859   1.042 -32.229  1.00  0.00     0.081 A 
HETATM   10  C   UNL     1      -3.197   2.215 -31.760  1.00  0.00     0.100 C 
HETATM   11  N   UNL     1      -2.652   3.162 -31.371  1.00  0.00    -0.191 NA
HETATM   12  C   UNL     1      -3.393  -0.194 -31.897  1.00  0.00     0.140 A 
HETATM   13  O   UNL     1      -3.995  -1.372 -32.376  1.00  0.00    -0.279 OA
ENDROOT
BRANCH   8  14
HETATM   14  C   UNL     1      -6.245   1.943 -32.442  1.00  0.00    -0.033 A 
HETATM   15  C   UNL     1      -6.509   3.343 -32.562  1.00  0.00    -0.016 A 
HETATM   16  C   UNL     1      -7.619   3.898 -31.858  1.00  0.00     0.008 A 
HETATM   17  C   UNL     1      -5.729   4.233 -33.347  1.00  0.00     0.013 A 
HETATM   18  C   UNL     1      -7.883   5.281 -31.977  1.00  0.00     0.015 A 
HETATM   19  C   UNL     1      -8.436   3.071 -31.047  1.00  0.00     0.079 A 
HETATM   20  C   UNL     1      -7.096   6.123 -32.757  1.00  0.00     0.001 A 
HETATM   21  C   UNL     1      -6.017   5.597 -33.443  1.00  0.00     0.001 A 
HETATM   22  C   UNL     1      -8.162   1.711 -30.937  1.00  0.00     0.038 A 
HETATM   23  C   UNL     1      -7.083   1.159 -31.619  1.00  0.00     0.012 A 
BRANCH  19  24
HETATM   24  O   UNL     1      -9.483   3.689 -30.403  1.00  0.00    -0.355 OA
HETATM   25  C   UNL     1     -10.769   3.619 -31.004  1.00  0.00     0.210 C 
ENDBRANCH  19  24
ENDBRANCH   8  14
BRANCH  12  26
HETATM   26  N   UNL     1      -2.311  -0.446 -31.083  1.00  0.00    -0.282 NA
HETATM   27  H   UNL     1      -1.569   0.249 -31.106  1.00  0.00     0.126 HD
HETATM   28  H   UNL     1      -2.591  -0.701 -30.139  1.00  0.00     0.126 HD
ENDBRANCH  12  26
TORSDOF 3
ENDMDL
MODEL 9
REMARK VINA RESULT:      -7.2      4.699      6.426
REMARK  3 active torsions:
REMARK  status: ('A' for Active; 'I' for Inactive)
REMARK    1  A    between atoms: C_8  and  C_9 
REMARK    2  A    between atoms: C_16  and  O_17 
REMARK    3  A    between atoms: C_24  and  N_25 
ROOT
HETATM    1  C   UNL     1      -3.741   5.205 -35.346  1.00  0.00     0.073 C 
HETATM    2  C   UNL     1      -2.940   5.772 -34.234  1.00  0.00     0.062 A 
HETATM    3  N   UNL     1      -1.758   6.364 -34.481  1.00  0.00    -0.177 NA
HETATM    4  N   UNL     1      -1.324   6.763 -33.268  1.00  0.00    -0.256 N 
HETATM    5  H   UNL     1      -0.440   7.254 -33.201  1.00  0.00     0.191 HD
HETATM    6  C   UNL     1      -2.188   6.442 -32.271  1.00  0.00     0.175 A 
HETATM    7  C   UNL     1      -3.241   5.785 -32.851  1.00  0.00     0.034 A 
HETATM    8  C   UNL     1      -4.380   5.315 -32.013  1.00  0.00     0.106 A 
HETATM    9  C   UNL     1      -4.175   5.735 -30.553  1.00  0.00     0.081 A 
HETATM   10  C   UNL     1      -5.240   5.441 -29.651  1.00  0.00     0.100 C 
HETATM   11  N   UNL     1      -6.100   5.205 -28.908  1.00  0.00    -0.191 NA
HETATM   12  C   UNL     1      -3.065   6.394 -30.119  1.00  0.00     0.140 A 
HETATM   13  O   UNL     1      -2.014   6.738 -30.990  1.00  0.00    -0.279 OA
ENDROOT
BRANCH   8  14
HETATM   14  C   UNL     1      -4.450   3.796 -32.200  1.00  0.00    -0.033 A 
HETATM   15  C   UNL     1      -5.576   3.141 -32.790  1.00  0.00    -0.016 A 
HETATM   16  C   UNL     1      -5.562   1.719 -32.910  1.00  0.00     0.008 A 
HETATM   17  C   UNL     1      -6.725   3.821 -33.272  1.00  0.00     0.013 A 
HETATM   18  C   UNL     1      -6.672   1.071 -33.496  1.00  0.00     0.015 A 
HETATM   19  C   UNL     1      -4.451   0.974 -32.442  1.00  0.00     0.079 A 
HETATM   20  C   UNL     1      -7.782   1.772 -33.959  1.00  0.00     0.001 A 
HETATM   21  C   UNL     1      -7.808   3.150 -33.846  1.00  0.00     0.001 A 
HETATM   22  C   UNL     1      -3.366   1.626 -31.865  1.00  0.00     0.038 A 
HETATM   23  C   UNL     1      -3.368   3.012 -31.743  1.00  0.00     0.012 A 
BRANCH  19  24
HETATM   24  O   UNL     1      -4.522  -0.392 -32.596  1.00  0.00    -0.355 OA
HETATM   25  C   UNL     1      -3.407  -1.168 -32.178  1.00  0.00     0.210 C 
ENDBRANCH  19  24
ENDBRANCH   8  14
BRANCH  12  26
HETATM   26  N   UNL     1      -2.832   6.798 -28.824  1.00  0.00    -0.282 NA
HETATM   27  H   UNL     1      -1.926   6.545 -28.439  1.00  0.00     0.126 HD
HETATM   28  H   UNL     1      -3.071   7.776 -28.676  1.00  0.00     0.126 HD
ENDBRANCH  12  26
TORSDOF 3
ENDMDL
MODEL 10
REMARK VINA RESULT:      -7.1      7.316      9.228
REMARK  3 active torsions:
REMARK  status: ('A' for Active; 'I' for Inactive)
REMARK    1  A    between atoms: C_8  and  C_9 
REMARK    2  A    between atoms: C_16  and  O_17 
REMARK    3  A    between atoms: C_24  and  N_25 
ROOT
HETATM    1  C   UNL     1       0.695   5.210 -30.654  1.00  0.00     0.073 C 
HETATM    2  C   UNL     1       0.263   5.952 -29.445  1.00  0.00     0.062 A 
HETATM    3  N   UNL     1       0.795   5.663 -28.244  1.00  0.00    -0.177 NA
HETATM    4  N   UNL     1       0.192   6.521 -27.396  1.00  0.00    -0.256 N 
HETATM    5  H   UNL     1       0.444   6.499 -26.415  1.00  0.00     0.191 HD
HETATM    6  C   UNL     1      -0.697   7.335 -28.019  1.00  0.00     0.175 A 
HETATM    7  C   UNL     1      -0.693   6.990 -29.345  1.00  0.00     0.034 A 
HETATM    8  C   UNL     1      -1.561   7.724 -30.310  1.00  0.00     0.106 A 
HETATM    9  C   UNL     1      -2.313   8.854 -29.597  1.00  0.00     0.081 A 
HETATM   10  C   UNL     1      -3.105   9.708 -30.418  1.00  0.00     0.100 C 
HETATM   11  N   UNL     1      -3.754  10.409 -31.077  1.00  0.00    -0.191 NA
HETATM   12  C   UNL     1      -2.214   9.081 -28.257  1.00  0.00     0.140 A 
HETATM   13  O   UNL     1      -1.408   8.284 -27.423  1.00  0.00    -0.279 OA
ENDROOT
BRANCH   8  14
HETATM   14  C   UNL     1      -2.492   6.677 -30.930  1.00  0.00    -0.033 A 
HETATM   15  C   UNL     1      -2.324   6.186 -32.262  1.00  0.00    -0.016 A 
HETATM   16  C   UNL     1      -3.248   5.222 -32.764  1.00  0.00     0.008 A 
HETATM   17  C   UNL     1      -1.283   6.600 -33.134  1.00  0.00     0.013 A 
HETATM   18  C   UNL     1      -3.083   4.734 -34.079  1.00  0.00     0.015 A 
HETATM   19  C   UNL     1      -4.319   4.770 -31.952  1.00  0.00     0.079 A 
HETATM   20  C   UNL     1      -2.048   5.163 -34.905  1.00  0.00     0.001 A 
HETATM   21  C   UNL     1      -1.146   6.098 -34.431  1.00  0.00     0.001 A 
HETATM   22  C   UNL     1      -4.471   5.262 -30.660  1.00  0.00     0.038 A 
HETATM   23  C   UNL     1      -3.576   6.201 -30.160  1.00  0.00     0.012 A 
BRANCH  19  24
HETATM   24  O   UNL     1      -5.164   3.841 -32.516  1.00  0.00    -0.355 OA
HETATM   25  C   UNL     1      -5.632   2.781 -31.693  1.00  0.00     0.210 C 
ENDBRANCH  19  24
ENDBRANCH   8  14
BRANCH  12  26
HETATM   26  N   UNL     1      -2.861  10.081 -27.568  1.00  0.00    -0.282 NA
HETATM   27  H   UNL     1      -3.777  10.342 -27.925  1.00  0.00     0.126 HD
HETATM   28  H   UNL     1      -2.853   9.924 -26.563  1.00  0.00     0.126 HD
ENDBRANCH  12  26
TORSDOF 3
ENDMDL
