MODEL 1
REMARK VINA RESULT:      -9.4      0.000      0.000
REMARK  4 active torsions:
REMARK  status: ('A' for Active; 'I' for Inactive)
REMARK    1  A    between atoms: C_3  and  C_4 
REMARK    2  A    between atoms: C_15  and  C_16 
REMARK       I    between atoms: C_16  and  N_17 
REMARK    3  A    between atoms: N_17  and  C_18 
REMARK    4  A    between atoms: C_18  and  C_19 
ROOT
HETATM    1  C   UNL     1      -6.340   6.504 -32.612  1.00  0.00     0.055 C 
HETATM    2  C   UNL     1      -6.503   5.013 -32.621  1.00  0.00     0.024 A 
HETATM    3  C   UNL     1      -5.538   4.089 -32.776  1.00  0.00     0.096 A 
HETATM    4  O   UNL     1      -5.727   2.721 -32.723  1.00  0.00    -0.307 OA
HETATM    5  C   UNL     1      -6.992   2.217 -32.553  1.00  0.00     0.106 A 
HETATM    6  C   UNL     1      -8.095   3.064 -32.429  1.00  0.00     0.050 A 
HETATM    7  C   UNL     1      -7.890   4.521 -32.432  1.00  0.00     0.193 A 
HETATM    8  O   UNL     1      -8.832   5.292 -32.290  1.00  0.00    -0.287 OA
HETATM    9  C   UNL     1      -7.180   0.825 -32.515  1.00  0.00     0.066 A 
HETATM   10  C   UNL     1      -8.489   0.320 -32.390  1.00  0.00     0.020 A 
HETATM   11  C   UNL     1      -9.587   1.174 -32.285  1.00  0.00     0.002 A 
HETATM   12  C   UNL     1      -9.390   2.550 -32.296  1.00  0.00     0.018 A 
ENDROOT
BRANCH   9  13
HETATM   13  C   UNL     1      -6.080  -0.192 -32.567  1.00  0.00     0.255 C 
HETATM   14  N   UNL     1      -5.372  -0.321 -33.738  1.00  0.00    -0.349 N 
HETATM   15  H   UNL     1      -5.655   0.202 -34.558  1.00  0.00     0.163 HD
HETATM   16  O   UNL     1      -5.814  -0.855 -31.568  1.00  0.00    -0.268 OA
BRANCH  14  17
HETATM   17  C   UNL     1      -4.243  -1.226 -33.868  1.00  0.00     0.114 C 
HETATM   18  C   UNL     1      -3.333  -1.151 -32.639  1.00  0.00     0.037 C 
BRANCH  17  19
HETATM   19  C   UNL     1      -4.765  -2.617 -34.179  1.00  0.00    -0.033 A 
HETATM   20  C   UNL     1      -5.966  -2.847 -34.857  1.00  0.00     0.028 A 
HETATM   21  C   UNL     1      -6.343  -4.155 -35.124  1.00  0.00     0.116 A 
HETATM   22  N   UNL     1      -5.609  -5.236 -34.790  1.00  0.00    -0.273 NA
HETATM   23  C   UNL     1      -4.447  -4.998 -34.149  1.00  0.00     0.116 A 
HETATM   24  C   UNL     1      -3.988  -3.729 -33.831  1.00  0.00     0.028 A 
ENDBRANCH  17  19
ENDBRANCH  14  17
ENDBRANCH   9  13
BRANCH   3  25
HETATM   25  C   UNL     1      -4.135   4.448 -33.031  1.00  0.00    -0.002 A 
HETATM   26  C   UNL     1      -3.176   4.324 -32.019  1.00  0.00     0.014 A 
HETATM   27  C   UNL     1      -1.849   4.680 -32.263  1.00  0.00     0.001 A 
HETATM   28  C   UNL     1      -1.467   5.149 -33.519  1.00  0.00     0.000 A 
HETATM   29  C   UNL     1      -2.413   5.262 -34.536  1.00  0.00     0.001 A 
HETATM   30  C   UNL     1      -3.743   4.912 -34.295  1.00  0.00     0.014 A 
ENDBRANCH   3  25
TORSDOF 4
ENDMDL
MODEL 2
REMARK VINA RESULT:      -9.2      2.506      7.516
REMARK  4 active torsions:
REMARK  status: ('A' for Active; 'I' for Inactive)
REMARK    1  A    between atoms: C_3  and  C_4 
REMARK    2  A    between atoms: C_15  and  C_16 
REMARK       I    between atoms: C_16  and  N_17 
REMARK    3  A    between atoms: N_17  and  C_18 
REMARK    4  A    between atoms: C_18  and  C_19 
ROOT
HETATM    1  C   UNL     1      -2.984  -2.183 -31.865  1.00  0.00     0.055 C 
HETATM    2  C   UNL     1      -3.674  -0.882 -32.147  1.00  0.00     0.024 A 
HETATM    3  C   UNL     1      -4.768  -0.689 -32.906  1.00  0.00     0.096 A 
HETATM    4  O   UNL     1      -5.404   0.523 -33.095  1.00  0.00    -0.307 OA
HETATM    5  C   UNL     1      -4.885   1.658 -32.524  1.00  0.00     0.106 A 
HETATM    6  C   UNL     1      -3.723   1.610 -31.752  1.00  0.00     0.050 A 
HETATM    7  C   UNL     1      -3.074   0.312 -31.505  1.00  0.00     0.193 A 
HETATM    8  O   UNL     1      -2.073   0.231 -30.802  1.00  0.00    -0.287 OA
HETATM    9  C   UNL     1      -5.527   2.890 -32.733  1.00  0.00     0.066 A 
HETATM   10  C   UNL     1      -4.956   4.055 -32.183  1.00  0.00     0.020 A 
HETATM   11  C   UNL     1      -3.786   3.999 -31.428  1.00  0.00     0.002 A 
HETATM   12  C   UNL     1      -3.171   2.773 -31.203  1.00  0.00     0.018 A 
ENDROOT
BRANCH   9  13
HETATM   13  C   UNL     1      -6.813   3.072 -33.481  1.00  0.00     0.255 C 
HETATM   14  N   UNL     1      -7.876   2.265 -33.149  1.00  0.00    -0.349 N 
HETATM   15  H   UNL     1      -7.750   1.517 -32.479  1.00  0.00     0.163 HD
HETATM   16  O   UNL     1      -6.903   3.949 -34.336  1.00  0.00    -0.268 OA
BRANCH  14  17
HETATM   17  C   UNL     1      -9.183   2.410 -33.765  1.00  0.00     0.114 C 
HETATM   18  C   UNL     1      -9.667   1.078 -34.346  1.00  0.00     0.037 C 
BRANCH  17  19
HETATM   19  C   UNL     1     -10.131   3.038 -32.760  1.00  0.00    -0.033 A 
HETATM   20  C   UNL     1      -9.759   3.342 -31.448  1.00  0.00     0.028 A 
HETATM   21  C   UNL     1     -10.687   3.947 -30.612  1.00  0.00     0.116 A 
HETATM   22  N   UNL     1     -11.936   4.286 -30.991  1.00  0.00    -0.273 NA
HETATM   23  C   UNL     1     -12.277   3.999 -32.264  1.00  0.00     0.116 A 
HETATM   24  C   UNL     1     -11.424   3.390 -33.171  1.00  0.00     0.028 A 
ENDBRANCH  17  19
ENDBRANCH  14  17
ENDBRANCH   9  13
BRANCH   3  25
HETATM   25  C   UNL     1      -5.420  -1.781 -33.643  1.00  0.00    -0.002 A 
HETATM   26  C   UNL     1      -6.812  -1.812 -33.780  1.00  0.00     0.014 A 
HETATM   27  C   UNL     1      -7.427  -2.859 -34.469  1.00  0.00     0.001 A 
HETATM   28  C   UNL     1      -6.657  -3.874 -35.034  1.00  0.00     0.000 A 
HETATM   29  C   UNL     1      -5.269  -3.844 -34.914  1.00  0.00     0.001 A 
HETATM   30  C   UNL     1      -4.651  -2.801 -34.222  1.00  0.00     0.014 A 
ENDBRANCH   3  25
TORSDOF 4
ENDMDL
MODEL 3
REMARK VINA RESULT:      -9.1      2.762      7.286
REMARK  4 active torsions:
REMARK  status: ('A' for Active; 'I' for Inactive)
REMARK    1  A    between atoms: C_3  and  C_4 
REMARK    2  A    between atoms: C_15  and  C_16 
REMARK       I    between atoms: C_16  and  N_17 
REMARK    3  A    between atoms: N_17  and  C_18 
REMARK    4  A    between atoms: C_18  and  C_19 
ROOT
HETATM    1  C   UNL     1      -8.984  -0.326 -32.755  1.00  0.00     0.055 C 
HETATM    2  C   UNL     1      -7.928   0.673 -32.385  1.00  0.00     0.024 A 
HETATM    3  C   UNL     1      -6.610   0.598 -32.643  1.00  0.00     0.096 A 
HETATM    4  O   UNL     1      -5.680   1.572 -32.330  1.00  0.00    -0.307 OA
HETATM    5  C   UNL     1      -6.077   2.699 -31.656  1.00  0.00     0.106 A 
HETATM    6  C   UNL     1      -7.409   2.882 -31.280  1.00  0.00     0.050 A 
HETATM    7  C   UNL     1      -8.411   1.873 -31.659  1.00  0.00     0.193 A 
HETATM    8  O   UNL     1      -9.595   2.022 -31.376  1.00  0.00    -0.287 OA
HETATM    9  C   UNL     1      -5.124   3.677 -31.327  1.00  0.00     0.066 A 
HETATM   10  C   UNL     1      -5.535   4.805 -30.591  1.00  0.00     0.020 A 
HETATM   11  C   UNL     1      -6.865   4.972 -30.205  1.00  0.00     0.002 A 
HETATM   12  C   UNL     1      -7.807   4.013 -30.557  1.00  0.00     0.018 A 
ENDROOT
BRANCH   9  13
HETATM   13  C   UNL     1      -3.680   3.638 -31.727  1.00  0.00     0.255 C 
HETATM   14  N   UNL     1      -3.229   4.578 -32.623  1.00  0.00    -0.349 N 
HETATM   15  H   UNL     1      -3.886   5.215 -33.057  1.00  0.00     0.163 HD
HETATM   16  O   UNL     1      -2.930   2.802 -31.228  1.00  0.00    -0.268 OA
BRANCH  14  17
HETATM   17  C   UNL     1      -1.835   4.669 -33.020  1.00  0.00     0.114 C 
HETATM   18  C   UNL     1      -1.708   5.095 -34.486  1.00  0.00     0.037 C 
BRANCH  17  19
HETATM   19  C   UNL     1      -1.104   5.566 -32.039  1.00  0.00    -0.033 A 
HETATM   20  C   UNL     1      -1.587   6.816 -31.643  1.00  0.00     0.028 A 
HETATM   21  C   UNL     1      -0.862   7.550 -30.714  1.00  0.00     0.116 A 
HETATM   22  N   UNL     1       0.283   7.124 -30.143  1.00  0.00    -0.273 NA
HETATM   23  C   UNL     1       0.730   5.910 -30.525  1.00  0.00     0.116 A 
HETATM   24  C   UNL     1       0.081   5.107 -31.449  1.00  0.00     0.028 A 
ENDBRANCH  17  19
ENDBRANCH  14  17
ENDBRANCH   9  13
BRANCH   3  25
HETATM   25  C   UNL     1      -6.000  -0.565 -33.301  1.00  0.00    -0.002 A 
HETATM   26  C   UNL     1      -6.579  -1.115 -34.450  1.00  0.00     0.014 A 
HETATM   27  C   UNL     1      -6.003  -2.229 -35.063  1.00  0.00     0.001 A 
HETATM   28  C   UNL     1      -4.839  -2.793 -34.541  1.00  0.00     0.000 A 
HETATM   29  C   UNL     1      -4.248  -2.243 -33.405  1.00  0.00     0.001 A 
HETATM   30  C   UNL     1      -4.824  -1.132 -32.787  1.00  0.00     0.014 A 
ENDBRANCH   3  25
TORSDOF 4
ENDMDL
MODEL 4
REMARK VINA RESULT:      -9.0      2.905      6.313
REMARK  4 active torsions:
REMARK  status: ('A' for Active; 'I' for Inactive)
REMARK    1  A    between atoms: C_3  and  C_4 
REMARK    2  A    between atoms: C_15  and  C_16 
REMARK       I    between atoms: C_16  and  N_17 
REMARK    3  A    between atoms: N_17  and  C_18 
REMARK    4  A    between atoms: C_18  and  C_19 
ROOT
HETATM    1  C   UNL     1     -10.821   1.366 -33.789  1.00  0.00     0.055 C 
HETATM    2  C   UNL     1      -9.895   2.163 -32.920  1.00  0.00     0.024 A 
HETATM    3  C   UNL     1      -8.571   1.984 -32.762  1.00  0.00     0.096 A 
HETATM    4  O   UNL     1      -7.745   2.779 -31.991  1.00  0.00    -0.307 OA
HETATM    5  C   UNL     1      -8.281   3.815 -31.268  1.00  0.00     0.106 A 
HETATM    6  C   UNL     1      -9.651   4.083 -31.300  1.00  0.00     0.050 A 
HETATM    7  C   UNL     1     -10.525   3.272 -32.162  1.00  0.00     0.193 A 
HETATM    8  O   UNL     1     -11.726   3.504 -32.240  1.00  0.00    -0.287 OA
HETATM    9  C   UNL     1      -7.438   4.611 -30.474  1.00  0.00     0.066 A 
HETATM   10  C   UNL     1      -8.008   5.639 -29.698  1.00  0.00     0.020 A 
HETATM   11  C   UNL     1      -9.380   5.888 -29.723  1.00  0.00     0.002 A 
HETATM   12  C   UNL     1     -10.204   5.114 -30.532  1.00  0.00     0.018 A 
ENDROOT
BRANCH   9  13
HETATM   13  C   UNL     1      -5.947   4.475 -30.402  1.00  0.00     0.255 C 
HETATM   14  N   UNL     1      -5.301   3.860 -31.447  1.00  0.00    -0.349 N 
HETATM   15  H   UNL     1      -5.839   3.439 -32.194  1.00  0.00     0.163 HD
HETATM   16  O   UNL     1      -5.337   4.941 -29.443  1.00  0.00    -0.268 OA
BRANCH  14  17
HETATM   17  C   UNL     1      -3.854   3.742 -31.506  1.00  0.00     0.114 C 
HETATM   18  C   UNL     1      -3.410   2.299 -31.251  1.00  0.00     0.037 C 
BRANCH  17  19
HETATM   19  C   UNL     1      -3.368   4.326 -32.820  1.00  0.00    -0.033 A 
HETATM   20  C   UNL     1      -4.230   4.688 -33.859  1.00  0.00     0.028 A 
HETATM   21  C   UNL     1      -3.693   5.245 -35.011  1.00  0.00     0.116 A 
HETATM   22  N   UNL     1      -2.379   5.487 -35.190  1.00  0.00    -0.273 NA
HETATM   23  C   UNL     1      -1.560   5.145 -34.175  1.00  0.00     0.116 A 
HETATM   24  C   UNL     1      -2.000   4.576 -32.989  1.00  0.00     0.028 A 
ENDBRANCH  17  19
ENDBRANCH  14  17
ENDBRANCH   9  13
BRANCH   3  25
HETATM   25  C   UNL     1      -7.841   0.885 -33.410  1.00  0.00    -0.002 A 
HETATM   26  C   UNL     1      -7.740   0.825 -34.804  1.00  0.00     0.014 A 
HETATM   27  C   UNL     1      -7.057  -0.228 -35.415  1.00  0.00     0.001 A 
HETATM   28  C   UNL     1      -6.461  -1.221 -34.638  1.00  0.00     0.000 A 
HETATM   29  C   UNL     1      -6.545  -1.161 -33.248  1.00  0.00     0.001 A 
HETATM   30  C   UNL     1      -7.230  -0.112 -32.635  1.00  0.00     0.014 A 
ENDBRANCH   3  25
TORSDOF 4
ENDMDL
MODEL 5
REMARK VINA RESULT:      -9.0      2.501      6.292
REMARK  4 active torsions:
REMARK  status: ('A' for Active; 'I' for Inactive)
REMARK    1  A    between atoms: C_3  and  C_4 
REMARK    2  A    between atoms: C_15  and  C_16 
REMARK       I    between atoms: C_16  and  N_17 
REMARK    3  A    between atoms: N_17  and  C_18 
REMARK    4  A    between atoms: C_18  and  C_19 
ROOT
HETATM    1  C   UNL     1      -2.433   0.321 -30.809  1.00  0.00     0.055 C 
HETATM    2  C   UNL     1      -3.585   0.003 -31.714  1.00  0.00     0.024 A 
HETATM    3  C   UNL     1      -4.611   0.809 -32.039  1.00  0.00     0.096 A 
HETATM    4  O   UNL     1      -5.626   0.492 -32.924  1.00  0.00    -0.307 OA
HETATM    5  C   UNL     1      -5.659  -0.753 -33.499  1.00  0.00     0.106 A 
HETATM    6  C   UNL     1      -4.682  -1.708 -33.210  1.00  0.00     0.050 A 
HETATM    7  C   UNL     1      -3.572  -1.355 -32.311  1.00  0.00     0.193 A 
HETATM    8  O   UNL     1      -2.680  -2.158 -32.064  1.00  0.00    -0.287 OA
HETATM    9  C   UNL     1      -6.701  -1.075 -34.385  1.00  0.00     0.066 A 
HETATM   10  C   UNL     1      -6.752  -2.373 -34.930  1.00  0.00     0.020 A 
HETATM   11  C   UNL     1      -5.782  -3.326 -34.621  1.00  0.00     0.002 A 
HETATM   12  C   UNL     1      -4.739  -2.991 -33.765  1.00  0.00     0.018 A 
ENDROOT
BRANCH   9  13
HETATM   13  C   UNL     1      -7.771  -0.126 -34.833  1.00  0.00     0.255 C 
HETATM   14  N   UNL     1      -8.709   0.276 -33.912  1.00  0.00    -0.349 N 
HETATM   15  H   UNL     1      -8.714  -0.135 -32.986  1.00  0.00     0.163 HD
HETATM   16  O   UNL     1      -7.769   0.295 -35.987  1.00  0.00    -0.268 OA
BRANCH  14  17
HETATM   17  C   UNL     1      -9.743   1.246 -34.227  1.00  0.00     0.114 C 
HETATM   18  C   UNL     1     -11.046   0.919 -33.492  1.00  0.00     0.037 C 
BRANCH  17  19
HETATM   19  C   UNL     1      -9.205   2.640 -33.962  1.00  0.00    -0.033 A 
HETATM   20  C   UNL     1      -8.060   2.882 -33.197  1.00  0.00     0.028 A 
HETATM   21  C   UNL     1      -7.627   4.191 -33.038  1.00  0.00     0.116 A 
HETATM   22  N   UNL     1      -8.231   5.259 -33.597  1.00  0.00    -0.273 NA
HETATM   23  C   UNL     1      -9.326   5.009 -34.342  1.00  0.00     0.116 A 
HETATM   24  C   UNL     1      -9.840   3.739 -34.554  1.00  0.00     0.028 A 
ENDBRANCH  17  19
ENDBRANCH  14  17
ENDBRANCH   9  13
BRANCH   3  25
HETATM   25  C   UNL     1      -4.771   2.154 -31.469  1.00  0.00    -0.002 A 
HETATM   26  C   UNL     1      -5.581   2.357 -30.346  1.00  0.00     0.014 A 
HETATM   27  C   UNL     1      -5.740   3.639 -29.817  1.00  0.00     0.001 A 
HETATM   28  C   UNL     1      -5.082   4.724 -30.397  1.00  0.00     0.000 A 
HETATM   29  C   UNL     1      -4.262   4.528 -31.507  1.00  0.00     0.001 A 
HETATM   30  C   UNL     1      -4.105   3.248 -32.041  1.00  0.00     0.014 A 
ENDBRANCH   3  25
TORSDOF 4
ENDMDL
MODEL 6
REMARK VINA RESULT:      -9.0      3.032      7.795
REMARK  4 active torsions:
REMARK  status: ('A' for Active; 'I' for Inactive)
REMARK    1  A    between atoms: C_3  and  C_4 
REMARK    2  A    between atoms: C_15  and  C_16 
REMARK       I    between atoms: C_16  and  N_17 
REMARK    3  A    between atoms: N_17  and  C_18 
REMARK    4  A    between atoms: C_18  and  C_19 
ROOT
HETATM    1  C   UNL     1      -2.889  -1.876 -31.978  1.00  0.00     0.055 C 
HETATM    2  C   UNL     1      -3.930  -0.881 -32.397  1.00  0.00     0.024 A 
HETATM    3  C   UNL     1      -4.998  -1.103 -33.184  1.00  0.00     0.096 A 
HETATM    4  O   UNL     1      -5.964  -0.166 -33.501  1.00  0.00    -0.307 OA
HETATM    5  C   UNL     1      -5.837   1.121 -33.042  1.00  0.00     0.106 A 
HETATM    6  C   UNL     1      -4.748   1.502 -32.257  1.00  0.00     0.050 A 
HETATM    7  C   UNL     1      -3.746   0.494 -31.873  1.00  0.00     0.193 A 
HETATM    8  O   UNL     1      -2.797   0.788 -31.155  1.00  0.00    -0.287 OA
HETATM    9  C   UNL     1      -6.813   2.073 -33.381  1.00  0.00     0.066 A 
HETATM   10  C   UNL     1      -6.646   3.402 -32.946  1.00  0.00     0.020 A 
HETATM   11  C   UNL     1      -5.545   3.777 -32.176  1.00  0.00     0.002 A 
HETATM   12  C   UNL     1      -4.597   2.824 -31.823  1.00  0.00     0.018 A 
ENDROOT
BRANCH   9  13
HETATM   13  C   UNL     1      -8.063   1.782 -34.157  1.00  0.00     0.255 C 
HETATM   14  N   UNL     1      -9.204   2.476 -33.832  1.00  0.00    -0.349 N 
HETATM   15  H   UNL     1      -9.205   3.097 -33.032  1.00  0.00     0.163 HD
HETATM   16  O   UNL     1      -8.034   0.970 -35.078  1.00  0.00    -0.268 OA
BRANCH  14  17
HETATM   17  C   UNL     1     -10.446   2.320 -34.568  1.00  0.00     0.114 C 
HETATM   18  C   UNL     1     -11.432   1.435 -33.801  1.00  0.00     0.037 C 
BRANCH  17  19
HETATM   19  C   UNL     1     -10.981   3.694 -34.924  1.00  0.00    -0.033 A 
HETATM   20  C   UNL     1     -12.333   3.944 -35.178  1.00  0.00     0.028 A 
HETATM   21  C   UNL     1     -12.731   5.242 -35.464  1.00  0.00     0.116 A 
HETATM   22  N   UNL     1     -11.894   6.300 -35.492  1.00  0.00    -0.273 NA
HETATM   23  C   UNL     1     -10.596   6.046 -35.232  1.00  0.00     0.116 A 
HETATM   24  C   UNL     1     -10.100   4.784 -34.944  1.00  0.00     0.028 A 
ENDBRANCH  17  19
ENDBRANCH  14  17
ENDBRANCH   9  13
BRANCH   3  25
HETATM   25  C   UNL     1      -5.258  -2.406 -33.814  1.00  0.00    -0.002 A 
HETATM   26  C   UNL     1      -6.502  -2.677 -34.394  1.00  0.00     0.014 A 
HETATM   27  C   UNL     1      -6.748  -3.922 -34.978  1.00  0.00     0.001 A 
HETATM   28  C   UNL     1      -5.751  -4.897 -34.997  1.00  0.00     0.000 A 
HETATM   29  C   UNL     1      -4.505  -4.629 -34.433  1.00  0.00     0.001 A 
HETATM   30  C   UNL     1      -4.257  -3.388 -33.844  1.00  0.00     0.014 A 
ENDBRANCH   3  25
TORSDOF 4
ENDMDL
MODEL 7
REMARK VINA RESULT:      -8.9      2.952      6.695
REMARK  4 active torsions:
REMARK  status: ('A' for Active; 'I' for Inactive)
REMARK    1  A    between atoms: C_3  and  C_4 
REMARK    2  A    between atoms: C_15  and  C_16 
REMARK       I    between atoms: C_16  and  N_17 
REMARK    3  A    between atoms: N_17  and  C_18 
REMARK    4  A    between atoms: C_18  and  C_19 
ROOT
HETATM    1  C   UNL     1      -3.282   0.809 -32.377  1.00  0.00     0.055 C 
HETATM    2  C   UNL     1      -4.168   2.017 -32.299  1.00  0.00     0.024 A 
HETATM    3  C   UNL     1      -5.436   2.126 -32.734  1.00  0.00     0.096 A 
HETATM    4  O   UNL     1      -6.234   3.246 -32.592  1.00  0.00    -0.307 OA
HETATM    5  C   UNL     1      -5.719   4.378 -32.013  1.00  0.00     0.106 A 
HETATM    6  C   UNL     1      -4.398   4.420 -31.562  1.00  0.00     0.050 A 
HETATM    7  C   UNL     1      -3.562   3.213 -31.664  1.00  0.00     0.193 A 
HETATM    8  O   UNL     1      -2.410   3.206 -31.244  1.00  0.00    -0.287 OA
HETATM    9  C   UNL     1      -6.531   5.517 -31.886  1.00  0.00     0.066 A 
HETATM   10  C   UNL     1      -5.975   6.689 -31.336  1.00  0.00     0.020 A 
HETATM   11  C   UNL     1      -4.650   6.727 -30.904  1.00  0.00     0.002 A 
HETATM   12  C   UNL     1      -3.861   5.587 -31.009  1.00  0.00     0.018 A 
ENDROOT
BRANCH   9  13
HETATM   13  C   UNL     1      -7.980   5.587 -32.265  1.00  0.00     0.255 C 
HETATM   14  N   UNL     1      -8.392   4.893 -33.378  1.00  0.00    -0.349 N 
HETATM   15  H   UNL     1      -7.709   4.427 -33.962  1.00  0.00     0.163 HD
HETATM   16  O   UNL     1      -8.764   6.221 -31.565  1.00  0.00    -0.268 OA
BRANCH  14  17
HETATM   17  C   UNL     1      -9.784   4.839 -33.788  1.00  0.00     0.114 C 
HETATM   18  C   UNL     1      -9.989   5.545 -35.132  1.00  0.00     0.037 C 
BRANCH  17  19
HETATM   19  C   UNL     1     -10.247   3.394 -33.762  1.00  0.00    -0.033 A 
HETATM   20  C   UNL     1      -9.614   2.404 -33.003  1.00  0.00     0.028 A 
HETATM   21  C   UNL     1     -10.131   1.117 -33.018  1.00  0.00     0.116 A 
HETATM   22  N   UNL     1     -11.232   0.753 -33.708  1.00  0.00    -0.273 NA
HETATM   23  C   UNL     1     -11.839   1.721 -34.424  1.00  0.00     0.116 A 
HETATM   24  C   UNL     1     -11.395   3.033 -34.479  1.00  0.00     0.028 A 
ENDBRANCH  17  19
ENDBRANCH  14  17
ENDBRANCH   9  13
BRANCH   3  25
HETATM   25  C   UNL     1      -6.127   1.034 -33.434  1.00  0.00    -0.002 A 
HETATM   26  C   UNL     1      -6.293  -0.211 -32.816  1.00  0.00     0.014 A 
HETATM   27  C   UNL     1      -6.938  -1.249 -33.491  1.00  0.00     0.001 A 
HETATM   28  C   UNL     1      -7.431  -1.049 -34.779  1.00  0.00     0.000 A 
HETATM   29  C   UNL     1      -7.282   0.192 -35.396  1.00  0.00     0.001 A 
HETATM   30  C   UNL     1      -6.634   1.231 -34.726  1.00  0.00     0.014 A 
ENDBRANCH   3  25
TORSDOF 4
ENDMDL
MODEL 8
REMARK VINA RESULT:      -8.7      2.568      6.920
REMARK  4 active torsions:
REMARK  status: ('A' for Active; 'I' for Inactive)
REMARK    1  A    between atoms: C_3  and  C_4 
REMARK    2  A    between atoms: C_15  and  C_16 
REMARK       I    between atoms: C_16  and  N_17 
REMARK    3  A    between atoms: N_17  and  C_18 
REMARK    4  A    between atoms: C_18  and  C_19 
ROOT
HETATM    1  C   UNL     1      -9.808   0.334 -33.136  1.00  0.00     0.055 C 
HETATM    2  C   UNL     1      -8.324   0.484 -32.977  1.00  0.00     0.024 A 
HETATM    3  C   UNL     1      -7.662   1.543 -32.477  1.00  0.00     0.096 A 
HETATM    4  O   UNL     1      -6.293   1.616 -32.298  1.00  0.00    -0.307 OA
HETATM    5  C   UNL     1      -5.500   0.570 -32.697  1.00  0.00     0.106 A 
HETATM    6  C   UNL     1      -6.052  -0.572 -33.280  1.00  0.00     0.050 A 
HETATM    7  C   UNL     1      -7.513  -0.675 -33.422  1.00  0.00     0.193 A 
HETATM    8  O   UNL     1      -8.032  -1.679 -33.897  1.00  0.00    -0.287 OA
HETATM    9  C   UNL     1      -4.108   0.657 -32.527  1.00  0.00     0.066 A 
HETATM   10  C   UNL     1      -3.301  -0.402 -32.986  1.00  0.00     0.020 A 
HETATM   11  C   UNL     1      -3.860  -1.532 -33.583  1.00  0.00     0.002 A 
HETATM   12  C   UNL     1      -5.240  -1.622 -33.723  1.00  0.00     0.018 A 
ENDROOT
BRANCH   9  13
HETATM   13  C   UNL     1      -3.394   1.791 -31.856  1.00  0.00     0.255 C 
HETATM   14  N   UNL     1      -3.648   3.068 -32.297  1.00  0.00    -0.349 N 
HETATM   15  H   UNL     1      -4.235   3.213 -33.109  1.00  0.00     0.163 HD
HETATM   16  O   UNL     1      -2.635   1.565 -30.918  1.00  0.00    -0.268 OA
BRANCH  14  17
HETATM   17  C   UNL     1      -3.062   4.239 -31.669  1.00  0.00     0.114 C 
HETATM   18  C   UNL     1      -1.985   4.861 -32.562  1.00  0.00     0.037 C 
BRANCH  17  19
HETATM   19  C   UNL     1      -4.175   5.191 -31.271  1.00  0.00    -0.033 A 
HETATM   20  C   UNL     1      -4.274   6.496 -31.762  1.00  0.00     0.028 A 
HETATM   21  C   UNL     1      -5.347   7.280 -31.365  1.00  0.00     0.116 A 
HETATM   22  N   UNL     1      -6.329   6.857 -30.543  1.00  0.00    -0.273 NA
HETATM   23  C   UNL     1      -6.227   5.592 -30.087  1.00  0.00     0.116 A 
HETATM   24  C   UNL     1      -5.190   4.734 -30.420  1.00  0.00     0.028 A 
ENDBRANCH  17  19
ENDBRANCH  14  17
ENDBRANCH   9  13
BRANCH   3  25
HETATM   25  C   UNL     1      -8.345   2.776 -32.058  1.00  0.00    -0.002 A 
HETATM   26  C   UNL     1      -8.984   2.845 -30.815  1.00  0.00     0.014 A 
HETATM   27  C   UNL     1      -9.643   4.013 -30.428  1.00  0.00     0.001 A 
HETATM   28  C   UNL     1      -9.659   5.122 -31.273  1.00  0.00     0.000 A 
HETATM   29  C   UNL     1      -9.013   5.066 -32.507  1.00  0.00     0.001 A 
HETATM   30  C   UNL     1      -8.357   3.898 -32.899  1.00  0.00     0.014 A 
ENDBRANCH   3  25
TORSDOF 4
ENDMDL
MODEL 9
REMARK VINA RESULT:      -8.7      2.574      6.929
REMARK  4 active torsions:
REMARK  status: ('A' for Active; 'I' for Inactive)
REMARK    1  A    between atoms: C_3  and  C_4 
REMARK    2  A    between atoms: C_15  and  C_16 
REMARK       I    between atoms: C_16  and  N_17 
REMARK    3  A    between atoms: N_17  and  C_18 
REMARK    4  A    between atoms: C_18  and  C_19 
ROOT
HETATM    1  C   UNL     1      -9.914   0.664 -33.076  1.00  0.00     0.055 C 
HETATM    2  C   UNL     1      -8.422   0.725 -32.940  1.00  0.00     0.024 A 
HETATM    3  C   UNL     1      -7.691   1.740 -32.444  1.00  0.00     0.096 A 
HETATM    4  O   UNL     1      -6.318   1.730 -32.286  1.00  0.00    -0.307 OA
HETATM    5  C   UNL     1      -5.594   0.642 -32.703  1.00  0.00     0.106 A 
HETATM    6  C   UNL     1      -6.222  -0.462 -33.283  1.00  0.00     0.050 A 
HETATM    7  C   UNL     1      -7.689  -0.477 -33.404  1.00  0.00     0.193 A 
HETATM    8  O   UNL     1      -8.273  -1.446 -33.876  1.00  0.00    -0.287 OA
HETATM    9  C   UNL     1      -4.197   0.645 -32.554  1.00  0.00     0.066 A 
HETATM   10  C   UNL     1      -3.461  -0.457 -33.032  1.00  0.00     0.020 A 
HETATM   11  C   UNL     1      -4.096  -1.548 -33.626  1.00  0.00     0.002 A 
HETATM   12  C   UNL     1      -5.480  -1.555 -33.745  1.00  0.00     0.018 A 
ENDROOT
BRANCH   9  13
HETATM   13  C   UNL     1      -3.407   1.731 -31.889  1.00  0.00     0.255 C 
HETATM   14  N   UNL     1      -3.542   3.014 -32.363  1.00  0.00    -0.349 N 
HETATM   15  H   UNL     1      -4.095   3.189 -33.193  1.00  0.00     0.163 HD
HETATM   16  O   UNL     1      -2.693   1.464 -30.926  1.00  0.00    -0.268 OA
BRANCH  14  17
HETATM   17  C   UNL     1      -2.874   4.146 -31.744  1.00  0.00     0.114 C 
HETATM   18  C   UNL     1      -1.792   4.717 -32.664  1.00  0.00     0.037 C 
BRANCH  17  19
HETATM   19  C   UNL     1      -3.922   5.153 -31.306  1.00  0.00    -0.033 A 
HETATM   20  C   UNL     1      -5.055   4.802 -30.565  1.00  0.00     0.028 A 
HETATM   21  C   UNL     1      -5.940   5.799 -30.184  1.00  0.00     0.116 A 
HETATM   22  N   UNL     1      -5.769   7.108 -30.463  1.00  0.00    -0.273 NA
HETATM   23  C   UNL     1      -4.666   7.433 -31.167  1.00  0.00     0.116 A 
HETATM   24  C   UNL     1      -3.728   6.509 -31.599  1.00  0.00     0.028 A 
ENDBRANCH  17  19
ENDBRANCH  14  17
ENDBRANCH   9  13
BRANCH   3  25
HETATM   25  C   UNL     1      -8.294   3.008 -32.007  1.00  0.00    -0.002 A 
HETATM   26  C   UNL     1      -8.344   4.105 -32.875  1.00  0.00     0.014 A 
HETATM   27  C   UNL     1      -8.904   5.311 -32.450  1.00  0.00     0.001 A 
HETATM   28  C   UNL     1      -9.428   5.425 -31.163  1.00  0.00     0.000 A 
HETATM   29  C   UNL     1      -9.394   4.333 -30.298  1.00  0.00     0.001 A 
HETATM   30  C   UNL     1      -8.831   3.128 -30.718  1.00  0.00     0.014 A 
ENDBRANCH   3  25
TORSDOF 4
ENDMDL
MODEL 10
REMARK VINA RESULT:      -8.6      2.171      3.078
REMARK  4 active torsions:
REMARK  status: ('A' for Active; 'I' for Inactive)
REMARK    1  A    between atoms: C_3  and  C_4 
REMARK    2  A    between atoms: C_15  and  C_16 
REMARK       I    between atoms: C_16  and  N_17 
REMARK    3  A    between atoms: N_17  and  C_18 
REMARK    4  A    between atoms: C_18  and  C_19 
ROOT
HETATM    1  C   UNL     1      -6.859   6.948 -32.359  1.00  0.00     0.055 C 
HETATM    2  C   UNL     1      -7.525   5.625 -32.592  1.00  0.00     0.024 A 
HETATM    3  C   UNL     1      -6.933   4.420 -32.684  1.00  0.00     0.096 A 
HETATM    4  O   UNL     1      -7.594   3.217 -32.845  1.00  0.00    -0.307 OA
HETATM    5  C   UNL     1      -8.960   3.205 -32.980  1.00  0.00     0.106 A 
HETATM    6  C   UNL     1      -9.697   4.391 -32.954  1.00  0.00     0.050 A 
HETATM    7  C   UNL     1      -9.001   5.668 -32.729  1.00  0.00     0.193 A 
HETATM    8  O   UNL     1      -9.623   6.723 -32.665  1.00  0.00    -0.287 OA
HETATM    9  C   UNL     1      -9.624   1.981 -33.159  1.00  0.00     0.066 A 
HETATM   10  C   UNL     1     -11.021   1.987 -33.347  1.00  0.00     0.020 A 
HETATM   11  C   UNL     1     -11.746   3.178 -33.337  1.00  0.00     0.002 A 
HETATM   12  C   UNL     1     -11.085   4.383 -33.132  1.00  0.00     0.018 A 
ENDROOT
BRANCH   9  13
HETATM   13  C   UNL     1      -8.965   0.635 -33.138  1.00  0.00     0.255 C 
HETATM   14  N   UNL     1      -7.662   0.545 -33.565  1.00  0.00    -0.349 N 
HETATM   15  H   UNL     1      -7.204   1.357 -33.962  1.00  0.00     0.163 HD
HETATM   16  O   UNL     1      -9.580  -0.339 -32.713  1.00  0.00    -0.268 OA
BRANCH  14  17
HETATM   17  C   UNL     1      -6.912  -0.698 -33.518  1.00  0.00     0.114 C 
HETATM   18  C   UNL     1      -6.680  -1.254 -34.926  1.00  0.00     0.037 C 
BRANCH  17  19
HETATM   19  C   UNL     1      -5.645  -0.476 -32.714  1.00  0.00    -0.033 A 
HETATM   20  C   UNL     1      -5.651  -0.040 -31.385  1.00  0.00     0.028 A 
HETATM   21  C   UNL     1      -4.441   0.103 -30.722  1.00  0.00     0.116 A 
HETATM   22  N   UNL     1      -3.241  -0.175 -31.272  1.00  0.00    -0.273 NA
HETATM   23  C   UNL     1      -3.251  -0.607 -32.549  1.00  0.00     0.116 A 
HETATM   24  C   UNL     1      -4.406  -0.775 -33.297  1.00  0.00     0.028 A 
ENDBRANCH  17  19
ENDBRANCH  14  17
ENDBRANCH   9  13
BRANCH   3  25
HETATM   25  C   UNL     1      -5.474   4.251 -32.625  1.00  0.00    -0.002 A 
HETATM   26  C   UNL     1      -4.868   3.715 -31.484  1.00  0.00     0.014 A 
HETATM   27  C   UNL     1      -3.481   3.569 -31.428  1.00  0.00     0.001 A 
HETATM   28  C   UNL     1      -2.692   3.946 -32.514  1.00  0.00     0.000 A 
HETATM   29  C   UNL     1      -3.289   4.468 -33.660  1.00  0.00     0.001 A 
HETATM   30  C   UNL     1      -4.675   4.619 -33.717  1.00  0.00     0.014 A 
ENDBRANCH   3  25
TORSDOF 4
ENDMDL
