MODEL 1
REMARK VINA RESULT:      -7.9      0.000      0.000
REMARK  8 active torsions:
REMARK  status: ('A' for Active; 'I' for Inactive)
REMARK    1  A    between atoms: C_4  and  N_5 
REMARK    2  A    between atoms: N_8  and  C_10 
REMARK    3  A    between atoms: C_10  and  C_11 
REMARK    4  A    between atoms: C_11  and  C_12 
REMARK       I    between atoms: C_12  and  N_13 
REMARK    5  A    between atoms: N_13  and  N_14 
REMARK    6  A    between atoms: N_14  and  C_15 
REMARK    7  A    between atoms: C_15  and  N_16 
REMARK    8  A    between atoms: N_16  and  C_17 
ROOT
HETATM    1  C   UNL     1      -5.782   2.973 -30.905  1.00  0.00     0.237 C 
HETATM    2  N   UNL     1      -6.532   3.585 -31.876  1.00  0.00    -0.268 N 
HETATM    3  O   UNL     1      -4.596   3.245 -30.745  1.00  0.00    -0.272 OA
HETATM    4  H   UNL     1      -6.031   4.110 -32.597  1.00  0.00     0.190 HD
ENDROOT
BRANCH   1   5
HETATM    5  C   UNL     1      -6.484   2.021 -29.966  1.00  0.00     0.132 C 
BRANCH   5   6
HETATM    6  C   UNL     1      -5.908   0.632 -30.166  1.00  0.00     0.244 C 
BRANCH   6   7
HETATM    7  N   UNL     1      -5.354   0.444 -31.566  1.00  0.00    -0.068 N 
HETATM    8  C   UNL     1      -4.099  -0.447 -31.533  1.00  0.00     0.254 C 
HETATM    9  C   UNL     1      -3.517  -0.640 -32.949  1.00  0.00     0.150 C 
HETATM   10  N   UNL     1      -4.541  -1.129 -33.888  1.00  0.00    -0.378 N 
HETATM   11  C   UNL     1      -5.740  -0.270 -33.964  1.00  0.00     0.150 C 
HETATM   12  C   UNL     1      -6.379  -0.111 -32.568  1.00  0.00     0.254 C 
HETATM   13  H   UNL     1      -5.050   1.363 -31.916  1.00  0.00     0.280 HD
BRANCH  10  14
HETATM   14  C   UNL     1      -4.725  -2.497 -34.105  1.00  0.00     0.030 A 
HETATM   15  C   UNL     1      -3.832  -3.480 -33.653  1.00  0.00     0.029 A 
HETATM   16  C   UNL     1      -4.051  -4.843 -33.894  1.00  0.00     0.002 A 
HETATM   17  C   UNL     1      -5.165  -5.259 -34.613  1.00  0.00     0.000 A 
HETATM   18  C   UNL     1      -6.052  -4.309 -35.100  1.00  0.00     0.002 A 
HETATM   19  C   UNL     1      -5.828  -2.950 -34.851  1.00  0.00     0.029 A 
ENDBRANCH  10  14
ENDBRANCH   6   7
ENDBRANCH   5   6
ENDBRANCH   1   5
BRANCH   2  20
HETATM   20  N   UNL     1      -7.862   3.222 -32.139  1.00  0.00    -0.274 N 
HETATM   21  H   UNL     1      -8.441   3.168 -31.304  1.00  0.00     0.189 HD
BRANCH  20  22
HETATM   22  C   UNL     1      -8.528   3.741 -33.219  1.00  0.00     0.191 C 
HETATM   23  S   UNL     1      -8.568   5.367 -33.623  1.00  0.00    -0.039 SA
BRANCH  22  24
HETATM   24  N   UNL     1      -9.086   2.864 -34.109  1.00  0.00    -0.331 N 
HETATM   25  H   UNL     1      -8.359   2.351 -34.602  1.00  0.00     0.168 HD
BRANCH  24  26
HETATM   26  C   UNL     1     -10.388   2.310 -34.207  1.00  0.00     0.056 A 
HETATM   27  C   UNL     1     -10.859   1.114 -33.637  1.00  0.00     0.060 A 
HETATM   28 CL   UNL     1      -9.962   0.174 -32.494  1.00  0.00    -0.082 Cl
HETATM   29  C   UNL     1     -12.169   0.676 -33.883  1.00  0.00     0.026 A 
HETATM   30  C   UNL     1     -13.035   1.436 -34.665  1.00  0.00     0.002 A 
HETATM   31  C   UNL     1     -12.605   2.652 -35.180  1.00  0.00     0.002 A 
HETATM   32  C   UNL     1     -11.299   3.091 -34.940  1.00  0.00     0.031 A 
ENDBRANCH  24  26
ENDBRANCH  22  24
ENDBRANCH  20  22
ENDBRANCH   2  20
TORSDOF 8
ENDMDL
MODEL 2
REMARK VINA RESULT:      -7.9      3.731      7.100
REMARK  8 active torsions:
REMARK  status: ('A' for Active; 'I' for Inactive)
REMARK    1  A    between atoms: C_4  and  N_5 
REMARK    2  A    between atoms: N_8  and  C_10 
REMARK    3  A    between atoms: C_10  and  C_11 
REMARK    4  A    between atoms: C_11  and  C_12 
REMARK       I    between atoms: C_12  and  N_13 
REMARK    5  A    between atoms: N_13  and  N_14 
REMARK    6  A    between atoms: N_14  and  C_15 
REMARK    7  A    between atoms: C_15  and  N_16 
REMARK    8  A    between atoms: N_16  and  C_17 
ROOT
HETATM    1  C   UNL     1      -9.400   2.808 -31.022  1.00  0.00     0.237 C 
HETATM    2  N   UNL     1      -9.229   1.449 -31.083  1.00  0.00    -0.268 N 
HETATM    3  O   UNL     1      -9.996   3.338 -30.088  1.00  0.00    -0.272 OA
HETATM    4  H   UNL     1      -9.790   0.875 -30.449  1.00  0.00     0.190 HD
ENDROOT
BRANCH   1   5
HETATM    5  C   UNL     1      -8.748   3.651 -32.092  1.00  0.00     0.132 C 
BRANCH   5   6
HETATM    6  C   UNL     1      -7.448   4.207 -31.546  1.00  0.00     0.244 C 
BRANCH   6   7
HETATM    7  N   UNL     1      -6.270   3.885 -32.447  1.00  0.00    -0.068 N 
HETATM    8  C   UNL     1      -5.972   5.068 -33.385  1.00  0.00     0.254 C 
HETATM    9  C   UNL     1      -4.782   4.753 -34.316  1.00  0.00     0.150 C 
HETATM   10  N   UNL     1      -3.602   4.318 -33.550  1.00  0.00    -0.378 N 
HETATM   11  C   UNL     1      -3.855   3.160 -32.670  1.00  0.00     0.150 C 
HETATM   12  C   UNL     1      -5.002   3.472 -31.684  1.00  0.00     0.254 C 
HETATM   13  H   UNL     1      -6.536   3.094 -33.050  1.00  0.00     0.280 HD
BRANCH  10  14
HETATM   14  C   UNL     1      -2.638   5.237 -33.128  1.00  0.00     0.030 A 
HETATM   15  C   UNL     1      -1.678   4.957 -32.144  1.00  0.00     0.029 A 
HETATM   16  C   UNL     1      -0.729   5.909 -31.746  1.00  0.00     0.002 A 
HETATM   17  C   UNL     1      -0.729   7.178 -32.311  1.00  0.00     0.000 A 
HETATM   18  C   UNL     1      -1.685   7.497 -33.266  1.00  0.00     0.002 A 
HETATM   19  C   UNL     1      -2.626   6.539 -33.661  1.00  0.00     0.029 A 
ENDBRANCH  10  14
ENDBRANCH   6   7
ENDBRANCH   5   6
ENDBRANCH   1   5
BRANCH   2  20
HETATM   20  N   UNL     1      -8.637   0.815 -32.186  1.00  0.00    -0.274 N 
HETATM   21  H   UNL     1      -8.881   1.239 -33.078  1.00  0.00     0.189 HD
BRANCH  20  22
HETATM   22  C   UNL     1      -7.332   0.395 -32.133  1.00  0.00     0.191 C 
HETATM   23  S   UNL     1      -6.479   0.114 -30.719  1.00  0.00    -0.039 SA
BRANCH  22  24
HETATM   24  N   UNL     1      -6.723   0.047 -33.308  1.00  0.00    -0.331 N 
HETATM   25  H   UNL     1      -6.400   0.879 -33.797  1.00  0.00     0.168 HD
BRANCH  24  26
HETATM   26  C   UNL     1      -6.171  -1.176 -33.766  1.00  0.00     0.056 A 
HETATM   27  C   UNL     1      -4.818  -1.561 -33.769  1.00  0.00     0.060 A 
HETATM   28 CL   UNL     1      -3.561  -0.665 -32.988  1.00  0.00    -0.082 Cl
HETATM   29  C   UNL     1      -4.431  -2.792 -34.318  1.00  0.00     0.026 A 
HETATM   30  C   UNL     1      -5.381  -3.668 -34.836  1.00  0.00     0.002 A 
HETATM   31  C   UNL     1      -6.727  -3.330 -34.780  1.00  0.00     0.002 A 
HETATM   32  C   UNL     1      -7.118  -2.102 -34.237  1.00  0.00     0.031 A 
ENDBRANCH  24  26
ENDBRANCH  22  24
ENDBRANCH  20  22
ENDBRANCH   2  20
TORSDOF 8
ENDMDL
MODEL 3
REMARK VINA RESULT:      -7.9      4.673      7.549
REMARK  8 active torsions:
REMARK  status: ('A' for Active; 'I' for Inactive)
REMARK    1  A    between atoms: C_4  and  N_5 
REMARK    2  A    between atoms: N_8  and  C_10 
REMARK    3  A    between atoms: C_10  and  C_11 
REMARK    4  A    between atoms: C_11  and  C_12 
REMARK       I    between atoms: C_12  and  N_13 
REMARK    5  A    between atoms: N_13  and  N_14 
REMARK    6  A    between atoms: N_14  and  C_15 
REMARK    7  A    between atoms: C_15  and  N_16 
REMARK    8  A    between atoms: N_16  and  C_17 
ROOT
HETATM    1  C   UNL     1      -3.979   2.505 -31.767  1.00  0.00     0.237 C 
HETATM    2  N   UNL     1      -3.011   3.400 -31.388  1.00  0.00    -0.268 N 
HETATM    3  O   UNL     1      -4.030   1.376 -31.288  1.00  0.00    -0.272 OA
HETATM    4  H   UNL     1      -2.213   3.036 -30.862  1.00  0.00     0.190 HD
ENDROOT
BRANCH   1   5
HETATM    5  C   UNL     1      -5.045   2.982 -32.724  1.00  0.00     0.132 C 
BRANCH   5   6
HETATM    6  C   UNL     1      -6.403   2.607 -32.161  1.00  0.00     0.244 C 
BRANCH   6   7
HETATM    7  N   UNL     1      -7.131   1.615 -33.049  1.00  0.00    -0.068 N 
HETATM    8  C   UNL     1      -6.321   1.345 -34.330  1.00  0.00     0.254 C 
HETATM    9  C   UNL     1      -7.053   0.345 -35.250  1.00  0.00     0.150 C 
HETATM   10  N   UNL     1      -7.409  -0.888 -34.527  1.00  0.00    -0.378 N 
HETATM   11  C   UNL     1      -8.217  -0.657 -33.314  1.00  0.00     0.150 C 
HETATM   12  C   UNL     1      -7.478   0.294 -32.346  1.00  0.00     0.254 C 
HETATM   13  H   UNL     1      -8.017   2.045 -33.349  1.00  0.00     0.280 HD
BRANCH  10  14
HETATM   14  C   UNL     1      -6.550  -1.990 -34.517  1.00  0.00     0.030 A 
HETATM   15  C   UNL     1      -6.977  -3.307 -34.740  1.00  0.00     0.029 A 
HETATM   16  C   UNL     1      -6.083  -4.387 -34.719  1.00  0.00     0.002 A 
HETATM   17  C   UNL     1      -4.735  -4.177 -34.453  1.00  0.00     0.000 A 
HETATM   18  C   UNL     1      -4.286  -2.889 -34.198  1.00  0.00     0.002 A 
HETATM   19  C   UNL     1      -5.185  -1.816 -34.226  1.00  0.00     0.029 A 
ENDBRANCH  10  14
ENDBRANCH   6   7
ENDBRANCH   5   6
ENDBRANCH   1   5
BRANCH   2  20
HETATM   20  N   UNL     1      -2.876   4.660 -31.991  1.00  0.00    -0.274 N 
HETATM   21  H   UNL     1      -3.114   5.434 -31.374  1.00  0.00     0.189 HD
BRANCH  20  22
HETATM   22  C   UNL     1      -1.808   4.934 -32.805  1.00  0.00     0.191 C 
HETATM   23  S   UNL     1      -1.889   5.058 -34.474  1.00  0.00    -0.039 SA
BRANCH  22  24
HETATM   24  N   UNL     1      -0.619   5.266 -32.213  1.00  0.00    -0.331 N 
HETATM   25  H   UNL     1       0.127   5.286 -32.905  1.00  0.00     0.168 HD
BRANCH  24  26
HETATM   26  C   UNL     1      -0.316   5.899 -30.981  1.00  0.00     0.056 A 
HETATM   27  C   UNL     1      -0.612   7.218 -30.596  1.00  0.00     0.060 A 
HETATM   28 CL   UNL     1      -1.624   8.284 -31.509  1.00  0.00    -0.082 Cl
HETATM   29  C   UNL     1      -0.184   7.710 -29.353  1.00  0.00     0.026 A 
HETATM   30  C   UNL     1       0.507   6.888 -28.466  1.00  0.00     0.002 A 
HETATM   31  C   UNL     1       0.748   5.563 -28.805  1.00  0.00     0.002 A 
HETATM   32  C   UNL     1       0.327   5.070 -30.044  1.00  0.00     0.031 A 
ENDBRANCH  24  26
ENDBRANCH  22  24
ENDBRANCH  20  22
ENDBRANCH   2  20
TORSDOF 8
ENDMDL
MODEL 4
REMARK VINA RESULT:      -7.9      3.114      4.926
REMARK  8 active torsions:
REMARK  status: ('A' for Active; 'I' for Inactive)
REMARK    1  A    between atoms: C_4  and  N_5 
REMARK    2  A    between atoms: N_8  and  C_10 
REMARK    3  A    between atoms: C_10  and  C_11 
REMARK    4  A    between atoms: C_11  and  C_12 
REMARK       I    between atoms: C_12  and  N_13 
REMARK    5  A    between atoms: N_13  and  N_14 
REMARK    6  A    between atoms: N_14  and  C_15 
REMARK    7  A    between atoms: C_15  and  N_16 
REMARK    8  A    between atoms: N_16  and  C_17 
ROOT
HETATM    1  C   UNL     1      -9.321   2.818 -32.848  1.00  0.00     0.237 C 
HETATM    2  N   UNL     1      -8.575   3.968 -32.894  1.00  0.00    -0.268 N 
HETATM    3  O   UNL     1      -9.912   2.398 -33.839  1.00  0.00    -0.272 OA
HETATM    4  H   UNL     1      -8.697   4.576 -33.706  1.00  0.00     0.190 HD
ENDROOT
BRANCH   1   5
HETATM    5  C   UNL     1      -9.316   2.024 -31.564  1.00  0.00     0.132 C 
BRANCH   5   6
HETATM    6  C   UNL     1      -8.945   0.588 -31.883  1.00  0.00     0.244 C 
BRANCH   6   7
HETATM    7  N   UNL     1      -7.769   0.506 -32.838  1.00  0.00    -0.068 N 
HETATM    8  C   UNL     1      -6.505   0.037 -32.094  1.00  0.00     0.254 C 
HETATM    9  C   UNL     1      -5.296  -0.043 -33.049  1.00  0.00     0.150 C 
HETATM   10  N   UNL     1      -5.600  -0.863 -34.234  1.00  0.00    -0.378 N 
HETATM   11  C   UNL     1      -6.788  -0.410 -34.985  1.00  0.00     0.150 C 
HETATM   12  C   UNL     1      -8.028  -0.381 -34.065  1.00  0.00     0.254 C 
HETATM   13  H   UNL     1      -7.569   1.455 -33.183  1.00  0.00     0.280 HD
BRANCH  10  14
HETATM   14  C   UNL     1      -5.321  -2.232 -34.252  1.00  0.00     0.030 A 
HETATM   15  C   UNL     1      -4.127  -2.787 -33.766  1.00  0.00     0.029 A 
HETATM   16  C   UNL     1      -3.884  -4.167 -33.806  1.00  0.00     0.002 A 
HETATM   17  C   UNL     1      -4.826  -5.030 -34.354  1.00  0.00     0.000 A 
HETATM   18  C   UNL     1      -6.004  -4.510 -34.872  1.00  0.00     0.002 A 
HETATM   19  C   UNL     1      -6.240  -3.131 -34.824  1.00  0.00     0.029 A 
ENDBRANCH  10  14
ENDBRANCH   6   7
ENDBRANCH   5   6
ENDBRANCH   1   5
BRANCH   2  20
HETATM   20  N   UNL     1      -7.970   4.516 -31.753  1.00  0.00    -0.274 N 
HETATM   21  H   UNL     1      -8.461   4.301 -30.888  1.00  0.00     0.189 HD
BRANCH  20  22
HETATM   22  C   UNL     1      -6.606   4.504 -31.610  1.00  0.00     0.191 C 
HETATM   23  S   UNL     1      -5.782   5.094 -30.277  1.00  0.00    -0.039 SA
BRANCH  22  24
HETATM   24  N   UNL     1      -5.870   3.842 -32.555  1.00  0.00    -0.331 N 
HETATM   25  H   UNL     1      -6.441   3.139 -33.019  1.00  0.00     0.168 HD
BRANCH  24  26
HETATM   26  C   UNL     1      -4.660   4.171 -33.219  1.00  0.00     0.056 A 
HETATM   27  C   UNL     1      -3.347   3.896 -32.797  1.00  0.00     0.060 A 
HETATM   28 CL   UNL     1      -2.959   2.884 -31.449  1.00  0.00    -0.082 Cl
HETATM   29  C   UNL     1      -2.250   4.347 -33.549  1.00  0.00     0.026 A 
HETATM   30  C   UNL     1      -2.444   5.040 -34.741  1.00  0.00     0.002 A 
HETATM   31  C   UNL     1      -3.736   5.260 -35.203  1.00  0.00     0.002 A 
HETATM   32  C   UNL     1      -4.831   4.816 -34.456  1.00  0.00     0.031 A 
ENDBRANCH  24  26
ENDBRANCH  22  24
ENDBRANCH  20  22
ENDBRANCH   2  20
TORSDOF 8
ENDMDL
MODEL 5
REMARK VINA RESULT:      -7.7      4.281      7.729
REMARK  8 active torsions:
REMARK  status: ('A' for Active; 'I' for Inactive)
REMARK    1  A    between atoms: C_4  and  N_5 
REMARK    2  A    between atoms: N_8  and  C_10 
REMARK    3  A    between atoms: C_10  and  C_11 
REMARK    4  A    between atoms: C_11  and  C_12 
REMARK       I    between atoms: C_12  and  N_13 
REMARK    5  A    between atoms: N_13  and  N_14 
REMARK    6  A    between atoms: N_14  and  C_15 
REMARK    7  A    between atoms: C_15  and  N_16 
REMARK    8  A    between atoms: N_16  and  C_17 
ROOT
HETATM    1  C   UNL     1      -6.399   3.329 -29.846  1.00  0.00     0.237 C 
HETATM    2  N   UNL     1      -7.081   2.147 -29.717  1.00  0.00    -0.268 N 
HETATM    3  O   UNL     1      -6.755   4.342 -29.251  1.00  0.00    -0.272 OA
HETATM    4  H   UNL     1      -8.009   2.183 -29.288  1.00  0.00     0.190 HD
ENDROOT
BRANCH   1   5
HETATM    5  C   UNL     1      -5.132   3.327 -30.667  1.00  0.00     0.132 C 
BRANCH   5   6
HETATM    6  C   UNL     1      -5.356   4.175 -31.905  1.00  0.00     0.244 C 
BRANCH   6   7
HETATM    7  N   UNL     1      -4.074   4.833 -32.381  1.00  0.00    -0.068 N 
HETATM    8  C   UNL     1      -3.961   6.261 -31.816  1.00  0.00     0.254 C 
HETATM    9  C   UNL     1      -2.668   6.948 -32.300  1.00  0.00     0.150 C 
HETATM   10  N   UNL     1      -1.481   6.124 -32.014  1.00  0.00    -0.378 N 
HETATM   11  C   UNL     1      -1.552   4.761 -32.577  1.00  0.00     0.150 C 
HETATM   12  C   UNL     1      -2.807   4.027 -32.059  1.00  0.00     0.254 C 
HETATM   13  H   UNL     1      -4.125   4.928 -33.405  1.00  0.00     0.280 HD
BRANCH  10  14
HETATM   14  C   UNL     1      -0.764   6.284 -30.826  1.00  0.00     0.030 A 
HETATM   15  C   UNL     1      -0.015   5.258 -30.229  1.00  0.00     0.029 A 
HETATM   16  C   UNL     1       0.689   5.458 -29.033  1.00  0.00     0.002 A 
HETATM   17  C   UNL     1       0.647   6.689 -28.391  1.00  0.00     0.000 A 
HETATM   18  C   UNL     1      -0.110   7.715 -28.939  1.00  0.00     0.002 A 
HETATM   19  C   UNL     1      -0.806   7.509 -30.136  1.00  0.00     0.029 A 
ENDBRANCH  10  14
ENDBRANCH   6   7
ENDBRANCH   5   6
ENDBRANCH   1   5
BRANCH   2  20
HETATM   20  N   UNL     1      -6.749   1.003 -30.459  1.00  0.00    -0.274 N 
HETATM   21  H   UNL     1      -6.570   0.183 -29.884  1.00  0.00     0.189 HD
BRANCH  20  22
HETATM   22  C   UNL     1      -7.413   0.707 -31.622  1.00  0.00     0.191 C 
HETATM   23  S   UNL     1      -9.078   0.737 -31.803  1.00  0.00    -0.039 SA
BRANCH  22  24
HETATM   24  N   UNL     1      -6.667   0.507 -32.752  1.00  0.00    -0.331 N 
HETATM   25  H   UNL     1      -6.225   1.376 -33.042  1.00  0.00     0.168 HD
BRANCH  24  26
HETATM   26  C   UNL     1      -6.133  -0.667 -33.342  1.00  0.00     0.056 A 
HETATM   27  C   UNL     1      -4.790  -1.085 -33.363  1.00  0.00     0.060 A 
HETATM   28 CL   UNL     1      -3.530  -0.322 -32.455  1.00  0.00    -0.082 Cl
HETATM   29  C   UNL     1      -4.420  -2.253 -34.048  1.00  0.00     0.026 A 
HETATM   30  C   UNL     1      -5.379  -3.035 -34.685  1.00  0.00     0.002 A 
HETATM   31  C   UNL     1      -6.717  -2.670 -34.617  1.00  0.00     0.002 A 
HETATM   32  C   UNL     1      -7.091  -1.506 -33.939  1.00  0.00     0.031 A 
ENDBRANCH  24  26
ENDBRANCH  22  24
ENDBRANCH  20  22
ENDBRANCH   2  20
TORSDOF 8
ENDMDL
MODEL 6
REMARK VINA RESULT:      -7.7      6.059      9.239
REMARK  8 active torsions:
REMARK  status: ('A' for Active; 'I' for Inactive)
REMARK    1  A    between atoms: C_4  and  N_5 
REMARK    2  A    between atoms: N_8  and  C_10 
REMARK    3  A    between atoms: C_10  and  C_11 
REMARK    4  A    between atoms: C_11  and  C_12 
REMARK       I    between atoms: C_12  and  N_13 
REMARK    5  A    between atoms: N_13  and  N_14 
REMARK    6  A    between atoms: N_14  and  C_15 
REMARK    7  A    between atoms: C_15  and  N_16 
REMARK    8  A    between atoms: N_16  and  C_17 
ROOT
HETATM    1  C   UNL     1      -1.496   6.799 -33.367  1.00  0.00     0.237 C 
HETATM    2  N   UNL     1      -0.790   7.012 -32.211  1.00  0.00    -0.268 N 
HETATM    3  O   UNL     1      -1.540   7.645 -34.256  1.00  0.00    -0.272 OA
HETATM    4  H   UNL     1      -0.482   7.967 -32.016  1.00  0.00     0.190 HD
ENDROOT
BRANCH   1   5
HETATM    5  C   UNL     1      -2.143   5.448 -33.562  1.00  0.00     0.132 C 
BRANCH   5   6
HETATM    6  C   UNL     1      -3.618   5.654 -33.848  1.00  0.00     0.244 C 
BRANCH   6   7
HETATM    7  N   UNL     1      -4.493   4.760 -32.989  1.00  0.00    -0.068 N 
HETATM    8  C   UNL     1      -5.876   4.576 -33.640  1.00  0.00     0.254 C 
HETATM    9  C   UNL     1      -6.782   3.676 -32.774  1.00  0.00     0.150 C 
HETATM   10  N   UNL     1      -6.124   2.397 -32.457  1.00  0.00    -0.378 N 
HETATM   11  C   UNL     1      -4.811   2.548 -31.799  1.00  0.00     0.150 C 
HETATM   12  C   UNL     1      -3.862   3.394 -32.675  1.00  0.00     0.254 C 
HETATM   13  H   UNL     1      -4.654   5.237 -32.091  1.00  0.00     0.280 HD
BRANCH  10  14
HETATM   14  C   UNL     1      -6.301   1.276 -33.271  1.00  0.00     0.030 A 
HETATM   15  C   UNL     1      -6.903   1.325 -34.538  1.00  0.00     0.029 A 
HETATM   16  C   UNL     1      -7.065   0.175 -35.323  1.00  0.00     0.002 A 
HETATM   17  C   UNL     1      -6.644  -1.062 -34.851  1.00  0.00     0.000 A 
HETATM   18  C   UNL     1      -6.072  -1.150 -33.590  1.00  0.00     0.002 A 
HETATM   19  C   UNL     1      -5.910   0.004 -32.814  1.00  0.00     0.029 A 
ENDBRANCH  10  14
ENDBRANCH   6   7
ENDBRANCH   5   6
ENDBRANCH   1   5
BRANCH   2  20
HETATM   20  N   UNL     1      -0.804   6.100 -31.144  1.00  0.00    -0.274 N 
HETATM   21  H   UNL     1       0.086   5.630 -30.999  1.00  0.00     0.189 HD
BRANCH  20  22
HETATM   22  C   UNL     1      -1.446   6.406 -29.971  1.00  0.00     0.191 C 
HETATM   23  S   UNL     1      -3.064   6.821 -29.850  1.00  0.00    -0.039 SA
BRANCH  22  24
HETATM   24  N   UNL     1      -0.759   6.230 -28.801  1.00  0.00    -0.331 N 
HETATM   25  H   UNL     1      -0.394   5.282 -28.745  1.00  0.00     0.168 HD
BRANCH  24  26
HETATM   26  C   UNL     1      -0.186   7.152 -27.888  1.00  0.00     0.056 A 
HETATM   27  C   UNL     1      -0.632   7.467 -26.592  1.00  0.00     0.060 A 
HETATM   28 CL   UNL     1      -1.881   6.601 -25.765  1.00  0.00    -0.082 Cl
HETATM   29  C   UNL     1       0.020   8.454 -25.836  1.00  0.00     0.026 A 
HETATM   30  C   UNL     1       1.139   9.110 -26.342  1.00  0.00     0.002 A 
HETATM   31  C   UNL     1       1.630   8.762 -27.593  1.00  0.00     0.002 A 
HETATM   32  C   UNL     1       0.982   7.782 -28.351  1.00  0.00     0.031 A 
ENDBRANCH  24  26
ENDBRANCH  22  24
ENDBRANCH  20  22
ENDBRANCH   2  20
TORSDOF 8
ENDMDL
MODEL 7
REMARK VINA RESULT:      -7.7      4.846      8.147
REMARK  8 active torsions:
REMARK  status: ('A' for Active; 'I' for Inactive)
REMARK    1  A    between atoms: C_4  and  N_5 
REMARK    2  A    between atoms: N_8  and  C_10 
REMARK    3  A    between atoms: C_10  and  C_11 
REMARK    4  A    between atoms: C_11  and  C_12 
REMARK       I    between atoms: C_12  and  N_13 
REMARK    5  A    between atoms: N_13  and  N_14 
REMARK    6  A    between atoms: N_14  and  C_15 
REMARK    7  A    between atoms: C_15  and  N_16 
REMARK    8  A    between atoms: N_16  and  C_17 
ROOT
HETATM    1  C   UNL     1      -5.864   4.052 -33.758  1.00  0.00     0.237 C 
HETATM    2  N   UNL     1      -6.375   2.864 -33.302  1.00  0.00    -0.268 N 
HETATM    3  O   UNL     1      -6.585   4.907 -34.263  1.00  0.00    -0.272 OA
HETATM    4  H   UNL     1      -7.326   2.621 -33.586  1.00  0.00     0.190 HD
ENDROOT
BRANCH   1   5
HETATM    5  C   UNL     1      -4.395   4.322 -33.531  1.00  0.00     0.132 C 
BRANCH   5   6
HETATM    6  C   UNL     1      -3.897   5.239 -34.632  1.00  0.00     0.244 C 
BRANCH   6   7
HETATM    7  N   UNL     1      -2.959   6.306 -34.100  1.00  0.00    -0.068 N 
HETATM    8  C   UNL     1      -3.411   6.771 -32.704  1.00  0.00     0.254 C 
HETATM    9  C   UNL     1      -2.473   7.865 -32.152  1.00  0.00     0.150 C 
HETATM   10  N   UNL     1      -1.065   7.432 -32.183  1.00  0.00    -0.378 N 
HETATM   11  C   UNL     1      -0.598   7.015 -33.520  1.00  0.00     0.150 C 
HETATM   12  C   UNL     1      -1.484   5.876 -34.070  1.00  0.00     0.254 C 
HETATM   13  H   UNL     1      -3.026   7.128 -34.717  1.00  0.00     0.280 HD
BRANCH  10  14
HETATM   14  C   UNL     1      -0.482   6.800 -31.082  1.00  0.00     0.030 A 
HETATM   15  C   UNL     1       0.129   5.539 -31.146  1.00  0.00     0.029 A 
HETATM   16  C   UNL     1       0.700   4.937 -30.016  1.00  0.00     0.002 A 
HETATM   17  C   UNL     1       0.657   5.577 -28.783  1.00  0.00     0.000 A 
HETATM   18  C   UNL     1       0.032   6.811 -28.680  1.00  0.00     0.002 A 
HETATM   19  C   UNL     1      -0.532   7.407 -29.814  1.00  0.00     0.029 A 
ENDBRANCH  10  14
ENDBRANCH   6   7
ENDBRANCH   5   6
ENDBRANCH   1   5
BRANCH   2  20
HETATM   20  N   UNL     1      -5.558   1.835 -32.809  1.00  0.00    -0.274 N 
HETATM   21  H   UNL     1      -4.564   2.043 -32.863  1.00  0.00     0.189 HD
BRANCH  20  22
HETATM   22  C   UNL     1      -5.901   1.156 -31.668  1.00  0.00     0.191 C 
HETATM   23  S   UNL     1      -6.375   1.881 -30.234  1.00  0.00    -0.039 SA
BRANCH  22  24
HETATM   24  N   UNL     1      -5.996  -0.207 -31.738  1.00  0.00    -0.331 N 
HETATM   25  H   UNL     1      -6.597  -0.558 -30.995  1.00  0.00     0.168 HD
BRANCH  24  26
HETATM   26  C   UNL     1      -5.736  -1.125 -32.788  1.00  0.00     0.056 A 
HETATM   27  C   UNL     1      -4.537  -1.810 -33.053  1.00  0.00     0.060 A 
HETATM   28 CL   UNL     1      -3.177  -1.821 -31.984  1.00  0.00    -0.082 Cl
HETATM   29  C   UNL     1      -4.429  -2.644 -34.177  1.00  0.00     0.026 A 
HETATM   30  C   UNL     1      -5.516  -2.835 -35.025  1.00  0.00     0.002 A 
HETATM   31  C   UNL     1      -6.726  -2.217 -34.738  1.00  0.00     0.002 A 
HETATM   32  C   UNL     1      -6.838  -1.383 -33.622  1.00  0.00     0.031 A 
ENDBRANCH  24  26
ENDBRANCH  22  24
ENDBRANCH  20  22
ENDBRANCH   2  20
TORSDOF 8
ENDMDL
MODEL 8
REMARK VINA RESULT:      -7.7      3.500      7.276
REMARK  8 active torsions:
REMARK  status: ('A' for Active; 'I' for Inactive)
REMARK    1  A    between atoms: C_4  and  N_5 
REMARK    2  A    between atoms: N_8  and  C_10 
REMARK    3  A    between atoms: C_10  and  C_11 
REMARK    4  A    between atoms: C_11  and  C_12 
REMARK       I    between atoms: C_12  and  N_13 
REMARK    5  A    between atoms: N_13  and  N_14 
REMARK    6  A    between atoms: N_14  and  C_15 
REMARK    7  A    between atoms: C_15  and  N_16 
REMARK    8  A    between atoms: N_16  and  C_17 
ROOT
HETATM    1  C   UNL     1      -9.399   2.523 -34.078  1.00  0.00     0.237 C 
HETATM    2  N   UNL     1      -9.358   1.247 -34.576  1.00  0.00    -0.268 N 
HETATM    3  O   UNL     1     -10.444   3.014 -33.660  1.00  0.00    -0.272 OA
HETATM    4  H   UNL     1     -10.250   0.795 -34.790  1.00  0.00     0.190 HD
ENDROOT
BRANCH   1   5
HETATM    5  C   UNL     1      -8.097   3.280 -33.964  1.00  0.00     0.132 C 
BRANCH   5   6
HETATM    6  C   UNL     1      -7.990   3.852 -32.564  1.00  0.00     0.244 C 
BRANCH   6   7
HETATM    7  N   UNL     1      -6.610   3.644 -31.970  1.00  0.00    -0.068 N 
HETATM    8  C   UNL     1      -5.654   3.057 -33.024  1.00  0.00     0.254 C 
HETATM    9  C   UNL     1      -4.247   2.829 -32.434  1.00  0.00     0.150 C 
HETATM   10  N   UNL     1      -3.723   4.055 -31.806  1.00  0.00    -0.378 N 
HETATM   11  C   UNL     1      -4.607   4.617 -30.766  1.00  0.00     0.150 C 
HETATM   12  C   UNL     1      -6.006   4.913 -31.347  1.00  0.00     0.254 C 
HETATM   13  H   UNL     1      -6.686   2.942 -31.221  1.00  0.00     0.280 HD
BRANCH  10  14
HETATM   14  C   UNL     1      -2.943   4.958 -32.532  1.00  0.00     0.030 A 
HETATM   15  C   UNL     1      -2.785   6.306 -32.176  1.00  0.00     0.029 A 
HETATM   16  C   UNL     1      -1.995   7.182 -32.934  1.00  0.00     0.002 A 
HETATM   17  C   UNL     1      -1.356   6.734 -34.084  1.00  0.00     0.000 A 
HETATM   18  C   UNL     1      -1.517   5.414 -34.480  1.00  0.00     0.002 A 
HETATM   19  C   UNL     1      -2.304   4.545 -33.715  1.00  0.00     0.029 A 
ENDBRANCH  10  14
ENDBRANCH   6   7
ENDBRANCH   5   6
ENDBRANCH   1   5
BRANCH   2  20
HETATM   20  N   UNL     1      -8.198   0.700 -35.145  1.00  0.00    -0.274 N 
HETATM   21  H   UNL     1      -7.687   1.353 -35.735  1.00  0.00     0.189 HD
BRANCH  20  22
HETATM   22  C   UNL     1      -7.374  -0.113 -34.408  1.00  0.00     0.191 C 
HETATM   23  S   UNL     1      -7.471  -0.313 -32.748  1.00  0.00    -0.039 SA
BRANCH  22  24
HETATM   24  N   UNL     1      -6.501  -0.921 -35.084  1.00  0.00    -0.331 N 
HETATM   25  H   UNL     1      -6.029  -0.396 -35.817  1.00  0.00     0.168 HD
BRANCH  24  26
HETATM   26  C   UNL     1      -5.902  -2.162 -34.749  1.00  0.00     0.056 A 
HETATM   27  C   UNL     1      -4.656  -2.377 -34.134  1.00  0.00     0.060 A 
HETATM   28 CL   UNL     1      -3.686  -1.115 -33.456  1.00  0.00    -0.082 Cl
HETATM   29  C   UNL     1      -4.181  -3.681 -33.926  1.00  0.00     0.026 A 
HETATM   30  C   UNL     1      -4.950  -4.783 -34.290  1.00  0.00     0.002 A 
HETATM   31  C   UNL     1      -6.212  -4.586 -34.838  1.00  0.00     0.002 A 
HETATM   32  C   UNL     1      -6.688  -3.289 -35.051  1.00  0.00     0.031 A 
ENDBRANCH  24  26
ENDBRANCH  22  24
ENDBRANCH  20  22
ENDBRANCH   2  20
TORSDOF 8
ENDMDL
MODEL 9
REMARK VINA RESULT:      -7.6      6.109      9.032
REMARK  8 active torsions:
REMARK  status: ('A' for Active; 'I' for Inactive)
REMARK    1  A    between atoms: C_4  and  N_5 
REMARK    2  A    between atoms: N_8  and  C_10 
REMARK    3  A    between atoms: C_10  and  C_11 
REMARK    4  A    between atoms: C_11  and  C_12 
REMARK       I    between atoms: C_12  and  N_13 
REMARK    5  A    between atoms: N_13  and  N_14 
REMARK    6  A    between atoms: N_14  and  C_15 
REMARK    7  A    between atoms: C_15  and  N_16 
REMARK    8  A    between atoms: N_16  and  C_17 
ROOT
HETATM    1  C   UNL     1      -1.489   4.853 -32.270  1.00  0.00     0.237 C 
HETATM    2  N   UNL     1      -0.422   5.223 -31.492  1.00  0.00    -0.268 N 
HETATM    3  O   UNL     1      -1.461   4.967 -33.492  1.00  0.00    -0.272 OA
HETATM    4  H   UNL     1       0.307   5.789 -31.932  1.00  0.00     0.190 HD
ENDROOT
BRANCH   1   5
HETATM    5  C   UNL     1      -2.672   4.208 -31.587  1.00  0.00     0.132 C 
BRANCH   5   6
HETATM    6  C   UNL     1      -3.493   3.476 -32.630  1.00  0.00     0.244 C 
BRANCH   6   7
HETATM    7  N   UNL     1      -4.315   2.355 -32.021  1.00  0.00    -0.068 N 
HETATM    8  C   UNL     1      -5.593   2.117 -32.845  1.00  0.00     0.254 C 
HETATM    9  C   UNL     1      -6.446   0.986 -32.233  1.00  0.00     0.150 C 
HETATM   10  N   UNL     1      -5.653  -0.240 -32.039  1.00  0.00    -0.378 N 
HETATM   11  C   UNL     1      -4.441  -0.043 -31.220  1.00  0.00     0.150 C 
HETATM   12  C   UNL     1      -3.537   1.042 -31.845  1.00  0.00     0.254 C 
HETATM   13  H   UNL     1      -4.623   2.656 -31.086  1.00  0.00     0.280 HD
BRANCH  10  14
HETATM   14  C   UNL     1      -5.599  -1.226 -33.027  1.00  0.00     0.030 A 
HETATM   15  C   UNL     1      -4.429  -1.927 -33.358  1.00  0.00     0.029 A 
HETATM   16  C   UNL     1      -4.415  -2.908 -34.359  1.00  0.00     0.002 A 
HETATM   17  C   UNL     1      -5.572  -3.201 -35.071  1.00  0.00     0.000 A 
HETATM   18  C   UNL     1      -6.738  -2.503 -34.789  1.00  0.00     0.002 A 
HETATM   19  C   UNL     1      -6.745  -1.528 -33.784  1.00  0.00     0.029 A 
ENDBRANCH  10  14
ENDBRANCH   6   7
ENDBRANCH   5   6
ENDBRANCH   1   5
BRANCH   2  20
HETATM   20  N   UNL     1      -0.468   5.190 -30.090  1.00  0.00    -0.274 N 
HETATM   21  H   UNL     1       0.232   4.580 -29.674  1.00  0.00     0.189 HD
BRANCH  20  22
HETATM   22  C   UNL     1      -0.671   6.340 -29.371  1.00  0.00     0.191 C 
HETATM   23  S   UNL     1      -1.267   7.770 -30.008  1.00  0.00    -0.039 SA
BRANCH  22  24
HETATM   24  N   UNL     1      -0.507   6.283 -28.013  1.00  0.00    -0.331 N 
HETATM   25  H   UNL     1      -0.472   5.315 -27.702  1.00  0.00     0.168 HD
BRANCH  24  26
HETATM   26  C   UNL     1      -0.044   7.237 -27.071  1.00  0.00     0.056 A 
HETATM   27  C   UNL     1      -0.813   8.028 -26.200  1.00  0.00     0.060 A 
HETATM   28 CL   UNL     1      -2.514   7.822 -25.959  1.00  0.00    -0.082 Cl
HETATM   29  C   UNL     1      -0.196   8.974 -25.366  1.00  0.00     0.026 A 
HETATM   30  C   UNL     1       1.189   9.118 -25.361  1.00  0.00     0.002 A 
HETATM   31  C   UNL     1       1.966   8.297 -26.168  1.00  0.00     0.002 A 
HETATM   32  C   UNL     1       1.356   7.356 -27.004  1.00  0.00     0.031 A 
ENDBRANCH  24  26
ENDBRANCH  22  24
ENDBRANCH  20  22
ENDBRANCH   2  20
TORSDOF 8
ENDMDL
MODEL 10
REMARK VINA RESULT:      -7.6      4.587      8.015
REMARK  8 active torsions:
REMARK  status: ('A' for Active; 'I' for Inactive)
REMARK    1  A    between atoms: C_4  and  N_5 
REMARK    2  A    between atoms: N_8  and  C_10 
REMARK    3  A    between atoms: C_10  and  C_11 
REMARK    4  A    between atoms: C_11  and  C_12 
REMARK       I    between atoms: C_12  and  N_13 
REMARK    5  A    between atoms: N_13  and  N_14 
REMARK    6  A    between atoms: N_14  and  C_15 
REMARK    7  A    between atoms: C_15  and  N_16 
REMARK    8  A    between atoms: N_16  and  C_17 
ROOT
HETATM    1  C   UNL     1      -5.738   4.528 -34.152  1.00  0.00     0.237 C 
HETATM    2  N   UNL     1      -6.338   3.296 -34.177  1.00  0.00    -0.268 N 
HETATM    3  O   UNL     1      -4.858   4.828 -34.955  1.00  0.00    -0.272 OA
HETATM    4  H   UNL     1      -5.890   2.565 -34.735  1.00  0.00     0.190 HD
ENDROOT
BRANCH   1   5
HETATM    5  C   UNL     1      -6.258   5.548 -33.168  1.00  0.00     0.132 C 
BRANCH   5   6
HETATM    6  C   UNL     1      -5.360   5.543 -31.946  1.00  0.00     0.244 C 
BRANCH   6   7
HETATM    7  N   UNL     1      -3.896   5.690 -32.316  1.00  0.00    -0.068 N 
HETATM    8  C   UNL     1      -3.405   7.117 -32.013  1.00  0.00     0.254 C 
HETATM    9  C   UNL     1      -1.919   7.285 -32.394  1.00  0.00     0.150 C 
HETATM   10  N   UNL     1      -1.083   6.247 -31.768  1.00  0.00    -0.378 N 
HETATM   11  C   UNL     1      -1.514   4.869 -32.075  1.00  0.00     0.150 C 
HETATM   12  C   UNL     1      -2.981   4.654 -31.646  1.00  0.00     0.254 C 
HETATM   13  H   UNL     1      -3.809   5.562 -33.334  1.00  0.00     0.280 HD
BRANCH  10  14
HETATM   14  C   UNL     1      -0.477   6.462 -30.528  1.00  0.00     0.030 A 
HETATM   15  C   UNL     1      -0.392   7.721 -29.914  1.00  0.00     0.029 A 
HETATM   16  C   UNL     1       0.228   7.895 -28.669  1.00  0.00     0.002 A 
HETATM   17  C   UNL     1       0.799   6.812 -28.012  1.00  0.00     0.000 A 
HETATM   18  C   UNL     1       0.759   5.559 -28.606  1.00  0.00     0.002 A 
HETATM   19  C   UNL     1       0.134   5.393 -29.848  1.00  0.00     0.029 A 
ENDBRANCH  10  14
ENDBRANCH   6   7
ENDBRANCH   5   6
ENDBRANCH   1   5
BRANCH   2  20
HETATM   20  N   UNL     1      -7.275   2.898 -33.212  1.00  0.00    -0.274 N 
HETATM   21  H   UNL     1      -8.046   3.553 -33.098  1.00  0.00     0.189 HD
BRANCH  20  22
HETATM   22  C   UNL     1      -7.669   1.588 -33.117  1.00  0.00     0.191 C 
HETATM   23  S   UNL     1      -8.749   0.997 -31.981  1.00  0.00    -0.039 SA
BRANCH  22  24
HETATM   24  N   UNL     1      -7.264   0.725 -34.099  1.00  0.00    -0.331 N 
HETATM   25  H   UNL     1      -7.429   1.133 -35.017  1.00  0.00     0.168 HD
BRANCH  24  26
HETATM   26  C   UNL     1      -6.386  -0.389 -34.082  1.00  0.00     0.056 A 
HETATM   27  C   UNL     1      -5.076  -0.444 -33.576  1.00  0.00     0.060 A 
HETATM   28 CL   UNL     1      -4.345   0.826 -32.655  1.00  0.00    -0.082 Cl
HETATM   29  C   UNL     1      -4.317  -1.618 -33.693  1.00  0.00     0.026 A 
HETATM   30  C   UNL     1      -4.860  -2.758 -34.278  1.00  0.00     0.002 A 
HETATM   31  C   UNL     1      -6.176  -2.739 -34.723  1.00  0.00     0.002 A 
HETATM   32  C   UNL     1      -6.935  -1.570 -34.613  1.00  0.00     0.031 A 
ENDBRANCH  24  26
ENDBRANCH  22  24
ENDBRANCH  20  22
ENDBRANCH   2  20
TORSDOF 8
ENDMDL
