MODEL 1
REMARK VINA RESULT:      -9.9      0.000      0.000
REMARK  6 active torsions:
REMARK  status: ('A' for Active; 'I' for Inactive)
REMARK    1  A    between atoms: C_6  and  N_7 
REMARK    2  A    between atoms: N_7  and  C_8 
REMARK    3  A    between atoms: C_8  and  N_9 
REMARK    4  A    between atoms: C_12  and  C_13 
REMARK    5  A    between atoms: N_15  and  C_16 
REMARK    6  A    between atoms: C_22  and  O_23 
ROOT
HETATM    1  N   UNL     1      -4.461   2.843 -32.053  1.00  0.00    -0.358 N 
HETATM    2  C   UNL     1      -3.244   3.096 -32.830  1.00  0.00     0.126 C 
HETATM    3  C   UNL     1      -3.131   4.567 -33.213  1.00  0.00     0.031 C 
HETATM    4  C   UNL     1      -3.175   5.487 -31.985  1.00  0.00     0.043 C 
HETATM    5  C   UNL     1      -4.392   5.153 -31.109  1.00  0.00     0.031 C 
HETATM    6  C   UNL     1      -4.560   3.659 -30.835  1.00  0.00     0.126 C 
ENDROOT
BRANCH   4   7
HETATM    7  C   UNL     1      -1.857   5.505 -31.253  1.00  0.00     0.063 C 
HETATM    8  N   UNL     1      -1.701   6.155 -30.097  1.00  0.00    -0.169 NA
HETATM    9  N   UNL     1      -0.393   5.981 -29.759  1.00  0.00    -0.211 N 
HETATM   10  C   UNL     1       0.215   5.050 -30.604  1.00  0.00     0.165 C 
HETATM   11  C   UNL     1      -0.679   4.821 -31.622  1.00  0.00     0.087 C 
BRANCH   9  12
HETATM   12  C   UNL     1       0.165   6.711 -28.671  1.00  0.00     0.061 A 
HETATM   13  C   UNL     1      -0.106   6.294 -27.358  1.00  0.00     0.031 A 
HETATM   14  C   UNL     1       0.432   6.989 -26.272  1.00  0.00     0.002 A 
HETATM   15  C   UNL     1       1.229   8.110 -26.486  1.00  0.00     0.000 A 
HETATM   16  C   UNL     1       1.481   8.549 -27.786  1.00  0.00     0.002 A 
HETATM   17  C   UNL     1       0.946   7.857 -28.878  1.00  0.00     0.031 A 
ENDBRANCH   9  12
BRANCH  10  18
HETATM   18  O   UNL     1       1.406   4.484 -30.412  1.00  0.00    -0.345 OA
HETATM   19  H   UNL     1       1.267   3.556 -30.148  1.00  0.00     0.219 HD
ENDBRANCH  10  18
ENDBRANCH   4   7
BRANCH   1  20
HETATM   20  C   UNL     1      -4.987   1.558 -31.985  1.00  0.00     0.174 C 
HETATM   21  S   UNL     1      -6.322   1.107 -31.065  1.00  0.00    -0.041 SA
BRANCH  20  22
HETATM   22  N   UNL     1      -4.435   0.579 -32.764  1.00  0.00    -0.333 N 
HETATM   23  H   UNL     1      -3.518   0.837 -33.112  1.00  0.00     0.168 HD
BRANCH  22  24
HETATM   24  C   UNL     1      -5.006  -0.559 -33.374  1.00  0.00     0.034 A 
HETATM   25  C   UNL     1      -4.262  -1.746 -33.321  1.00  0.00     0.036 A 
HETATM   26  C   UNL     1      -4.716  -2.928 -33.935  1.00  0.00    -0.054 A 
HETATM   27  C   UNL     1      -5.933  -2.910 -34.640  1.00  0.00    -0.056 A 
HETATM   28  C   UNL     1      -3.867  -4.167 -33.859  1.00  0.00     0.049 C 
HETATM   29  C   UNL     1      -6.472  -4.141 -35.318  1.00  0.00     0.049 C 
HETATM   30  C   UNL     1      -6.672  -1.720 -34.693  1.00  0.00     0.009 A 
HETATM   31  C   UNL     1      -6.206  -0.554 -34.075  1.00  0.00     0.030 A 
ENDBRANCH  22  24
ENDBRANCH  20  22
ENDBRANCH   1  20
TORSDOF 6
ENDMDL
MODEL 2
REMARK VINA RESULT:      -9.8      2.891     10.218
REMARK  6 active torsions:
REMARK  status: ('A' for Active; 'I' for Inactive)
REMARK    1  A    between atoms: C_6  and  N_7 
REMARK    2  A    between atoms: N_7  and  C_8 
REMARK    3  A    between atoms: C_8  and  N_9 
REMARK    4  A    between atoms: C_12  and  C_13 
REMARK    5  A    between atoms: N_15  and  C_16 
REMARK    6  A    between atoms: C_22  and  O_23 
ROOT
HETATM    1  N   UNL     1      -3.481   4.481 -32.582  1.00  0.00    -0.358 N 
HETATM    2  C   UNL     1      -3.067   3.079 -32.470  1.00  0.00     0.126 C 
HETATM    3  C   UNL     1      -3.886   2.347 -31.413  1.00  0.00     0.031 C 
HETATM    4  C   UNL     1      -5.393   2.432 -31.691  1.00  0.00     0.043 C 
HETATM    5  C   UNL     1      -5.814   3.892 -31.918  1.00  0.00     0.031 C 
HETATM    6  C   UNL     1      -4.908   4.648 -32.889  1.00  0.00     0.126 C 
ENDROOT
BRANCH   4   7
HETATM    7  C   UNL     1      -5.815   1.478 -32.779  1.00  0.00     0.063 C 
HETATM    8  N   UNL     1      -5.623   0.160 -32.676  1.00  0.00    -0.169 NA
HETATM    9  N   UNL     1      -6.091  -0.365 -33.843  1.00  0.00    -0.211 N 
HETATM   10  C   UNL     1      -6.761   0.608 -34.587  1.00  0.00     0.165 C 
HETATM   11  C   UNL     1      -6.500   1.807 -33.968  1.00  0.00     0.087 C 
BRANCH   9  12
HETATM   12  C   UNL     1      -5.861  -1.737 -34.149  1.00  0.00     0.061 A 
HETATM   13  C   UNL     1      -6.954  -2.559 -34.467  1.00  0.00     0.031 A 
HETATM   14  C   UNL     1      -6.755  -3.907 -34.777  1.00  0.00     0.002 A 
HETATM   15  C   UNL     1      -5.472  -4.447 -34.756  1.00  0.00     0.000 A 
HETATM   16  C   UNL     1      -4.384  -3.644 -34.414  1.00  0.00     0.002 A 
HETATM   17  C   UNL     1      -4.575  -2.294 -34.105  1.00  0.00     0.031 A 
ENDBRANCH   9  12
BRANCH  10  18
HETATM   18  O   UNL     1      -7.527   0.382 -35.655  1.00  0.00    -0.345 OA
HETATM   19  H   UNL     1      -7.076  -0.268 -36.225  1.00  0.00     0.219 HD
ENDBRANCH  10  18
ENDBRANCH   4   7
BRANCH   1  20
HETATM   20  C   UNL     1      -2.613   5.419 -33.130  1.00  0.00     0.174 C 
HETATM   21  S   UNL     1      -1.862   5.283 -34.629  1.00  0.00    -0.041 SA
BRANCH  20  22
HETATM   22  N   UNL     1      -2.386   6.582 -32.447  1.00  0.00    -0.333 N 
HETATM   23  H   UNL     1      -2.781   7.388 -32.918  1.00  0.00     0.168 HD
BRANCH  22  24
HETATM   24  C   UNL     1      -1.498   6.884 -31.391  1.00  0.00     0.034 A 
HETATM   25  C   UNL     1      -1.926   7.837 -30.457  1.00  0.00     0.036 A 
HETATM   26  C   UNL     1      -1.102   8.245 -29.391  1.00  0.00    -0.054 A 
HETATM   27  C   UNL     1       0.191   7.703 -29.278  1.00  0.00    -0.056 A 
HETATM   28  C   UNL     1      -1.608   9.284 -28.429  1.00  0.00     0.049 C 
HETATM   29  C   UNL     1       1.119   8.099 -28.162  1.00  0.00     0.049 C 
HETATM   30  C   UNL     1       0.615   6.753 -30.216  1.00  0.00     0.009 A 
HETATM   31  C   UNL     1      -0.217   6.357 -31.269  1.00  0.00     0.030 A 
ENDBRANCH  22  24
ENDBRANCH  20  22
ENDBRANCH   1  20
TORSDOF 6
ENDMDL
MODEL 3
REMARK VINA RESULT:      -9.8      1.232      1.834
REMARK  6 active torsions:
REMARK  status: ('A' for Active; 'I' for Inactive)
REMARK    1  A    between atoms: C_6  and  N_7 
REMARK    2  A    between atoms: N_7  and  C_8 
REMARK    3  A    between atoms: C_8  and  N_9 
REMARK    4  A    between atoms: C_12  and  C_13 
REMARK    5  A    between atoms: N_15  and  C_16 
REMARK    6  A    between atoms: C_22  and  O_23 
ROOT
HETATM    1  N   UNL     1      -4.471   4.406 -32.632  1.00  0.00    -0.358 N 
HETATM    2  C   UNL     1      -3.144   3.872 -32.953  1.00  0.00     0.126 C 
HETATM    3  C   UNL     1      -2.245   4.952 -33.544  1.00  0.00     0.031 C 
HETATM    4  C   UNL     1      -2.115   6.166 -32.615  1.00  0.00     0.043 C 
HETATM    5  C   UNL     1      -3.504   6.665 -32.188  1.00  0.00     0.031 C 
HETATM    6  C   UNL     1      -4.436   5.550 -31.712  1.00  0.00     0.126 C 
ENDROOT
BRANCH   4   7
HETATM    7  C   UNL     1      -1.163   5.900 -31.477  1.00  0.00     0.063 C 
HETATM    8  N   UNL     1      -1.124   6.680 -30.393  1.00  0.00    -0.169 NA
HETATM    9  N   UNL     1      -0.136   6.161 -29.611  1.00  0.00    -0.211 N 
HETATM   10  C   UNL     1       0.301   4.936 -30.118  1.00  0.00     0.165 C 
HETATM   11  C   UNL     1      -0.273   4.812 -31.361  1.00  0.00     0.087 C 
BRANCH   9  12
HETATM   12  C   UNL     1       0.307   6.871 -28.458  1.00  0.00     0.061 A 
HETATM   13  C   UNL     1       1.121   8.002 -28.624  1.00  0.00     0.031 A 
HETATM   14  C   UNL     1       1.566   8.720 -27.510  1.00  0.00     0.002 A 
HETATM   15  C   UNL     1       1.215   8.306 -26.228  1.00  0.00     0.000 A 
HETATM   16  C   UNL     1       0.430   7.167 -26.053  1.00  0.00     0.002 A 
HETATM   17  C   UNL     1      -0.020   6.446 -27.163  1.00  0.00     0.031 A 
ENDBRANCH   9  12
BRANCH  10  18
HETATM   18  O   UNL     1       1.083   4.063 -29.482  1.00  0.00    -0.345 OA
HETATM   19  H   UNL     1       2.012   4.305 -29.648  1.00  0.00     0.219 HD
ENDBRANCH  10  18
ENDBRANCH   4   7
BRANCH   1  20
HETATM   20  C   UNL     1      -5.555   3.544 -32.512  1.00  0.00     0.174 C 
HETATM   21  S   UNL     1      -6.433   3.286 -31.100  1.00  0.00    -0.041 SA
BRANCH  20  22
HETATM   22  N   UNL     1      -6.005   2.893 -33.627  1.00  0.00    -0.333 N 
HETATM   23  H   UNL     1      -6.415   3.527 -34.303  1.00  0.00     0.168 HD
BRANCH  22  24
HETATM   24  C   UNL     1      -6.242   1.523 -33.874  1.00  0.00     0.034 A 
HETATM   25  C   UNL     1      -5.330   0.613 -33.324  1.00  0.00     0.036 A 
HETATM   26  C   UNL     1      -5.448  -0.772 -33.546  1.00  0.00    -0.054 A 
HETATM   27  C   UNL     1      -6.490  -1.250 -34.361  1.00  0.00    -0.056 A 
HETATM   28  C   UNL     1      -4.429  -1.701 -32.945  1.00  0.00     0.049 C 
HETATM   29  C   UNL     1      -6.669  -2.719 -34.636  1.00  0.00     0.049 C 
HETATM   30  C   UNL     1      -7.398  -0.335 -34.910  1.00  0.00     0.009 A 
HETATM   31  C   UNL     1      -7.268   1.039 -34.678  1.00  0.00     0.030 A 
ENDBRANCH  22  24
ENDBRANCH  20  22
ENDBRANCH   1  20
TORSDOF 6
ENDMDL
MODEL 4
REMARK VINA RESULT:      -9.6      2.097      2.573
REMARK  6 active torsions:
REMARK  status: ('A' for Active; 'I' for Inactive)
REMARK    1  A    between atoms: C_6  and  N_7 
REMARK    2  A    between atoms: N_7  and  C_8 
REMARK    3  A    between atoms: C_8  and  N_9 
REMARK    4  A    between atoms: C_12  and  C_13 
REMARK    5  A    between atoms: N_15  and  C_16 
REMARK    6  A    between atoms: C_22  and  O_23 
ROOT
HETATM    1  N   UNL     1      -4.994   3.829 -33.478  1.00  0.00    -0.358 N 
HETATM    2  C   UNL     1      -4.039   3.678 -32.376  1.00  0.00     0.126 C 
HETATM    3  C   UNL     1      -2.603   3.686 -32.887  1.00  0.00     0.031 C 
HETATM    4  C   UNL     1      -2.285   4.953 -33.692  1.00  0.00     0.043 C 
HETATM    5  C   UNL     1      -3.345   5.177 -34.781  1.00  0.00     0.031 C 
HETATM    6  C   UNL     1      -4.782   5.044 -34.276  1.00  0.00     0.126 C 
ENDROOT
BRANCH   4   7
HETATM    7  C   UNL     1      -2.045   6.140 -32.794  1.00  0.00     0.063 C 
HETATM    8  N   UNL     1      -1.352   6.036 -31.657  1.00  0.00    -0.169 NA
HETATM    9  N   UNL     1      -1.372   7.282 -31.107  1.00  0.00    -0.211 N 
HETATM   10  C   UNL     1      -1.905   8.209 -32.005  1.00  0.00     0.165 C 
HETATM   11  C   UNL     1      -2.432   7.475 -33.040  1.00  0.00     0.087 C 
BRANCH   9  12
HETATM   12  C   UNL     1      -0.888   7.484 -29.783  1.00  0.00     0.061 A 
HETATM   13  C   UNL     1      -1.801   7.786 -28.760  1.00  0.00     0.031 A 
HETATM   14  C   UNL     1      -1.353   7.984 -27.451  1.00  0.00     0.002 A 
HETATM   15  C   UNL     1       0.005   7.899 -27.157  1.00  0.00     0.000 A 
HETATM   16  C   UNL     1       0.922   7.627 -28.172  1.00  0.00     0.002 A 
HETATM   17  C   UNL     1       0.481   7.426 -29.484  1.00  0.00     0.031 A 
ENDBRANCH   9  12
BRANCH  10  18
HETATM   18  O   UNL     1      -1.859   9.535 -31.877  1.00  0.00    -0.345 OA
HETATM   19  H   UNL     1      -1.436   9.747 -31.024  1.00  0.00     0.219 HD
ENDBRANCH  10  18
ENDBRANCH   4   7
BRANCH   1  20
HETATM   20  C   UNL     1      -6.311   3.413 -33.317  1.00  0.00     0.174 C 
HETATM   21  S   UNL     1      -7.666   4.293 -33.786  1.00  0.00    -0.041 SA
BRANCH  20  22
HETATM   22  N   UNL     1      -6.549   2.170 -32.800  1.00  0.00    -0.333 N 
HETATM   23  H   UNL     1      -6.640   2.184 -31.790  1.00  0.00     0.168 HD
BRANCH  22  24
HETATM   24  C   UNL     1      -6.420   0.883 -33.368  1.00  0.00     0.034 A 
HETATM   25  C   UNL     1      -5.382   0.078 -32.883  1.00  0.00     0.036 A 
HETATM   26  C   UNL     1      -5.136  -1.204 -33.410  1.00  0.00    -0.054 A 
HETATM   27  C   UNL     1      -5.935  -1.675 -34.467  1.00  0.00    -0.056 A 
HETATM   28  C   UNL     1      -3.996  -2.017 -32.860  1.00  0.00     0.049 C 
HETATM   29  C   UNL     1      -5.722  -3.036 -35.073  1.00  0.00     0.049 C 
HETATM   30  C   UNL     1      -6.970  -0.864 -34.951  1.00  0.00     0.009 A 
HETATM   31  C   UNL     1      -7.203   0.407 -34.415  1.00  0.00     0.030 A 
ENDBRANCH  22  24
ENDBRANCH  20  22
ENDBRANCH   1  20
TORSDOF 6
ENDMDL
MODEL 5
REMARK VINA RESULT:      -9.3      4.652      8.289
REMARK  6 active torsions:
REMARK  status: ('A' for Active; 'I' for Inactive)
REMARK    1  A    between atoms: C_6  and  N_7 
REMARK    2  A    between atoms: N_7  and  C_8 
REMARK    3  A    between atoms: C_8  and  N_9 
REMARK    4  A    between atoms: C_12  and  C_13 
REMARK    5  A    between atoms: N_15  and  C_16 
REMARK    6  A    between atoms: C_22  and  O_23 
ROOT
HETATM    1  N   UNL     1      -6.484   3.751 -32.413  1.00  0.00    -0.358 N 
HETATM    2  C   UNL     1      -5.544   3.250 -33.420  1.00  0.00     0.126 C 
HETATM    3  C   UNL     1      -4.109   3.307 -32.909  1.00  0.00     0.031 C 
HETATM    4  C   UNL     1      -3.935   2.535 -31.594  1.00  0.00     0.043 C 
HETATM    5  C   UNL     1      -4.989   2.979 -30.568  1.00  0.00     0.031 C 
HETATM    6  C   UNL     1      -6.408   3.034 -31.132  1.00  0.00     0.126 C 
ENDROOT
BRANCH   4   7
HETATM    7  C   UNL     1      -3.867   1.047 -31.824  1.00  0.00     0.063 C 
HETATM    8  N   UNL     1      -4.541   0.454 -32.813  1.00  0.00    -0.169 NA
HETATM    9  N   UNL     1      -4.269  -0.875 -32.690  1.00  0.00    -0.211 N 
HETATM   10  C   UNL     1      -3.261  -1.086 -31.746  1.00  0.00     0.165 C 
HETATM   11  C   UNL     1      -3.073   0.120 -31.115  1.00  0.00     0.087 C 
BRANCH   9  12
HETATM   12  C   UNL     1      -4.986  -1.825 -33.472  1.00  0.00     0.061 A 
HETATM   13  C   UNL     1      -4.305  -2.939 -33.987  1.00  0.00     0.031 A 
HETATM   14  C   UNL     1      -4.985  -3.889 -34.754  1.00  0.00     0.002 A 
HETATM   15  C   UNL     1      -6.342  -3.727 -35.024  1.00  0.00     0.000 A 
HETATM   16  C   UNL     1      -7.019  -2.608 -34.540  1.00  0.00     0.002 A 
HETATM   17  C   UNL     1      -6.345  -1.655 -33.771  1.00  0.00     0.031 A 
ENDBRANCH   9  12
BRANCH  10  18
HETATM   18  O   UNL     1      -2.603  -2.229 -31.550  1.00  0.00    -0.345 OA
HETATM   19  H   UNL     1      -2.565  -2.711 -32.397  1.00  0.00     0.219 HD
ENDBRANCH  10  18
ENDBRANCH   4   7
BRANCH   1  20
HETATM   20  C   UNL     1      -7.741   4.201 -32.799  1.00  0.00     0.174 C 
HETATM   21  S   UNL     1      -8.515   5.559 -32.177  1.00  0.00    -0.041 SA
BRANCH  20  22
HETATM   22  N   UNL     1      -8.393   3.545 -33.806  1.00  0.00    -0.333 N 
HETATM   23  H   UNL     1      -8.234   3.975 -34.711  1.00  0.00     0.168 HD
BRANCH  22  24
HETATM   24  C   UNL     1      -9.429   2.586 -33.777  1.00  0.00     0.034 A 
HETATM   25  C   UNL     1     -10.630   2.930 -34.410  1.00  0.00     0.036 A 
HETATM   26  C   UNL     1     -11.741   2.066 -34.402  1.00  0.00    -0.054 A 
HETATM   27  C   UNL     1     -11.651   0.840 -33.718  1.00  0.00    -0.056 A 
HETATM   28  C   UNL     1     -13.010   2.496 -35.084  1.00  0.00     0.049 C 
HETATM   29  C   UNL     1     -12.804  -0.126 -33.673  1.00  0.00     0.049 C 
HETATM   30  C   UNL     1     -10.448   0.502 -33.083  1.00  0.00     0.009 A 
HETATM   31  C   UNL     1      -9.352   1.371 -33.103  1.00  0.00     0.030 A 
ENDBRANCH  22  24
ENDBRANCH  20  22
ENDBRANCH   1  20
TORSDOF 6
ENDMDL
MODEL 6
REMARK VINA RESULT:      -9.1      5.896      9.759
REMARK  6 active torsions:
REMARK  status: ('A' for Active; 'I' for Inactive)
REMARK    1  A    between atoms: C_6  and  N_7 
REMARK    2  A    between atoms: N_7  and  C_8 
REMARK    3  A    between atoms: C_8  and  N_9 
REMARK    4  A    between atoms: C_12  and  C_13 
REMARK    5  A    between atoms: N_15  and  C_16 
REMARK    6  A    between atoms: C_22  and  O_23 
ROOT
HETATM    1  N   UNL     1      -6.167   1.030 -33.019  1.00  0.00    -0.358 N 
HETATM    2  C   UNL     1      -6.629   1.798 -34.179  1.00  0.00     0.126 C 
HETATM    3  C   UNL     1      -7.512   0.947 -35.085  1.00  0.00     0.031 C 
HETATM    4  C   UNL     1      -8.712   0.357 -34.331  1.00  0.00     0.043 C 
HETATM    5  C   UNL     1      -8.243  -0.358 -33.054  1.00  0.00     0.031 C 
HETATM    6  C   UNL     1      -7.261   0.463 -32.218  1.00  0.00     0.126 C 
ENDROOT
BRANCH   4   7
HETATM    7  C   UNL     1      -9.797   1.381 -34.118  1.00  0.00     0.063 C 
HETATM    8  N   UNL     1     -10.971   1.061 -33.566  1.00  0.00    -0.169 NA
HETATM    9  N   UNL     1     -11.697   2.213 -33.569  1.00  0.00    -0.211 N 
HETATM   10  C   UNL     1     -10.898   3.298 -33.937  1.00  0.00     0.165 C 
HETATM   11  C   UNL     1      -9.716   2.763 -34.389  1.00  0.00     0.087 C 
BRANCH   9  12
HETATM   12  C   UNL     1     -13.079   2.185 -33.225  1.00  0.00     0.061 A 
HETATM   13  C   UNL     1     -13.545   3.021 -32.198  1.00  0.00     0.031 A 
HETATM   14  C   UNL     1     -14.897   3.017 -31.844  1.00  0.00     0.002 A 
HETATM   15  C   UNL     1     -15.788   2.171 -32.500  1.00  0.00     0.000 A 
HETATM   16  C   UNL     1     -15.328   1.317 -33.502  1.00  0.00     0.002 A 
HETATM   17  C   UNL     1     -13.977   1.317 -33.862  1.00  0.00     0.031 A 
ENDBRANCH   9  12
BRANCH  10  18
HETATM   18  O   UNL     1     -11.229   4.584 -33.820  1.00  0.00    -0.345 OA
HETATM   19  H   UNL     1     -10.740   5.090 -34.495  1.00  0.00     0.219 HD
ENDBRANCH  10  18
ENDBRANCH   4   7
BRANCH   1  20
HETATM   20  C   UNL     1      -5.034   1.436 -32.324  1.00  0.00     0.174 C 
HETATM   21  S   UNL     1      -4.914   2.844 -31.410  1.00  0.00    -0.041 SA
BRANCH  20  22
HETATM   22  N   UNL     1      -3.940   0.616 -32.313  1.00  0.00    -0.333 N 
HETATM   23  H   UNL     1      -3.070   1.136 -32.310  1.00  0.00     0.168 HD
BRANCH  22  24
HETATM   24  C   UNL     1      -3.808  -0.765 -32.575  1.00  0.00     0.034 A 
HETATM   25  C   UNL     1      -4.513  -1.272 -33.675  1.00  0.00     0.036 A 
HETATM   26  C   UNL     1      -4.488  -2.641 -33.999  1.00  0.00    -0.054 A 
HETATM   27  C   UNL     1      -3.758  -3.525 -33.183  1.00  0.00    -0.056 A 
HETATM   28  C   UNL     1      -5.277  -3.130 -35.182  1.00  0.00     0.049 C 
HETATM   29  C   UNL     1      -3.693  -4.999 -33.477  1.00  0.00     0.049 C 
HETATM   30  C   UNL     1      -3.058  -3.014 -32.082  1.00  0.00     0.009 A 
HETATM   31  C   UNL     1      -3.092  -1.650 -31.775  1.00  0.00     0.030 A 
ENDBRANCH  22  24
ENDBRANCH  20  22
ENDBRANCH   1  20
TORSDOF 6
ENDMDL
MODEL 7
REMARK VINA RESULT:      -9.1      1.672      2.408
REMARK  6 active torsions:
REMARK  status: ('A' for Active; 'I' for Inactive)
REMARK    1  A    between atoms: C_6  and  N_7 
REMARK    2  A    between atoms: N_7  and  C_8 
REMARK    3  A    between atoms: C_8  and  N_9 
REMARK    4  A    between atoms: C_12  and  C_13 
REMARK    5  A    between atoms: N_15  and  C_16 
REMARK    6  A    between atoms: C_22  and  O_23 
ROOT
HETATM    1  N   UNL     1      -4.711   2.999 -32.420  1.00  0.00    -0.358 N 
HETATM    2  C   UNL     1      -3.378   3.003 -31.811  1.00  0.00     0.126 C 
HETATM    3  C   UNL     1      -2.457   3.997 -32.509  1.00  0.00     0.031 C 
HETATM    4  C   UNL     1      -3.039   5.417 -32.514  1.00  0.00     0.043 C 
HETATM    5  C   UNL     1      -4.479   5.404 -33.051  1.00  0.00     0.031 C 
HETATM    6  C   UNL     1      -5.356   4.319 -32.427  1.00  0.00     0.126 C 
ENDROOT
BRANCH   4   7
HETATM    7  C   UNL     1      -2.871   6.095 -31.179  1.00  0.00     0.063 C 
HETATM    8  N   UNL     1      -1.665   6.357 -30.667  1.00  0.00    -0.169 NA
HETATM    9  N   UNL     1      -1.905   6.932 -29.456  1.00  0.00    -0.211 N 
HETATM   10  C   UNL     1      -3.264   7.212 -29.303  1.00  0.00     0.165 C 
HETATM   11  C   UNL     1      -3.900   6.588 -30.349  1.00  0.00     0.087 C 
BRANCH   9  12
HETATM   12  C   UNL     1      -0.829   7.162 -28.551  1.00  0.00     0.061 A 
HETATM   13  C   UNL     1       0.242   7.975 -28.956  1.00  0.00     0.031 A 
HETATM   14  C   UNL     1       1.308   8.221 -28.086  1.00  0.00     0.002 A 
HETATM   15  C   UNL     1       1.321   7.647 -26.818  1.00  0.00     0.000 A 
HETATM   16  C   UNL     1       0.276   6.816 -26.418  1.00  0.00     0.002 A 
HETATM   17  C   UNL     1      -0.795   6.566 -27.282  1.00  0.00     0.031 A 
ENDBRANCH   9  12
BRANCH  10  18
HETATM   18  O   UNL     1      -3.801   7.971 -28.348  1.00  0.00    -0.345 OA
HETATM   19  H   UNL     1      -4.763   8.019 -28.497  1.00  0.00     0.219 HD
ENDBRANCH  10  18
ENDBRANCH   4   7
BRANCH   1  20
HETATM   20  C   UNL     1      -5.547   1.900 -32.255  1.00  0.00     0.174 C 
HETATM   21  S   UNL     1      -6.573   1.653 -30.945  1.00  0.00    -0.041 SA
BRANCH  20  22
HETATM   22  N   UNL     1      -5.606   0.965 -33.251  1.00  0.00    -0.333 N 
HETATM   23  H   UNL     1      -6.319   1.180 -33.939  1.00  0.00     0.168 HD
BRANCH  22  24
HETATM   24  C   UNL     1      -5.066  -0.337 -33.340  1.00  0.00     0.034 A 
HETATM   25  C   UNL     1      -5.753  -1.254 -34.145  1.00  0.00     0.036 A 
HETATM   26  C   UNL     1      -5.328  -2.590 -34.269  1.00  0.00    -0.054 A 
HETATM   27  C   UNL     1      -4.201  -3.020 -33.545  1.00  0.00    -0.056 A 
HETATM   28  C   UNL     1      -6.116  -3.534 -35.135  1.00  0.00     0.049 C 
HETATM   29  C   UNL     1      -3.697  -4.435 -33.635  1.00  0.00     0.049 C 
HETATM   30  C   UNL     1      -3.518  -2.100 -32.739  1.00  0.00     0.009 A 
HETATM   31  C   UNL     1      -3.954  -0.775 -32.628  1.00  0.00     0.030 A 
ENDBRANCH  22  24
ENDBRANCH  20  22
ENDBRANCH   1  20
TORSDOF 6
ENDMDL
MODEL 8
REMARK VINA RESULT:      -8.9      3.976      5.413
REMARK  6 active torsions:
REMARK  status: ('A' for Active; 'I' for Inactive)
REMARK    1  A    between atoms: C_6  and  N_7 
REMARK    2  A    between atoms: N_7  and  C_8 
REMARK    3  A    between atoms: C_8  and  N_9 
REMARK    4  A    between atoms: C_12  and  C_13 
REMARK    5  A    between atoms: N_15  and  C_16 
REMARK    6  A    between atoms: C_22  and  O_23 
ROOT
HETATM    1  N   UNL     1      -9.710   3.131 -32.809  1.00  0.00    -0.358 N 
HETATM    2  C   UNL     1      -8.731   3.594 -33.797  1.00  0.00     0.126 C 
HETATM    3  C   UNL     1      -8.684   5.116 -33.853  1.00  0.00     0.031 C 
HETATM    4  C   UNL     1      -8.382   5.734 -32.481  1.00  0.00     0.043 C 
HETATM    5  C   UNL     1      -9.336   5.170 -31.418  1.00  0.00     0.031 C 
HETATM    6  C   UNL     1      -9.466   3.648 -31.455  1.00  0.00     0.126 C 
ENDROOT
BRANCH   4   7
HETATM    7  C   UNL     1      -6.919   5.633 -32.132  1.00  0.00     0.063 C 
HETATM    8  N   UNL     1      -5.962   6.023 -32.979  1.00  0.00    -0.169 NA
HETATM    9  N   UNL     1      -4.787   5.753 -32.345  1.00  0.00    -0.211 N 
HETATM   10  C   UNL     1      -5.017   5.382 -31.019  1.00  0.00     0.165 C 
HETATM   11  C   UNL     1      -6.374   5.202 -30.904  1.00  0.00     0.087 C 
BRANCH   9  12
HETATM   12  C   UNL     1      -3.555   5.867 -33.050  1.00  0.00     0.061 A 
HETATM   13  C   UNL     1      -2.767   7.014 -32.867  1.00  0.00     0.031 A 
HETATM   14  C   UNL     1      -1.551   7.149 -33.543  1.00  0.00     0.002 A 
HETATM   15  C   UNL     1      -1.122   6.152 -34.415  1.00  0.00     0.000 A 
HETATM   16  C   UNL     1      -1.912   5.022 -34.624  1.00  0.00     0.002 A 
HETATM   17  C   UNL     1      -3.129   4.879 -33.950  1.00  0.00     0.031 A 
ENDBRANCH   9  12
BRANCH  10  18
HETATM   18  O   UNL     1      -4.088   5.276 -30.067  1.00  0.00    -0.345 OA
HETATM   19  H   UNL     1      -3.605   6.121 -30.014  1.00  0.00     0.219 HD
ENDBRANCH  10  18
ENDBRANCH   4   7
BRANCH   1  20
HETATM   20  C   UNL     1     -10.233   1.846 -32.899  1.00  0.00     0.174 C 
HETATM   21  S   UNL     1     -11.543   1.400 -33.855  1.00  0.00    -0.041 SA
BRANCH  20  22
HETATM   22  N   UNL     1      -9.614   0.835 -32.217  1.00  0.00    -0.333 N 
HETATM   23  H   UNL     1     -10.128   0.561 -31.387  1.00  0.00     0.168 HD
BRANCH  22  24
HETATM   24  C   UNL     1      -8.303   0.317 -32.305  1.00  0.00     0.034 A 
HETATM   25  C   UNL     1      -8.010  -0.479 -33.419  1.00  0.00     0.036 A 
HETATM   26  C   UNL     1      -6.749  -1.082 -33.583  1.00  0.00    -0.054 A 
HETATM   27  C   UNL     1      -5.769  -0.901 -32.590  1.00  0.00    -0.056 A 
HETATM   28  C   UNL     1      -6.497  -1.941 -34.792  1.00  0.00     0.049 C 
HETATM   29  C   UNL     1      -4.402  -1.519 -32.707  1.00  0.00     0.049 C 
HETATM   30  C   UNL     1      -6.068  -0.106 -31.476  1.00  0.00     0.009 A 
HETATM   31  C   UNL     1      -7.327   0.488 -31.329  1.00  0.00     0.030 A 
ENDBRANCH  22  24
ENDBRANCH  20  22
ENDBRANCH   1  20
TORSDOF 6
ENDMDL
MODEL 9
REMARK VINA RESULT:      -8.9      2.722      3.789
REMARK  6 active torsions:
REMARK  status: ('A' for Active; 'I' for Inactive)
REMARK    1  A    between atoms: C_6  and  N_7 
REMARK    2  A    between atoms: N_7  and  C_8 
REMARK    3  A    between atoms: C_8  and  N_9 
REMARK    4  A    between atoms: C_12  and  C_13 
REMARK    5  A    between atoms: N_15  and  C_16 
REMARK    6  A    between atoms: C_22  and  O_23 
ROOT
HETATM    1  N   UNL     1      -7.933   2.679 -32.564  1.00  0.00    -0.358 N 
HETATM    2  C   UNL     1      -7.546   3.252 -33.857  1.00  0.00     0.126 C 
HETATM    3  C   UNL     1      -7.614   4.775 -33.826  1.00  0.00     0.031 C 
HETATM    4  C   UNL     1      -6.748   5.367 -32.705  1.00  0.00     0.043 C 
HETATM    5  C   UNL     1      -7.073   4.693 -31.364  1.00  0.00     0.031 C 
HETATM    6  C   UNL     1      -7.122   3.167 -31.441  1.00  0.00     0.126 C 
ENDROOT
BRANCH   4   7
HETATM    7  C   UNL     1      -5.286   5.371 -33.071  1.00  0.00     0.063 C 
HETATM    8  N   UNL     1      -4.326   5.428 -32.144  1.00  0.00    -0.169 NA
HETATM    9  N   UNL     1      -3.154   5.447 -32.838  1.00  0.00    -0.211 N 
HETATM   10  C   UNL     1      -3.380   5.197 -34.193  1.00  0.00     0.165 C 
HETATM   11  C   UNL     1      -4.742   5.251 -34.368  1.00  0.00     0.087 C 
BRANCH   9  12
HETATM   12  C   UNL     1      -1.928   5.703 -32.159  1.00  0.00     0.061 A 
HETATM   13  C   UNL     1      -1.496   4.808 -31.168  1.00  0.00     0.031 A 
HETATM   14  C   UNL     1      -0.295   5.033 -30.490  1.00  0.00     0.002 A 
HETATM   15  C   UNL     1       0.473   6.156 -30.784  1.00  0.00     0.000 A 
HETATM   16  C   UNL     1       0.037   7.066 -31.747  1.00  0.00     0.002 A 
HETATM   17  C   UNL     1      -1.163   6.846 -32.431  1.00  0.00     0.031 A 
ENDBRANCH   9  12
BRANCH  10  18
HETATM   18  O   UNL     1      -2.443   4.921 -35.101  1.00  0.00    -0.345 OA
HETATM   19  H   UNL     1      -2.882   4.570 -35.898  1.00  0.00     0.219 HD
ENDBRANCH  10  18
ENDBRANCH   4   7
BRANCH   1  20
HETATM   20  C   UNL     1      -8.367   1.361 -32.491  1.00  0.00     0.174 C 
HETATM   21  S   UNL     1      -9.849   0.798 -33.054  1.00  0.00    -0.041 SA
BRANCH  20  22
HETATM   22  N   UNL     1      -7.517   0.416 -31.986  1.00  0.00    -0.333 N 
HETATM   23  H   UNL     1      -7.420   0.485 -30.979  1.00  0.00     0.168 HD
BRANCH  22  24
HETATM   24  C   UNL     1      -6.575  -0.424 -32.619  1.00  0.00     0.034 A 
HETATM   25  C   UNL     1      -7.081  -1.407 -33.480  1.00  0.00     0.036 A 
HETATM   26  C   UNL     1      -6.234  -2.327 -34.127  1.00  0.00    -0.054 A 
HETATM   27  C   UNL     1      -4.849  -2.272 -33.883  1.00  0.00    -0.056 A 
HETATM   28  C   UNL     1      -6.835  -3.371 -35.027  1.00  0.00     0.049 C 
HETATM   29  C   UNL     1      -3.893  -3.227 -34.544  1.00  0.00     0.049 C 
HETATM   30  C   UNL     1      -4.349  -1.289 -33.019  1.00  0.00     0.009 A 
HETATM   31  C   UNL     1      -5.205  -0.382 -32.385  1.00  0.00     0.030 A 
ENDBRANCH  22  24
ENDBRANCH  20  22
ENDBRANCH   1  20
TORSDOF 6
ENDMDL
MODEL 10
REMARK VINA RESULT:      -8.7      2.647      3.662
REMARK  6 active torsions:
REMARK  status: ('A' for Active; 'I' for Inactive)
REMARK    1  A    between atoms: C_6  and  N_7 
REMARK    2  A    between atoms: N_7  and  C_8 
REMARK    3  A    between atoms: C_8  and  N_9 
REMARK    4  A    between atoms: C_12  and  C_13 
REMARK    5  A    between atoms: N_15  and  C_16 
REMARK    6  A    between atoms: C_22  and  O_23 
ROOT
HETATM    1  N   UNL     1      -8.487   3.128 -32.679  1.00  0.00    -0.358 N 
HETATM    2  C   UNL     1      -7.405   3.340 -33.645  1.00  0.00     0.126 C 
HETATM    3  C   UNL     1      -7.012   4.811 -33.716  1.00  0.00     0.031 C 
HETATM    4  C   UNL     1      -6.610   5.366 -32.343  1.00  0.00     0.043 C 
HETATM    5  C   UNL     1      -7.693   5.051 -31.300  1.00  0.00     0.031 C 
HETATM    6  C   UNL     1      -8.164   3.598 -31.325  1.00  0.00     0.126 C 
ENDROOT
BRANCH   4   7
HETATM    7  C   UNL     1      -5.217   4.941 -31.954  1.00  0.00     0.063 C 
HETATM    8  N   UNL     1      -4.322   5.810 -31.476  1.00  0.00    -0.169 NA
HETATM    9  N   UNL     1      -3.188   5.083 -31.273  1.00  0.00    -0.211 N 
HETATM   10  C   UNL     1      -3.441   3.719 -31.432  1.00  0.00     0.165 C 
HETATM   11  C   UNL     1      -4.703   3.627 -31.968  1.00  0.00     0.087 C 
BRANCH   9  12
HETATM   12  C   UNL     1      -1.968   5.743 -30.948  1.00  0.00     0.061 A 
HETATM   13  C   UNL     1      -0.773   5.297 -31.535  1.00  0.00     0.031 A 
HETATM   14  C   UNL     1       0.437   5.929 -31.238  1.00  0.00     0.002 A 
HETATM   15  C   UNL     1       0.467   6.997 -30.344  1.00  0.00     0.000 A 
HETATM   16  C   UNL     1      -0.711   7.429 -29.736  1.00  0.00     0.002 A 
HETATM   17  C   UNL     1      -1.926   6.802 -30.030  1.00  0.00     0.031 A 
ENDBRANCH   9  12
BRANCH  10  18
HETATM   18  O   UNL     1      -2.619   2.728 -31.085  1.00  0.00    -0.345 OA
HETATM   19  H   UNL     1      -3.152   2.007 -30.703  1.00  0.00     0.219 HD
ENDBRANCH  10  18
ENDBRANCH   4   7
BRANCH   1  20
HETATM   20  C   UNL     1      -9.286   1.994 -32.769  1.00  0.00     0.174 C 
HETATM   21  S   UNL     1     -10.799   1.933 -33.504  1.00  0.00    -0.041 SA
BRANCH  20  22
HETATM   22  N   UNL     1      -8.802   0.808 -32.290  1.00  0.00    -0.333 N 
HETATM   23  H   UNL     1      -9.131   0.611 -31.351  1.00  0.00     0.168 HD
BRANCH  22  24
HETATM   24  C   UNL     1      -7.749  -0.019 -32.738  1.00  0.00     0.034 A 
HETATM   25  C   UNL     1      -6.554   0.026 -32.009  1.00  0.00     0.036 A 
HETATM   26  C   UNL     1      -5.427  -0.724 -32.395  1.00  0.00    -0.054 A 
HETATM   27  C   UNL     1      -5.495  -1.516 -33.556  1.00  0.00    -0.056 A 
HETATM   28  C   UNL     1      -4.165  -0.623 -31.583  1.00  0.00     0.049 C 
HETATM   29  C   UNL     1      -4.325  -2.339 -34.020  1.00  0.00     0.049 C 
HETATM   30  C   UNL     1      -6.692  -1.555 -34.283  1.00  0.00     0.009 A 
HETATM   31  C   UNL     1      -7.804  -0.804 -33.885  1.00  0.00     0.030 A 
ENDBRANCH  22  24
ENDBRANCH  20  22
ENDBRANCH   1  20
TORSDOF 6
ENDMDL
