MODEL 1
REMARK VINA RESULT:      -8.8      0.000      0.000
REMARK  10 active torsions:
REMARK  status: ('A' for Active; 'I' for Inactive)
REMARK    1  A    between atoms: C_2  and  N_3 
REMARK    2  A    between atoms: N_3  and  C_4 
REMARK    3  A    between atoms: N_3  and  C_37 
REMARK    4  A    between atoms: C_7  and  C_8 
REMARK    5  A    between atoms: N_9  and  C_11 
REMARK    6  A    between atoms: C_11  and  C_12 
REMARK       I    between atoms: C_12  and  N_13 
REMARK    7  A    between atoms: N_13  and  C_14 
REMARK    8  A    between atoms: C_20  and  C_21 
REMARK    9  A    between atoms: C_21  and  O_22 
REMARK   10  A    between atoms: C_28  and  O_29 
ROOT
HETATM    1  C   UNL     1      -9.828   2.338 -32.852  1.00  0.00     0.228 C 
HETATM    2  N   UNL     1      -9.277   3.765 -32.888  1.00  0.00    -0.054 N 
HETATM    3  H   UNL     1      -8.643   3.761 -32.082  1.00  0.00     0.281 HD
HETATM    4  C   UNL     1     -10.296   4.812 -32.517  1.00  0.00     0.239 C 
HETATM    5  C   UNL     1     -11.636   4.666 -33.220  1.00  0.00     0.066 C 
HETATM    6  C   UNL     1     -12.175   3.238 -33.172  1.00  0.00     0.065 C 
HETATM    7  C   UNL     1     -11.134   2.205 -33.665  1.00  0.00     0.055 C 
HETATM    8  C   UNL     1     -13.477   3.121 -33.987  1.00  0.00     0.038 C 
HETATM    9  C   UNL     1     -14.056   1.707 -33.952  1.00  0.00     0.003 C 
HETATM   10  C   UNL     1     -13.027   0.666 -34.374  1.00  0.00     0.001 C 
HETATM   11  C   UNL     1     -11.735   0.781 -33.568  1.00  0.00     0.010 C 
ENDROOT
BRANCH   2  12
HETATM   12  C   UNL     1      -8.314   4.154 -34.024  1.00  0.00     0.338 C 
BRANCH  12  13
HETATM   13  C   UNL     1      -7.004   4.853 -33.660  1.00  0.00     0.248 C 
HETATM   14  N   UNL     1      -5.886   4.082 -33.925  1.00  0.00    -0.319 N 
HETATM   15  H   UNL     1      -6.001   3.101 -34.188  1.00  0.00     0.169 HD
HETATM   16  O   UNL     1      -7.015   5.963 -33.143  1.00  0.00    -0.271 OA
BRANCH  14  17
HETATM   17  C   UNL     1      -4.559   4.446 -33.708  1.00  0.00     0.094 A 
HETATM   18  S   UNL     1      -3.649   5.206 -34.913  1.00  0.00    -0.076 SA
HETATM   19  C   UNL     1      -2.265   5.303 -33.928  1.00  0.00    -0.012 A 
HETATM   20  C   UNL     1      -1.028   5.947 -34.472  1.00  0.00     0.057 C 
HETATM   21  C   UNL     1      -2.476   4.753 -32.671  1.00  0.00    -0.030 A 
HETATM   22  C   UNL     1      -1.438   4.731 -31.587  1.00  0.00     0.050 C 
HETATM   23  C   UNL     1      -3.825   4.211 -32.551  1.00  0.00     0.080 A 
BRANCH  23  24
HETATM   24  C   UNL     1      -4.431   3.522 -31.402  1.00  0.00     0.296 C 
HETATM   25  O   UNL     1      -4.132   2.366 -31.106  1.00  0.00    -0.259 OA
BRANCH  24  26
HETATM   26  O   UNL     1      -5.327   4.278 -30.715  1.00  0.00    -0.322 OA
HETATM   27  C   UNL     1      -6.430   3.554 -30.169  1.00  0.00     0.213 C 
ENDBRANCH  24  26
ENDBRANCH  23  24
ENDBRANCH  14  17
ENDBRANCH  12  13
ENDBRANCH   2  12
BRANCH   1  28
HETATM   28  C   UNL     1      -8.739   1.309 -33.108  1.00  0.00    -0.027 A 
HETATM   29  C   UNL     1      -8.028   0.784 -32.020  1.00  0.00     0.011 A 
HETATM   30  C   UNL     1      -7.052  -0.203 -32.204  1.00  0.00     0.030 A 
HETATM   31  C   UNL     1      -6.732  -0.695 -33.475  1.00  0.00     0.030 A 
HETATM   32  C   UNL     1      -7.422  -0.131 -34.558  1.00  0.00     0.030 A 
HETATM   33  C   UNL     1      -8.408   0.851 -34.387  1.00  0.00     0.011 A 
BRANCH  31  34
HETATM   34  N   UNL     1      -5.822  -1.730 -33.676  1.00  0.00    -0.382 N 
BRANCH  34  35
HETATM   35  C   UNL     1      -4.518  -1.738 -32.992  1.00  0.00     0.118 C 
HETATM   36  C   UNL     1      -3.706  -0.494 -33.327  1.00  0.00     0.026 C 
ENDBRANCH  34  35
BRANCH  34  37
HETATM   37  C   UNL     1      -5.886  -2.464 -34.951  1.00  0.00     0.118 C 
HETATM   38  C   UNL     1      -6.663  -3.766 -34.803  1.00  0.00     0.026 C 
ENDBRANCH  34  37
ENDBRANCH  31  34
ENDBRANCH   1  28
BRANCH   6  39
HETATM   39  O   UNL     1     -12.449   2.965 -31.789  1.00  0.00    -0.389 OA
HETATM   40  H   UNL     1     -12.010   2.129 -31.538  1.00  0.00     0.210 HD
ENDBRANCH   6  39
TORSDOF 10
ENDMDL
MODEL 2
REMARK VINA RESULT:      -8.4      2.355      6.709
REMARK  10 active torsions:
REMARK  status: ('A' for Active; 'I' for Inactive)
REMARK    1  A    between atoms: C_2  and  N_3 
REMARK    2  A    between atoms: N_3  and  C_4 
REMARK    3  A    between atoms: N_3  and  C_37 
REMARK    4  A    between atoms: C_7  and  C_8 
REMARK    5  A    between atoms: N_9  and  C_11 
REMARK    6  A    between atoms: C_11  and  C_12 
REMARK       I    between atoms: C_12  and  N_13 
REMARK    7  A    between atoms: N_13  and  C_14 
REMARK    8  A    between atoms: C_20  and  C_21 
REMARK    9  A    between atoms: C_21  and  O_22 
REMARK   10  A    between atoms: C_28  and  O_29 
ROOT
HETATM    1  C   UNL     1      -6.008  -0.681 -33.836  1.00  0.00     0.228 C 
HETATM    2  N   UNL     1      -5.094  -0.003 -32.814  1.00  0.00    -0.054 N 
HETATM    3  H   UNL     1      -5.003   0.937 -33.212  1.00  0.00     0.281 HD
HETATM    4  C   UNL     1      -3.680  -0.523 -32.834  1.00  0.00     0.239 C 
HETATM    5  C   UNL     1      -3.563  -2.039 -32.835  1.00  0.00     0.066 C 
HETATM    6  C   UNL     1      -4.478  -2.701 -33.863  1.00  0.00     0.065 C 
HETATM    7  C   UNL     1      -5.943  -2.221 -33.735  1.00  0.00     0.055 C 
HETATM    8  C   UNL     1      -4.402  -4.235 -33.749  1.00  0.00     0.038 C 
HETATM    9  C   UNL     1      -5.295  -4.936 -34.772  1.00  0.00     0.003 C 
HETATM   10  C   UNL     1      -6.731  -4.433 -34.706  1.00  0.00     0.001 C 
HETATM   11  C   UNL     1      -6.809  -2.911 -34.817  1.00  0.00     0.010 C 
ENDROOT
BRANCH   2  12
HETATM   12  C   UNL     1      -5.660   0.315 -31.418  1.00  0.00     0.338 C 
BRANCH  12  13
HETATM   13  C   UNL     1      -5.688   1.774 -30.961  1.00  0.00     0.248 C 
HETATM   14  N   UNL     1      -6.835   2.443 -31.352  1.00  0.00    -0.319 N 
HETATM   15  H   UNL     1      -7.480   1.997 -32.008  1.00  0.00     0.169 HD
HETATM   16  O   UNL     1      -4.739   2.255 -30.355  1.00  0.00    -0.271 OA
BRANCH  14  17
HETATM   17  C   UNL     1      -7.151   3.773 -31.082  1.00  0.00     0.094 A 
HETATM   18  S   UNL     1      -7.577   4.274 -29.525  1.00  0.00    -0.076 SA
HETATM   19  C   UNL     1      -7.787   5.892 -30.009  1.00  0.00    -0.012 A 
HETATM   20  C   UNL     1      -8.179   6.912 -28.987  1.00  0.00     0.057 C 
HETATM   21  C   UNL     1      -7.541   6.070 -31.363  1.00  0.00    -0.030 A 
HETATM   22  C   UNL     1      -7.619   7.399 -32.055  1.00  0.00     0.050 C 
HETATM   23  C   UNL     1      -7.200   4.807 -32.010  1.00  0.00     0.080 A 
BRANCH  23  24
HETATM   24  C   UNL     1      -6.901   4.560 -33.428  1.00  0.00     0.296 C 
HETATM   25  O   UNL     1      -7.724   4.790 -34.314  1.00  0.00    -0.259 OA
BRANCH  24  26
HETATM   26  O   UNL     1      -5.652   4.073 -33.652  1.00  0.00    -0.322 OA
HETATM   27  C   UNL     1      -4.815   4.913 -34.447  1.00  0.00     0.213 C 
ENDBRANCH  24  26
ENDBRANCH  23  24
ENDBRANCH  14  17
ENDBRANCH  12  13
ENDBRANCH   2  12
BRANCH   1  28
HETATM   28  C   UNL     1      -7.387  -0.042 -33.868  1.00  0.00    -0.027 A 
HETATM   29  C   UNL     1      -8.392  -0.550 -33.032  1.00  0.00     0.011 A 
HETATM   30  C   UNL     1      -9.662   0.039 -32.991  1.00  0.00     0.030 A 
HETATM   31  C   UNL     1      -9.989   1.142 -33.787  1.00  0.00     0.030 A 
HETATM   32  C   UNL     1      -8.987   1.614 -34.648  1.00  0.00     0.030 A 
HETATM   33  C   UNL     1      -7.709   1.040 -34.693  1.00  0.00     0.011 A 
BRANCH  31  34
HETATM   34  N   UNL     1     -11.218   1.792 -33.707  1.00  0.00    -0.382 N 
BRANCH  34  35
HETATM   35  C   UNL     1     -12.381   1.314 -34.473  1.00  0.00     0.118 C 
HETATM   36  C   UNL     1     -13.198   0.308 -33.672  1.00  0.00     0.026 C 
ENDBRANCH  34  35
BRANCH  34  37
HETATM   37  C   UNL     1     -11.217   3.223 -33.361  1.00  0.00     0.118 C 
HETATM   38  C   UNL     1     -10.740   3.449 -31.932  1.00  0.00     0.026 C 
ENDBRANCH  34  37
ENDBRANCH  31  34
ENDBRANCH   1  28
BRANCH   6  39
HETATM   39  O   UNL     1      -3.989  -2.291 -35.149  1.00  0.00    -0.389 OA
HETATM   40  H   UNL     1      -3.400  -1.521 -35.033  1.00  0.00     0.210 HD
ENDBRANCH   6  39
TORSDOF 10
ENDMDL
MODEL 3
REMARK VINA RESULT:      -8.4      2.226      6.454
REMARK  10 active torsions:
REMARK  status: ('A' for Active; 'I' for Inactive)
REMARK    1  A    between atoms: C_2  and  N_3 
REMARK    2  A    between atoms: N_3  and  C_4 
REMARK    3  A    between atoms: N_3  and  C_37 
REMARK    4  A    between atoms: C_7  and  C_8 
REMARK    5  A    between atoms: N_9  and  C_11 
REMARK    6  A    between atoms: C_11  and  C_12 
REMARK       I    between atoms: C_12  and  N_13 
REMARK    7  A    between atoms: N_13  and  C_14 
REMARK    8  A    between atoms: C_20  and  C_21 
REMARK    9  A    between atoms: C_21  and  O_22 
REMARK   10  A    between atoms: C_28  and  O_29 
ROOT
HETATM    1  C   UNL     1      -5.679  -0.884 -33.807  1.00  0.00     0.228 C 
HETATM    2  N   UNL     1      -4.769  -0.355 -32.697  1.00  0.00    -0.054 N 
HETATM    3  H   UNL     1      -4.551   0.586 -33.041  1.00  0.00     0.281 HD
HETATM    4  C   UNL     1      -3.420  -1.025 -32.654  1.00  0.00     0.239 C 
HETATM    5  C   UNL     1      -3.466  -2.544 -32.723  1.00  0.00     0.066 C 
HETATM    6  C   UNL     1      -4.375  -3.057 -33.838  1.00  0.00     0.065 C 
HETATM    7  C   UNL     1      -5.786  -2.424 -33.778  1.00  0.00     0.055 C 
HETATM    8  C   UNL     1      -4.471  -4.594 -33.797  1.00  0.00     0.038 C 
HETATM    9  C   UNL     1      -5.362  -5.148 -34.908  1.00  0.00     0.003 C 
HETATM   10  C   UNL     1      -6.737  -4.493 -34.907  1.00  0.00     0.001 C 
HETATM   11  C   UNL     1      -6.644  -2.968 -34.947  1.00  0.00     0.010 C 
ENDROOT
BRANCH   2  12
HETATM   12  C   UNL     1      -5.391  -0.036 -31.325  1.00  0.00     0.338 C 
BRANCH  12  13
HETATM   13  C   UNL     1      -5.537   1.430 -30.916  1.00  0.00     0.248 C 
HETATM   14  N   UNL     1      -5.322   2.309 -31.964  1.00  0.00    -0.319 N 
HETATM   15  H   UNL     1      -4.954   1.956 -32.850  1.00  0.00     0.169 HD
HETATM   16  O   UNL     1      -5.774   1.730 -29.753  1.00  0.00    -0.271 OA
BRANCH  14  17
HETATM   17  C   UNL     1      -5.391   3.699 -31.905  1.00  0.00     0.094 A 
HETATM   18  S   UNL     1      -6.875   4.500 -31.787  1.00  0.00    -0.076 SA
HETATM   19  C   UNL     1      -6.143   6.036 -31.766  1.00  0.00    -0.012 A 
HETATM   20  C   UNL     1      -7.007   7.252 -31.647  1.00  0.00     0.057 C 
HETATM   21  C   UNL     1      -4.760   5.959 -31.855  1.00  0.00    -0.030 A 
HETATM   22  C   UNL     1      -3.856   7.156 -31.827  1.00  0.00     0.050 C 
HETATM   23  C   UNL     1      -4.314   4.575 -31.975  1.00  0.00     0.080 A 
BRANCH  23  24
HETATM   24  C   UNL     1      -2.941   4.069 -32.122  1.00  0.00     0.296 C 
HETATM   25  O   UNL     1      -2.429   3.329 -31.282  1.00  0.00    -0.259 OA
BRANCH  24  26
HETATM   26  O   UNL     1      -2.317   4.486 -33.255  1.00  0.00    -0.322 OA
HETATM   27  C   UNL     1      -1.101   5.202 -33.042  1.00  0.00     0.213 C 
ENDBRANCH  24  26
ENDBRANCH  23  24
ENDBRANCH  14  17
ENDBRANCH  12  13
ENDBRANCH   2  12
BRANCH   1  28
HETATM   28  C   UNL     1      -6.976  -0.097 -33.893  1.00  0.00    -0.027 A 
HETATM   29  C   UNL     1      -8.099  -0.557 -33.191  1.00  0.00     0.011 A 
HETATM   30  C   UNL     1      -9.300   0.163 -33.200  1.00  0.00     0.030 A 
HETATM   31  C   UNL     1      -9.440   1.356 -33.918  1.00  0.00     0.030 A 
HETATM   32  C   UNL     1      -8.321   1.782 -34.650  1.00  0.00     0.030 A 
HETATM   33  C   UNL     1      -7.109   1.077 -34.641  1.00  0.00     0.011 A 
BRANCH  31  34
HETATM   34  N   UNL     1     -10.598   2.129 -33.880  1.00  0.00    -0.382 N 
BRANCH  34  35
HETATM   35  C   UNL     1     -11.922   1.505 -33.721  1.00  0.00     0.118 C 
HETATM   36  C   UNL     1     -12.685   1.476 -35.039  1.00  0.00     0.026 C 
ENDBRANCH  34  35
BRANCH  34  37
HETATM   37  C   UNL     1     -10.576   3.432 -34.564  1.00  0.00     0.118 C 
HETATM   38  C   UNL     1     -10.634   4.583 -33.567  1.00  0.00     0.026 C 
ENDBRANCH  34  37
ENDBRANCH  31  34
ENDBRANCH   1  28
BRANCH   6  39
HETATM   39  O   UNL     1      -3.758  -2.648 -35.069  1.00  0.00    -0.389 OA
HETATM   40  H   UNL     1      -2.906  -2.216 -34.869  1.00  0.00     0.210 HD
ENDBRANCH   6  39
TORSDOF 10
ENDMDL
MODEL 4
REMARK VINA RESULT:      -8.3      1.872      2.358
REMARK  10 active torsions:
REMARK  status: ('A' for Active; 'I' for Inactive)
REMARK    1  A    between atoms: C_2  and  N_3 
REMARK    2  A    between atoms: N_3  and  C_4 
REMARK    3  A    between atoms: N_3  and  C_37 
REMARK    4  A    between atoms: C_7  and  C_8 
REMARK    5  A    between atoms: N_9  and  C_11 
REMARK    6  A    between atoms: C_11  and  C_12 
REMARK       I    between atoms: C_12  and  N_13 
REMARK    7  A    between atoms: N_13  and  C_14 
REMARK    8  A    between atoms: C_20  and  C_21 
REMARK    9  A    between atoms: C_21  and  O_22 
REMARK   10  A    between atoms: C_28  and  O_29 
ROOT
HETATM    1  C   UNL     1      -8.130   1.919 -32.703  1.00  0.00     0.228 C 
HETATM    2  N   UNL     1      -7.294   3.200 -32.694  1.00  0.00    -0.054 N 
HETATM    3  H   UNL     1      -6.611   2.994 -31.958  1.00  0.00     0.281 HD
HETATM    4  C   UNL     1      -8.033   4.396 -32.151  1.00  0.00     0.239 C 
HETATM    5  C   UNL     1      -9.428   4.591 -32.724  1.00  0.00     0.066 C 
HETATM    6  C   UNL     1     -10.251   3.305 -32.723  1.00  0.00     0.065 C 
HETATM    7  C   UNL     1      -9.498   2.129 -33.388  1.00  0.00     0.055 C 
HETATM    8  C   UNL     1     -11.612   3.530 -33.409  1.00  0.00     0.038 C 
HETATM    9  C   UNL     1     -12.473   2.267 -33.415  1.00  0.00     0.003 C 
HETATM   10  C   UNL     1     -11.727   1.080 -34.010  1.00  0.00     0.001 C 
HETATM   11  C   UNL     1     -10.377   0.855 -33.331  1.00  0.00     0.010 C 
ENDROOT
BRANCH   2  12
HETATM   12  C   UNL     1      -6.369   3.484 -33.892  1.00  0.00     0.338 C 
BRANCH  12  13
HETATM   13  C   UNL     1      -5.262   4.525 -33.724  1.00  0.00     0.248 C 
HETATM   14  N   UNL     1      -4.604   4.427 -32.511  1.00  0.00    -0.319 N 
HETATM   15  H   UNL     1      -4.972   3.806 -31.787  1.00  0.00     0.169 HD
HETATM   16  O   UNL     1      -5.062   5.364 -34.593  1.00  0.00    -0.271 OA
BRANCH  14  17
HETATM   17  C   UNL     1      -3.551   5.228 -32.073  1.00  0.00     0.094 A 
HETATM   18  S   UNL     1      -1.942   4.797 -32.362  1.00  0.00    -0.076 SA
HETATM   19  C   UNL     1      -1.340   6.181 -31.577  1.00  0.00    -0.012 A 
HETATM   20  C   UNL     1       0.140   6.396 -31.514  1.00  0.00     0.057 C 
HETATM   21  C   UNL     1      -2.355   6.987 -31.081  1.00  0.00    -0.030 A 
HETATM   22  C   UNL     1      -2.115   8.287 -30.373  1.00  0.00     0.050 C 
HETATM   23  C   UNL     1      -3.667   6.404 -31.341  1.00  0.00     0.080 A 
BRANCH  23  24
HETATM   24  C   UNL     1      -4.988   6.922 -30.955  1.00  0.00     0.296 C 
HETATM   25  O   UNL     1      -5.786   7.350 -31.788  1.00  0.00    -0.259 OA
BRANCH  24  26
HETATM   26  O   UNL     1      -5.231   6.873 -29.619  1.00  0.00    -0.322 OA
HETATM   27  C   UNL     1      -5.714   5.616 -29.143  1.00  0.00     0.213 C 
ENDBRANCH  24  26
ENDBRANCH  23  24
ENDBRANCH  14  17
ENDBRANCH  12  13
ENDBRANCH   2  12
BRANCH   1  28
HETATM   28  C   UNL     1      -7.310   0.716 -33.138  1.00  0.00    -0.027 A 
HETATM   29  C   UNL     1      -6.492   0.072 -32.199  1.00  0.00     0.011 A 
HETATM   30  C   UNL     1      -5.758  -1.070 -32.542  1.00  0.00     0.030 A 
HETATM   31  C   UNL     1      -5.794  -1.608 -33.834  1.00  0.00     0.030 A 
HETATM   32  C   UNL     1      -6.583  -0.930 -34.775  1.00  0.00     0.030 A 
HETATM   33  C   UNL     1      -7.330   0.209 -34.441  1.00  0.00     0.011 A 
BRANCH  31  34
HETATM   34  N   UNL     1      -5.135  -2.786 -34.179  1.00  0.00    -0.382 N 
BRANCH  34  35
HETATM   35  C   UNL     1      -3.745  -3.029 -33.760  1.00  0.00     0.118 C 
HETATM   36  C   UNL     1      -3.558  -4.454 -33.255  1.00  0.00     0.026 C 
ENDBRANCH  34  35
BRANCH  34  37
HETATM   37  C   UNL     1      -5.575  -3.487 -35.396  1.00  0.00     0.118 C 
HETATM   38  C   UNL     1      -6.682  -4.487 -35.092  1.00  0.00     0.026 C 
ENDBRANCH  34  37
ENDBRANCH  31  34
ENDBRANCH   1  28
BRANCH   6  39
HETATM   39  O   UNL     1     -10.461   2.971 -31.341  1.00  0.00    -0.389 OA
HETATM   40  H   UNL     1     -10.466   3.794 -30.815  1.00  0.00     0.210 HD
ENDBRANCH   6  39
TORSDOF 10
ENDMDL
MODEL 5
REMARK VINA RESULT:      -8.3      1.908      2.555
REMARK  10 active torsions:
REMARK  status: ('A' for Active; 'I' for Inactive)
REMARK    1  A    between atoms: C_2  and  N_3 
REMARK    2  A    between atoms: N_3  and  C_4 
REMARK    3  A    between atoms: N_3  and  C_37 
REMARK    4  A    between atoms: C_7  and  C_8 
REMARK    5  A    between atoms: N_9  and  C_11 
REMARK    6  A    between atoms: C_11  and  C_12 
REMARK       I    between atoms: C_12  and  N_13 
REMARK    7  A    between atoms: N_13  and  C_14 
REMARK    8  A    between atoms: C_20  and  C_21 
REMARK    9  A    between atoms: C_21  and  O_22 
REMARK   10  A    between atoms: C_28  and  O_29 
ROOT
HETATM    1  C   UNL     1      -8.569   2.113 -32.668  1.00  0.00     0.228 C 
HETATM    2  N   UNL     1      -7.777   3.400 -32.426  1.00  0.00    -0.054 N 
HETATM    3  H   UNL     1      -7.198   3.136 -31.621  1.00  0.00     0.281 HD
HETATM    4  C   UNL     1      -8.615   4.531 -31.890  1.00  0.00     0.239 C 
HETATM    5  C   UNL     1      -9.920   4.758 -32.636  1.00  0.00     0.066 C 
HETATM    6  C   UNL     1     -10.702   3.467 -32.867  1.00  0.00     0.065 C 
HETATM    7  C   UNL     1      -9.832   2.367 -33.520  1.00  0.00     0.055 C 
HETATM    8  C   UNL     1     -11.958   3.736 -33.717  1.00  0.00     0.038 C 
HETATM    9  C   UNL     1     -12.776   2.468 -33.958  1.00  0.00     0.003 C 
HETATM   10  C   UNL     1     -11.923   1.350 -34.544  1.00  0.00     0.001 C 
HETATM   11  C   UNL     1     -10.676   1.082 -33.702  1.00  0.00     0.010 C 
ENDROOT
BRANCH   2  12
HETATM   12  C   UNL     1      -6.700   3.804 -33.450  1.00  0.00     0.338 C 
BRANCH  12  13
HETATM   13  C   UNL     1      -5.704   4.898 -33.063  1.00  0.00     0.248 C 
HETATM   14  N   UNL     1      -5.005   4.610 -31.903  1.00  0.00    -0.319 N 
HETATM   15  H   UNL     1      -5.286   3.811 -31.331  1.00  0.00     0.169 HD
HETATM   16  O   UNL     1      -5.617   5.923 -33.728  1.00  0.00    -0.271 OA
BRANCH  14  17
HETATM   17  C   UNL     1      -4.031   5.406 -31.305  1.00  0.00     0.094 A 
HETATM   18  S   UNL     1      -4.439   6.577 -30.156  1.00  0.00    -0.076 SA
HETATM   19  C   UNL     1      -2.820   7.056 -29.942  1.00  0.00    -0.012 A 
HETATM   20  C   UNL     1      -2.505   8.137 -28.955  1.00  0.00     0.057 C 
HETATM   21  C   UNL     1      -1.949   6.335 -30.747  1.00  0.00    -0.030 A 
HETATM   22  C   UNL     1      -0.461   6.525 -30.741  1.00  0.00     0.050 C 
HETATM   23  C   UNL     1      -2.669   5.381 -31.583  1.00  0.00     0.080 A 
BRANCH  23  24
HETATM   24  C   UNL     1      -2.124   4.455 -32.587  1.00  0.00     0.296 C 
HETATM   25  O   UNL     1      -2.332   3.244 -32.534  1.00  0.00    -0.259 OA
BRANCH  24  26
HETATM   26  O   UNL     1      -1.393   5.063 -33.559  1.00  0.00    -0.322 OA
HETATM   27  C   UNL     1      -2.155   5.837 -34.487  1.00  0.00     0.213 C 
ENDBRANCH  24  26
ENDBRANCH  23  24
ENDBRANCH  14  17
ENDBRANCH  12  13
ENDBRANCH   2  12
BRANCH   1  28
HETATM   28  C   UNL     1      -7.664   0.967 -33.087  1.00  0.00    -0.027 A 
HETATM   29  C   UNL     1      -6.906   0.305 -32.111  1.00  0.00     0.011 A 
HETATM   30  C   UNL     1      -6.098  -0.789 -32.444  1.00  0.00     0.030 A 
HETATM   31  C   UNL     1      -5.998  -1.259 -33.759  1.00  0.00     0.030 A 
HETATM   32  C   UNL     1      -6.730  -0.562 -34.732  1.00  0.00     0.030 A 
HETATM   33  C   UNL     1      -7.550   0.529 -34.411  1.00  0.00     0.011 A 
BRANCH  31  34
HETATM   34  N   UNL     1      -5.264  -2.392 -34.102  1.00  0.00    -0.382 N 
BRANCH  34  35
HETATM   35  C   UNL     1      -3.841  -2.512 -33.742  1.00  0.00     0.118 C 
HETATM   36  C   UNL     1      -3.599  -3.699 -32.819  1.00  0.00     0.026 C 
ENDBRANCH  34  35
BRANCH  34  37
HETATM   37  C   UNL     1      -5.699  -3.163 -35.277  1.00  0.00     0.118 C 
HETATM   38  C   UNL     1      -6.673  -4.268 -34.887  1.00  0.00     0.026 C 
ENDBRANCH  34  37
ENDBRANCH  31  34
ENDBRANCH   1  28
BRANCH   6  39
HETATM   39  O   UNL     1     -11.095   3.005 -31.565  1.00  0.00    -0.389 OA
HETATM   40  H   UNL     1     -12.048   2.790 -31.580  1.00  0.00     0.210 HD
ENDBRANCH   6  39
TORSDOF 10
ENDMDL
MODEL 6
REMARK VINA RESULT:      -8.2      2.174      6.401
REMARK  10 active torsions:
REMARK  status: ('A' for Active; 'I' for Inactive)
REMARK    1  A    between atoms: C_2  and  N_3 
REMARK    2  A    between atoms: N_3  and  C_4 
REMARK    3  A    between atoms: N_3  and  C_37 
REMARK    4  A    between atoms: C_7  and  C_8 
REMARK    5  A    between atoms: N_9  and  C_11 
REMARK    6  A    between atoms: C_11  and  C_12 
REMARK       I    between atoms: C_12  and  N_13 
REMARK    7  A    between atoms: N_13  and  C_14 
REMARK    8  A    between atoms: C_20  and  C_21 
REMARK    9  A    between atoms: C_21  and  O_22 
REMARK   10  A    between atoms: C_28  and  O_29 
ROOT
HETATM    1  C   UNL     1      -6.115  -0.660 -33.813  1.00  0.00     0.228 C 
HETATM    2  N   UNL     1      -5.130   0.018 -32.858  1.00  0.00    -0.054 N 
HETATM    3  H   UNL     1      -5.088   0.965 -33.247  1.00  0.00     0.281 HD
HETATM    4  C   UNL     1      -3.714  -0.477 -33.004  1.00  0.00     0.239 C 
HETATM    5  C   UNL     1      -3.574  -1.991 -33.039  1.00  0.00     0.066 C 
HETATM    6  C   UNL     1      -4.560  -2.653 -33.999  1.00  0.00     0.065 C 
HETATM    7  C   UNL     1      -6.017  -2.200 -33.742  1.00  0.00     0.055 C 
HETATM    8  C   UNL     1      -4.450  -4.187 -33.918  1.00  0.00     0.038 C 
HETATM    9  C   UNL     1      -5.414  -4.888 -34.875  1.00  0.00     0.003 C 
HETATM   10  C   UNL     1      -6.847  -4.410 -34.682  1.00  0.00     0.001 C 
HETATM   11  C   UNL     1      -6.958  -2.888 -34.761  1.00  0.00     0.010 C 
ENDROOT
BRANCH   2  12
HETATM   12  C   UNL     1      -5.583   0.305 -31.415  1.00  0.00     0.338 C 
BRANCH  12  13
HETATM   13  C   UNL     1      -5.619   1.758 -30.940  1.00  0.00     0.248 C 
HETATM   14  N   UNL     1      -5.472   2.669 -31.972  1.00  0.00    -0.319 N 
HETATM   15  H   UNL     1      -5.213   2.338 -32.904  1.00  0.00     0.169 HD
HETATM   16  O   UNL     1      -5.721   2.020 -29.749  1.00  0.00    -0.271 OA
BRANCH  14  17
HETATM   17  C   UNL     1      -5.469   4.058 -31.856  1.00  0.00     0.094 A 
HETATM   18  S   UNL     1      -4.100   4.890 -31.316  1.00  0.00    -0.076 SA
HETATM   19  C   UNL     1      -4.861   6.406 -31.454  1.00  0.00    -0.012 A 
HETATM   20  C   UNL     1      -4.090   7.641 -31.108  1.00  0.00     0.057 C 
HETATM   21  C   UNL     1      -6.168   6.298 -31.908  1.00  0.00    -0.030 A 
HETATM   22  C   UNL     1      -7.064   7.475 -32.154  1.00  0.00     0.050 C 
HETATM   23  C   UNL     1      -6.543   4.902 -32.111  1.00  0.00     0.080 A 
BRANCH  23  24
HETATM   24  C   UNL     1      -7.837   4.361 -32.552  1.00  0.00     0.296 C 
HETATM   25  O   UNL     1      -8.344   4.683 -33.626  1.00  0.00    -0.259 OA
BRANCH  24  26
HETATM   26  O   UNL     1      -8.396   3.484 -31.676  1.00  0.00    -0.322 OA
HETATM   27  C   UNL     1      -8.932   4.078 -30.493  1.00  0.00     0.213 C 
ENDBRANCH  24  26
ENDBRANCH  23  24
ENDBRANCH  14  17
ENDBRANCH  12  13
ENDBRANCH   2  12
BRANCH   1  28
HETATM   28  C   UNL     1      -7.501  -0.046 -33.719  1.00  0.00    -0.027 A 
HETATM   29  C   UNL     1      -7.855   0.976 -34.612  1.00  0.00     0.011 A 
HETATM   30  C   UNL     1      -9.139   1.536 -34.596  1.00  0.00     0.030 A 
HETATM   31  C   UNL     1     -10.115   1.118 -33.684  1.00  0.00     0.030 A 
HETATM   32  C   UNL     1      -9.734   0.124 -32.769  1.00  0.00     0.030 A 
HETATM   33  C   UNL     1      -8.455  -0.452 -32.781  1.00  0.00     0.011 A 
BRANCH  31  34
HETATM   34  N   UNL     1     -11.419   1.603 -33.699  1.00  0.00    -0.382 N 
BRANCH  34  35
HETATM   35  C   UNL     1     -12.449   0.989 -34.554  1.00  0.00     0.118 C 
HETATM   36  C   UNL     1     -13.370   0.081 -33.748  1.00  0.00     0.026 C 
ENDBRANCH  34  35
BRANCH  34  37
HETATM   37  C   UNL     1     -11.630   3.019 -33.353  1.00  0.00     0.118 C 
HETATM   38  C   UNL     1     -12.322   3.770 -34.482  1.00  0.00     0.026 C 
ENDBRANCH  34  37
ENDBRANCH  31  34
ENDBRANCH   1  28
BRANCH   6  39
HETATM   39  O   UNL     1      -4.186  -2.215 -35.315  1.00  0.00    -0.389 OA
HETATM   40  H   UNL     1      -4.188  -1.238 -35.336  1.00  0.00     0.210 HD
ENDBRANCH   6  39
TORSDOF 10
ENDMDL
MODEL 7
REMARK VINA RESULT:      -7.7      2.882      7.031
REMARK  10 active torsions:
REMARK  status: ('A' for Active; 'I' for Inactive)
REMARK    1  A    between atoms: C_2  and  N_3 
REMARK    2  A    between atoms: N_3  and  C_4 
REMARK    3  A    between atoms: N_3  and  C_37 
REMARK    4  A    between atoms: C_7  and  C_8 
REMARK    5  A    between atoms: N_9  and  C_11 
REMARK    6  A    between atoms: C_11  and  C_12 
REMARK       I    between atoms: C_12  and  N_13 
REMARK    7  A    between atoms: N_13  and  C_14 
REMARK    8  A    between atoms: C_20  and  C_21 
REMARK    9  A    between atoms: C_21  and  O_22 
REMARK   10  A    between atoms: C_28  and  O_29 
ROOT
HETATM    1  C   UNL     1      -6.710   4.161 -32.295  1.00  0.00     0.228 C 
HETATM    2  N   UNL     1      -6.972   2.655 -32.361  1.00  0.00    -0.054 N 
HETATM    3  H   UNL     1      -6.604   2.424 -33.290  1.00  0.00     0.281 HD
HETATM    4  C   UNL     1      -8.433   2.303 -32.473  1.00  0.00     0.239 C 
HETATM    5  C   UNL     1      -9.335   3.028 -31.487  1.00  0.00     0.066 C 
HETATM    6  C   UNL     1      -9.065   4.530 -31.434  1.00  0.00     0.065 C 
HETATM    7  C   UNL     1      -7.568   4.847 -31.209  1.00  0.00     0.055 C 
HETATM    8  C   UNL     1      -9.928   5.199 -30.347  1.00  0.00     0.038 C 
HETATM    9  C   UNL     1      -9.696   6.708 -30.273  1.00  0.00     0.003 C 
HETATM   10  C   UNL     1      -8.220   7.045 -30.113  1.00  0.00     0.001 C 
HETATM   11  C   UNL     1      -7.362   6.381 -31.190  1.00  0.00     0.010 C 
ENDROOT
BRANCH   2  12
HETATM   12  C   UNL     1      -6.135   1.723 -31.467  1.00  0.00     0.338 C 
BRANCH  12  13
HETATM   13  C   UNL     1      -6.157   0.222 -31.760  1.00  0.00     0.248 C 
HETATM   14  N   UNL     1      -5.589  -0.100 -32.980  1.00  0.00    -0.319 N 
HETATM   15  H   UNL     1      -5.344   0.645 -33.635  1.00  0.00     0.169 HD
HETATM   16  O   UNL     1      -6.682  -0.557 -30.975  1.00  0.00    -0.271 OA
BRANCH  14  17
HETATM   17  C   UNL     1      -5.457  -1.378 -33.520  1.00  0.00     0.094 A 
HETATM   18  S   UNL     1      -6.626  -2.015 -34.563  1.00  0.00    -0.076 SA
HETATM   19  C   UNL     1      -5.784  -3.481 -34.752  1.00  0.00    -0.012 A 
HETATM   20  C   UNL     1      -6.352  -4.537 -35.648  1.00  0.00     0.057 C 
HETATM   21  C   UNL     1      -4.604  -3.507 -34.020  1.00  0.00    -0.030 A 
HETATM   22  C   UNL     1      -3.647  -4.662 -34.025  1.00  0.00     0.050 C 
HETATM   23  C   UNL     1      -4.427  -2.275 -33.259  1.00  0.00     0.080 A 
BRANCH  23  24
HETATM   24  C   UNL     1      -3.335  -1.919 -32.342  1.00  0.00     0.296 C 
HETATM   25  O   UNL     1      -2.850  -2.737 -31.561  1.00  0.00    -0.259 OA
BRANCH  24  26
HETATM   26  O   UNL     1      -2.922  -0.628 -32.449  1.00  0.00    -0.322 OA
HETATM   27  C   UNL     1      -2.672   0.028 -31.206  1.00  0.00     0.213 C 
ENDBRANCH  24  26
ENDBRANCH  23  24
ENDBRANCH  14  17
ENDBRANCH  12  13
ENDBRANCH   2  12
BRANCH   1  28
HETATM   28  C   UNL     1      -5.224   4.475 -32.310  1.00  0.00    -0.027 A 
HETATM   29  C   UNL     1      -4.536   4.460 -33.531  1.00  0.00     0.011 A 
HETATM   30  C   UNL     1      -3.178   4.792 -33.599  1.00  0.00     0.030 A 
HETATM   31  C   UNL     1      -2.444   5.135 -32.457  1.00  0.00     0.030 A 
HETATM   32  C   UNL     1      -3.135   5.105 -31.236  1.00  0.00     0.030 A 
HETATM   33  C   UNL     1      -4.497   4.784 -31.155  1.00  0.00     0.011 A 
BRANCH  31  34
HETATM   34  N   UNL     1      -1.114   5.544 -32.509  1.00  0.00    -0.382 N 
BRANCH  34  35
HETATM   35  C   UNL     1      -0.153   5.135 -31.471  1.00  0.00     0.118 C 
HETATM   36  C   UNL     1       0.352   6.335 -30.679  1.00  0.00     0.026 C 
ENDBRANCH  34  35
BRANCH  34  37
HETATM   37  C   UNL     1      -0.808   6.800 -33.213  1.00  0.00     0.118 C 
HETATM   38  C   UNL     1      -1.824   7.885 -32.882  1.00  0.00     0.026 C 
ENDBRANCH  34  37
ENDBRANCH  31  34
ENDBRANCH   1  28
BRANCH   6  39
HETATM   39  O   UNL     1      -9.437   5.044 -32.723  1.00  0.00    -0.389 OA
HETATM   40  H   UNL     1     -10.389   5.264 -32.714  1.00  0.00     0.210 HD
ENDBRANCH   6  39
TORSDOF 10
ENDMDL
MODEL 8
REMARK VINA RESULT:      -7.5      2.717      6.588
REMARK  10 active torsions:
REMARK  status: ('A' for Active; 'I' for Inactive)
REMARK    1  A    between atoms: C_2  and  N_3 
REMARK    2  A    between atoms: N_3  and  C_4 
REMARK    3  A    between atoms: N_3  and  C_37 
REMARK    4  A    between atoms: C_7  and  C_8 
REMARK    5  A    between atoms: N_9  and  C_11 
REMARK    6  A    between atoms: C_11  and  C_12 
REMARK       I    between atoms: C_12  and  N_13 
REMARK    7  A    between atoms: N_13  and  C_14 
REMARK    8  A    between atoms: C_20  and  C_21 
REMARK    9  A    between atoms: C_21  and  O_22 
REMARK   10  A    between atoms: C_28  and  O_29 
ROOT
HETATM    1  C   UNL     1      -5.494   0.824 -32.836  1.00  0.00     0.228 C 
HETATM    2  N   UNL     1      -4.911   1.388 -31.539  1.00  0.00    -0.054 N 
HETATM    3  H   UNL     1      -4.781   2.375 -31.785  1.00  0.00     0.281 HD
HETATM    4  C   UNL     1      -3.508   0.917 -31.256  1.00  0.00     0.239 C 
HETATM    5  C   UNL     1      -3.302  -0.582 -31.407  1.00  0.00     0.066 C 
HETATM    6  C   UNL     1      -3.886  -1.130 -32.707  1.00  0.00     0.065 C 
HETATM    7  C   UNL     1      -5.362  -0.713 -32.905  1.00  0.00     0.055 C 
HETATM    8  C   UNL     1      -3.746  -2.663 -32.762  1.00  0.00     0.038 C 
HETATM    9  C   UNL     1      -4.308  -3.250 -34.057  1.00  0.00     0.003 C 
HETATM   10  C   UNL     1      -5.742  -2.801 -34.303  1.00  0.00     0.001 C 
HETATM   11  C   UNL     1      -5.883  -1.280 -34.249  1.00  0.00     0.010 C 
ENDROOT
BRANCH   2  12
HETATM   12  C   UNL     1      -5.829   1.505 -30.308  1.00  0.00     0.338 C 
BRANCH  12  13
HETATM   13  C   UNL     1      -6.363   2.886 -29.929  1.00  0.00     0.248 C 
HETATM   14  N   UNL     1      -5.379   3.858 -29.895  1.00  0.00    -0.319 N 
HETATM   15  H   UNL     1      -4.397   3.584 -29.971  1.00  0.00     0.169 HD
HETATM   16  O   UNL     1      -7.545   3.039 -29.648  1.00  0.00    -0.271 OA
BRANCH  14  17
HETATM   17  C   UNL     1      -5.557   5.206 -29.591  1.00  0.00     0.094 A 
HETATM   18  S   UNL     1      -5.603   5.745 -27.989  1.00  0.00    -0.076 SA
HETATM   19  C   UNL     1      -5.829   7.367 -28.449  1.00  0.00    -0.012 A 
HETATM   20  C   UNL     1      -5.933   8.417 -27.388  1.00  0.00     0.057 C 
HETATM   21  C   UNL     1      -5.876   7.519 -29.828  1.00  0.00    -0.030 A 
HETATM   22  C   UNL     1      -6.034   8.844 -30.514  1.00  0.00     0.050 C 
HETATM   23  C   UNL     1      -5.753   6.234 -30.507  1.00  0.00     0.080 A 
BRANCH  23  24
HETATM   24  C   UNL     1      -5.786   5.957 -31.950  1.00  0.00     0.296 C 
HETATM   25  O   UNL     1      -6.784   6.187 -32.633  1.00  0.00    -0.259 OA
BRANCH  24  26
HETATM   26  O   UNL     1      -4.627   5.443 -32.441  1.00  0.00    -0.322 OA
HETATM   27  C   UNL     1      -3.577   6.395 -32.620  1.00  0.00     0.213 C 
ENDBRANCH  24  26
ENDBRANCH  23  24
ENDBRANCH  14  17
ENDBRANCH  12  13
ENDBRANCH   2  12
BRANCH   1  28
HETATM   28  C   UNL     1      -6.857   1.421 -33.145  1.00  0.00    -0.027 A 
HETATM   29  C   UNL     1      -8.007   0.663 -32.884  1.00  0.00     0.011 A 
HETATM   30  C   UNL     1      -9.285   1.192 -33.106  1.00  0.00     0.030 A 
HETATM   31  C   UNL     1      -9.472   2.484 -33.610  1.00  0.00     0.030 A 
HETATM   32  C   UNL     1      -8.312   3.215 -33.905  1.00  0.00     0.030 A 
HETATM   33  C   UNL     1      -7.026   2.702 -33.679  1.00  0.00     0.011 A 
BRANCH  31  34
HETATM   34  N   UNL     1     -10.730   3.059 -33.765  1.00  0.00    -0.382 N 
BRANCH  34  35
HETATM   35  C   UNL     1     -10.989   4.446 -33.344  1.00  0.00     0.118 C 
HETATM   36  C   UNL     1     -11.283   5.344 -34.538  1.00  0.00     0.026 C 
ENDBRANCH  34  35
BRANCH  34  37
HETATM   37  C   UNL     1     -11.898   2.163 -33.785  1.00  0.00     0.118 C 
HETATM   38  C   UNL     1     -12.284   1.785 -35.209  1.00  0.00     0.026 C 
ENDBRANCH  34  37
ENDBRANCH  31  34
ENDBRANCH   1  28
BRANCH   6  39
HETATM   39  O   UNL     1      -3.114  -0.541 -33.766  1.00  0.00    -0.389 OA
HETATM   40  H   UNL     1      -3.203   0.431 -33.721  1.00  0.00     0.210 HD
ENDBRANCH   6  39
TORSDOF 10
ENDMDL
MODEL 9
REMARK VINA RESULT:      -7.4      2.962      7.422
REMARK  10 active torsions:
REMARK  status: ('A' for Active; 'I' for Inactive)
REMARK    1  A    between atoms: C_2  and  N_3 
REMARK    2  A    between atoms: N_3  and  C_4 
REMARK    3  A    between atoms: N_3  and  C_37 
REMARK    4  A    between atoms: C_7  and  C_8 
REMARK    5  A    between atoms: N_9  and  C_11 
REMARK    6  A    between atoms: C_11  and  C_12 
REMARK       I    between atoms: C_12  and  N_13 
REMARK    7  A    between atoms: N_13  and  C_14 
REMARK    8  A    between atoms: C_20  and  C_21 
REMARK    9  A    between atoms: C_21  and  O_22 
REMARK   10  A    between atoms: C_28  and  O_29 
ROOT
HETATM    1  C   UNL     1      -5.933   5.173 -32.714  1.00  0.00     0.228 C 
HETATM    2  N   UNL     1      -6.060   3.653 -32.831  1.00  0.00    -0.054 N 
HETATM    3  H   UNL     1      -5.299   3.433 -33.482  1.00  0.00     0.281 HD
HETATM    4  C   UNL     1      -7.291   3.209 -33.579  1.00  0.00     0.239 C 
HETATM    5  C   UNL     1      -8.577   3.889 -33.140  1.00  0.00     0.066 C 
HETATM    6  C   UNL     1      -8.436   5.406 -33.032  1.00  0.00     0.065 C 
HETATM    7  C   UNL     1      -7.224   5.818 -32.164  1.00  0.00     0.055 C 
HETATM    8  C   UNL     1      -9.731   6.034 -32.482  1.00  0.00     0.038 C 
HETATM    9  C   UNL     1      -9.634   7.556 -32.372  1.00  0.00     0.003 C 
HETATM   10  C   UNL     1      -8.411   7.986 -31.573  1.00  0.00     0.001 C 
HETATM   11  C   UNL     1      -7.126   7.363 -32.116  1.00  0.00     0.010 C 
ENDROOT
BRANCH   2  12
HETATM   12  C   UNL     1      -5.677   2.787 -31.617  1.00  0.00     0.338 C 
BRANCH  12  13
HETATM   13  C   UNL     1      -5.759   1.266 -31.755  1.00  0.00     0.248 C 
HETATM   14  N   UNL     1      -5.161   0.794 -32.911  1.00  0.00    -0.319 N 
HETATM   15  H   UNL     1      -4.856   1.456 -33.627  1.00  0.00     0.169 HD
HETATM   16  O   UNL     1      -6.350   0.597 -30.917  1.00  0.00    -0.271 OA
BRANCH  14  17
HETATM   17  C   UNL     1      -5.069  -0.538 -33.310  1.00  0.00     0.094 A 
HETATM   18  S   UNL     1      -3.769  -1.509 -32.833  1.00  0.00    -0.076 SA
HETATM   19  C   UNL     1      -4.366  -2.867 -33.667  1.00  0.00    -0.012 A 
HETATM   20  C   UNL     1      -3.601  -4.152 -33.606  1.00  0.00     0.057 C 
HETATM   21  C   UNL     1      -5.559  -2.598 -34.323  1.00  0.00    -0.030 A 
HETATM   22  C   UNL     1      -6.326  -3.620 -35.109  1.00  0.00     0.050 C 
HETATM   23  C   UNL     1      -5.959  -1.206 -34.143  1.00  0.00     0.080 A 
BRANCH  23  24
HETATM   24  C   UNL     1      -7.134  -0.516 -34.695  1.00  0.00     0.296 C 
HETATM   25  O   UNL     1      -7.032   0.335 -35.578  1.00  0.00    -0.259 OA
BRANCH  24  26
HETATM   26  O   UNL     1      -8.314  -0.912 -34.149  1.00  0.00    -0.322 OA
HETATM   27  C   UNL     1      -8.871  -0.003 -33.200  1.00  0.00     0.213 C 
ENDBRANCH  24  26
ENDBRANCH  23  24
ENDBRANCH  14  17
ENDBRANCH  12  13
ENDBRANCH   2  12
BRANCH   1  28
HETATM   28  C   UNL     1      -4.620   5.579 -32.065  1.00  0.00    -0.027 A 
HETATM   29  C   UNL     1      -3.443   5.541 -32.826  1.00  0.00     0.011 A 
HETATM   30  C   UNL     1      -2.220   5.954 -32.285  1.00  0.00     0.030 A 
HETATM   31  C   UNL     1      -2.112   6.404 -30.964  1.00  0.00     0.030 A 
HETATM   32  C   UNL     1      -3.290   6.398 -30.201  1.00  0.00     0.030 A 
HETATM   33  C   UNL     1      -4.523   5.996 -30.734  1.00  0.00     0.011 A 
BRANCH  31  34
HETATM   34  N   UNL     1      -0.924   6.893 -30.427  1.00  0.00    -0.382 N 
BRANCH  34  35
HETATM   35  C   UNL     1      -0.915   8.079 -29.555  1.00  0.00     0.118 C 
HETATM   36  C   UNL     1       0.223   8.017 -28.545  1.00  0.00     0.026 C 
ENDBRANCH  34  35
BRANCH  34  37
HETATM   37  C   UNL     1       0.324   6.623 -31.161  1.00  0.00     0.118 C 
HETATM   38  C   UNL     1       0.871   5.239 -30.837  1.00  0.00     0.026 C 
ENDBRANCH  34  37
ENDBRANCH  31  34
ENDBRANCH   1  28
BRANCH   6  39
HETATM   39  O   UNL     1      -8.205   5.878 -34.368  1.00  0.00    -0.389 OA
HETATM   40  H   UNL     1      -7.242   5.942 -34.519  1.00  0.00     0.210 HD
ENDBRANCH   6  39
TORSDOF 10
ENDMDL
MODEL 10
REMARK VINA RESULT:      -7.3      2.631      7.636
REMARK  10 active torsions:
REMARK  status: ('A' for Active; 'I' for Inactive)
REMARK    1  A    between atoms: C_2  and  N_3 
REMARK    2  A    between atoms: N_3  and  C_4 
REMARK    3  A    between atoms: N_3  and  C_37 
REMARK    4  A    between atoms: C_7  and  C_8 
REMARK    5  A    between atoms: N_9  and  C_11 
REMARK    6  A    between atoms: C_11  and  C_12 
REMARK       I    between atoms: C_12  and  N_13 
REMARK    7  A    between atoms: N_13  and  C_14 
REMARK    8  A    between atoms: C_20  and  C_21 
REMARK    9  A    between atoms: C_21  and  O_22 
REMARK   10  A    between atoms: C_28  and  O_29 
ROOT
HETATM    1  C   UNL     1      -3.793   5.243 -31.767  1.00  0.00     0.228 C 
HETATM    2  N   UNL     1      -4.924   5.909 -30.981  1.00  0.00    -0.054 N 
HETATM    3  H   UNL     1      -5.694   5.870 -31.657  1.00  0.00     0.281 HD
HETATM    4  C   UNL     1      -4.723   7.389 -30.776  1.00  0.00     0.239 C 
HETATM    5  C   UNL     1      -3.338   7.776 -30.283  1.00  0.00     0.066 C 
HETATM    6  C   UNL     1      -2.220   7.106 -31.079  1.00  0.00     0.065 C 
HETATM    7  C   UNL     1      -2.407   5.574 -31.171  1.00  0.00     0.055 C 
HETATM    8  C   UNL     1      -0.845   7.446 -30.474  1.00  0.00     0.038 C 
HETATM    9  C   UNL     1       0.304   6.805 -31.251  1.00  0.00     0.003 C 
HETATM   10  C   UNL     1       0.109   5.303 -31.409  1.00  0.00     0.001 C 
HETATM   11  C   UNL     1      -1.255   4.963 -32.008  1.00  0.00     0.010 C 
ENDROOT
BRANCH   2  12
HETATM   12  C   UNL     1      -5.535   5.154 -29.787  1.00  0.00     0.338 C 
BRANCH  12  13
HETATM   13  C   UNL     1      -7.057   5.026 -29.709  1.00  0.00     0.248 C 
HETATM   14  N   UNL     1      -7.672   5.116 -30.946  1.00  0.00    -0.319 N 
HETATM   15  H   UNL     1      -7.124   5.397 -31.762  1.00  0.00     0.169 HD
HETATM   16  O   UNL     1      -7.616   4.905 -28.627  1.00  0.00    -0.271 OA
BRANCH  14  17
HETATM   17  C   UNL     1      -9.040   5.031 -31.198  1.00  0.00     0.094 A 
HETATM   18  S   UNL     1     -10.099   6.257 -30.716  1.00  0.00    -0.076 SA
HETATM   19  C   UNL     1     -11.458   5.451 -31.347  1.00  0.00    -0.012 A 
HETATM   20  C   UNL     1     -12.804   6.097 -31.237  1.00  0.00     0.057 C 
HETATM   21  C   UNL     1     -11.124   4.235 -31.928  1.00  0.00    -0.030 A 
HETATM   22  C   UNL     1     -12.118   3.329 -32.592  1.00  0.00     0.050 C 
HETATM   23  C   UNL     1      -9.695   3.967 -31.808  1.00  0.00     0.080 A 
BRANCH  23  24
HETATM   24  C   UNL     1      -8.948   2.784 -32.261  1.00  0.00     0.296 C 
HETATM   25  O   UNL     1      -8.474   1.972 -31.467  1.00  0.00    -0.259 OA
BRANCH  24  26
HETATM   26  O   UNL     1      -8.845   2.681 -33.612  1.00  0.00    -0.322 OA
HETATM   27  C   UNL     1      -9.241   1.418 -34.149  1.00  0.00     0.213 C 
ENDBRANCH  24  26
ENDBRANCH  23  24
ENDBRANCH  14  17
ENDBRANCH  12  13
ENDBRANCH   2  12
BRANCH   1  28
HETATM   28  C   UNL     1      -4.096   3.782 -32.058  1.00  0.00    -0.027 A 
HETATM   29  C   UNL     1      -3.325   2.790 -31.436  1.00  0.00     0.011 A 
HETATM   30  C   UNL     1      -3.600   1.432 -31.635  1.00  0.00     0.030 A 
HETATM   31  C   UNL     1      -4.639   1.004 -32.470  1.00  0.00     0.030 A 
HETATM   32  C   UNL     1      -5.375   2.007 -33.118  1.00  0.00     0.030 A 
HETATM   33  C   UNL     1      -5.117   3.371 -32.920  1.00  0.00     0.011 A 
BRANCH  31  34
HETATM   34  N   UNL     1      -4.981  -0.337 -32.623  1.00  0.00    -0.382 N 
BRANCH  34  35
HETATM   35  C   UNL     1      -4.033  -1.302 -33.204  1.00  0.00     0.118 C 
HETATM   36  C   UNL     1      -3.409  -2.183 -32.130  1.00  0.00     0.026 C 
ENDBRANCH  34  35
BRANCH  34  37
HETATM   37  C   UNL     1      -6.409  -0.670 -32.765  1.00  0.00     0.118 C 
HETATM   38  C   UNL     1      -6.657  -1.536 -33.992  1.00  0.00     0.026 C 
ENDBRANCH  34  37
ENDBRANCH  31  34
ENDBRANCH   1  28
BRANCH   6  39
HETATM   39  O   UNL     1      -2.304   7.644 -32.408  1.00  0.00    -0.389 OA
HETATM   40  H   UNL     1      -1.777   7.083 -33.010  1.00  0.00     0.210 HD
ENDBRANCH   6  39
TORSDOF 10
ENDMDL
