MODEL 1
REMARK VINA RESULT:      -9.5      0.000      0.000
REMARK  6 active torsions:
REMARK  status: ('A' for Active; 'I' for Inactive)
REMARK    1  A    between atoms: O_2  and  C_3 
REMARK    2  A    between atoms: C_6  and  C_7 
REMARK    3  A    between atoms: C_12  and  C_13 
REMARK       I    between atoms: C_13  and  N_14 
REMARK    4  A    between atoms: N_14  and  C_15 
REMARK    5  A    between atoms: C_15  and  C_16 
REMARK    6  A    between atoms: C_24  and  C_25 
ROOT
HETATM    1  C   UNL     1      -1.560   6.757 -31.284  1.00  0.00     0.118 C 
HETATM    2  N   UNL     1      -2.983   6.429 -31.167  1.00  0.00    -0.366 N 
HETATM    3  C   UNL     1      -3.482   5.252 -31.594  1.00  0.00     0.123 A 
HETATM    4  N   UNL     1      -2.795   4.483 -32.488  1.00  0.00    -0.240 N 
HETATM    5  N   UNL     1      -3.344   3.276 -32.708  1.00  0.00    -0.165 NA
HETATM    6  C   UNL     1      -4.501   3.329 -32.004  1.00  0.00     0.148 A 
HETATM    7  C   UNL     1      -4.631   4.565 -31.311  1.00  0.00     0.088 A 
HETATM    8  C   UNL     1      -1.502   4.862 -33.017  1.00  0.00     0.221 C 
HETATM    9  C   UNL     1      -0.731   5.621 -31.929  1.00  0.00     0.066 C 
HETATM   10  H   UNL     1      -3.489   6.979 -30.472  1.00  0.00     0.161 HD
ENDROOT
BRANCH   6  11
HETATM   11  C   UNL     1      -5.447   2.204 -31.968  1.00  0.00     0.272 C 
HETATM   12  N   UNL     1      -4.865   1.022 -31.586  1.00  0.00    -0.351 N 
HETATM   13  H   UNL     1      -3.894   1.076 -31.293  1.00  0.00     0.163 HD
HETATM   14  O   UNL     1      -6.638   2.323 -32.238  1.00  0.00    -0.266 OA
BRANCH  12  15
HETATM   15  C   UNL     1      -5.624  -0.183 -31.397  1.00  0.00     0.161 C 
BRANCH  15  16
HETATM   16  C   UNL     1      -5.628  -1.025 -32.646  1.00  0.00    -0.041 A 
HETATM   17  C   UNL     1      -6.784  -1.142 -33.429  1.00  0.00     0.009 A 
HETATM   18  C   UNL     1      -6.778  -1.920 -34.588  1.00  0.00     0.001 A 
HETATM   19  C   UNL     1      -5.617  -2.587 -34.976  1.00  0.00     0.000 A 
HETATM   20  C   UNL     1      -4.460  -2.474 -34.209  1.00  0.00     0.001 A 
HETATM   21  C   UNL     1      -4.463  -1.694 -33.053  1.00  0.00     0.009 A 
ENDBRANCH  15  16
ENDBRANCH  12  15
ENDBRANCH   6  11
BRANCH   8  22
HETATM   22  C   UNL     1      -1.665   5.663 -34.287  1.00  0.00     0.409 C 
HETATM   23  F   UNL     1      -2.909   6.172 -34.420  1.00  0.00    -0.169 F 
HETATM   24  F   UNL     1      -0.786   6.681 -34.403  1.00  0.00    -0.169 F 
HETATM   25  F   UNL     1      -1.462   4.855 -35.361  1.00  0.00    -0.169 F 
ENDBRANCH   8  22
BRANCH   1  26
HETATM   26  C   UNL     1      -1.037   7.088 -29.895  1.00  0.00    -0.035 A 
HETATM   27  C   UNL     1      -1.926   7.304 -28.826  1.00  0.00     0.012 A 
HETATM   28  C   UNL     1      -1.458   7.603 -27.545  1.00  0.00     0.037 A 
HETATM   29  C   UNL     1      -0.089   7.704 -27.308  1.00  0.00     0.068 A 
HETATM   30  C   UNL     1       0.801   7.526 -28.370  1.00  0.00     0.037 A 
HETATM   31  C   UNL     1       0.335   7.216 -29.653  1.00  0.00     0.012 A 
BRANCH  29  32
HETATM   32  O   UNL     1       0.493   7.985 -26.104  1.00  0.00    -0.356 OA
HETATM   33  C   UNL     1       1.915   8.041 -26.087  1.00  0.00     0.210 C 
ENDBRANCH  29  32
ENDBRANCH   1  26
TORSDOF 6
ENDMDL
MODEL 2
REMARK VINA RESULT:      -9.1      3.145      9.547
REMARK  6 active torsions:
REMARK  status: ('A' for Active; 'I' for Inactive)
REMARK    1  A    between atoms: O_2  and  C_3 
REMARK    2  A    between atoms: C_6  and  C_7 
REMARK    3  A    between atoms: C_12  and  C_13 
REMARK       I    between atoms: C_13  and  N_14 
REMARK    4  A    between atoms: N_14  and  C_15 
REMARK    5  A    between atoms: C_15  and  C_16 
REMARK    6  A    between atoms: C_24  and  C_25 
ROOT
HETATM    1  C   UNL     1      -6.836   0.883 -32.633  1.00  0.00     0.118 C 
HETATM    2  N   UNL     1      -6.229   1.989 -33.376  1.00  0.00    -0.366 N 
HETATM    3  C   UNL     1      -5.449   2.910 -32.778  1.00  0.00     0.123 A 
HETATM    4  N   UNL     1      -5.495   3.095 -31.426  1.00  0.00    -0.240 N 
HETATM    5  N   UNL     1      -4.562   3.939 -30.956  1.00  0.00    -0.165 NA
HETATM    6  C   UNL     1      -3.967   4.401 -32.083  1.00  0.00     0.148 A 
HETATM    7  C   UNL     1      -4.516   3.794 -33.247  1.00  0.00     0.088 A 
HETATM    8  C   UNL     1      -6.356   2.320 -30.558  1.00  0.00     0.221 C 
HETATM    9  C   UNL     1      -6.476   0.900 -31.128  1.00  0.00     0.066 C 
HETATM   10  H   UNL     1      -6.160   1.835 -34.383  1.00  0.00     0.161 HD
ENDROOT
BRANCH   6  11
HETATM   11  C   UNL     1      -2.872   5.381 -32.043  1.00  0.00     0.272 C 
HETATM   12  N   UNL     1      -1.630   4.800 -31.983  1.00  0.00    -0.351 N 
HETATM   13  H   UNL     1      -1.607   3.787 -32.062  1.00  0.00     0.163 HD
HETATM   14  O   UNL     1      -3.057   6.594 -32.078  1.00  0.00    -0.266 OA
BRANCH  12  15
HETATM   15  C   UNL     1      -0.418   5.569 -32.028  1.00  0.00     0.161 C 
BRANCH  15  16
HETATM   16  C   UNL     1       0.002   6.004 -30.649  1.00  0.00    -0.041 A 
HETATM   17  C   UNL     1       0.411   5.066 -29.693  1.00  0.00     0.009 A 
HETATM   18  C   UNL     1       0.804   5.478 -28.418  1.00  0.00     0.001 A 
HETATM   19  C   UNL     1       0.793   6.831 -28.088  1.00  0.00     0.000 A 
HETATM   20  C   UNL     1       0.394   7.776 -29.030  1.00  0.00     0.001 A 
HETATM   21  C   UNL     1       0.005   7.366 -30.306  1.00  0.00     0.009 A 
ENDBRANCH  15  16
ENDBRANCH  12  15
ENDBRANCH   6  11
BRANCH   8  22
HETATM   22  C   UNL     1      -7.695   3.001 -30.396  1.00  0.00     0.409 C 
HETATM   23  F   UNL     1      -7.849   4.042 -31.242  1.00  0.00    -0.169 F 
HETATM   24  F   UNL     1      -8.748   2.174 -30.560  1.00  0.00    -0.169 F 
HETATM   25  F   UNL     1      -7.796   3.508 -29.139  1.00  0.00    -0.169 F 
ENDBRANCH   8  22
BRANCH   1  26
HETATM   26  C   UNL     1      -6.394  -0.420 -33.281  1.00  0.00    -0.035 A 
HETATM   27  C   UNL     1      -5.047  -0.822 -33.238  1.00  0.00     0.012 A 
HETATM   28  C   UNL     1      -4.630  -2.019 -33.825  1.00  0.00     0.037 A 
HETATM   29  C   UNL     1      -5.551  -2.834 -34.477  1.00  0.00     0.068 A 
HETATM   30  C   UNL     1      -6.885  -2.427 -34.555  1.00  0.00     0.037 A 
HETATM   31  C   UNL     1      -7.309  -1.233 -33.960  1.00  0.00     0.012 A 
BRANCH  29  32
HETATM   32  O   UNL     1      -5.272  -4.027 -35.084  1.00  0.00    -0.356 OA
HETATM   33  C   UNL     1      -4.693  -5.034 -34.263  1.00  0.00     0.210 C 
ENDBRANCH  29  32
ENDBRANCH   1  26
TORSDOF 6
ENDMDL
MODEL 3
REMARK VINA RESULT:      -9.1      6.828     10.016
REMARK  6 active torsions:
REMARK  status: ('A' for Active; 'I' for Inactive)
REMARK    1  A    between atoms: O_2  and  C_3 
REMARK    2  A    between atoms: C_6  and  C_7 
REMARK    3  A    between atoms: C_12  and  C_13 
REMARK       I    between atoms: C_13  and  N_14 
REMARK    4  A    between atoms: N_14  and  C_15 
REMARK    5  A    between atoms: C_15  and  C_16 
REMARK    6  A    between atoms: C_24  and  C_25 
ROOT
HETATM    1  C   UNL     1      -6.690   0.614 -32.939  1.00  0.00     0.118 C 
HETATM    2  N   UNL     1      -8.012   0.216 -32.450  1.00  0.00    -0.366 N 
HETATM    3  C   UNL     1      -9.148   0.721 -32.967  1.00  0.00     0.123 A 
HETATM    4  N   UNL     1      -9.136   1.886 -33.679  1.00  0.00    -0.240 N 
HETATM    5  N   UNL     1     -10.312   2.189 -34.255  1.00  0.00    -0.165 NA
HETATM    6  C   UNL     1     -11.142   1.226 -33.788  1.00  0.00     0.148 A 
HETATM    7  C   UNL     1     -10.450   0.300 -32.957  1.00  0.00     0.088 A 
HETATM    8  C   UNL     1      -7.924   2.635 -33.935  1.00  0.00     0.221 C 
HETATM    9  C   UNL     1      -6.761   1.647 -34.089  1.00  0.00     0.066 C 
HETATM   10  H   UNL     1      -8.028  -0.674 -31.949  1.00  0.00     0.161 HD
ENDROOT
BRANCH   6  11
HETATM   11  C   UNL     1     -12.564   1.173 -34.158  1.00  0.00     0.272 C 
HETATM   12  N   UNL     1     -13.396   1.006 -33.079  1.00  0.00    -0.351 N 
HETATM   13  H   UNL     1     -12.953   1.028 -32.165  1.00  0.00     0.163 HD
HETATM   14  O   UNL     1     -12.959   1.285 -35.314  1.00  0.00    -0.266 OA
BRANCH  12  15
HETATM   15  C   UNL     1     -14.827   1.018 -33.203  1.00  0.00     0.161 C 
BRANCH  15  16
HETATM   16  C   UNL     1     -15.412   2.285 -32.636  1.00  0.00    -0.041 A 
HETATM   17  C   UNL     1     -16.794   2.418 -32.448  1.00  0.00     0.009 A 
HETATM   18  C   UNL     1     -17.327   3.594 -31.917  1.00  0.00     0.001 A 
HETATM   19  C   UNL     1     -16.484   4.647 -31.568  1.00  0.00     0.000 A 
HETATM   20  C   UNL     1     -15.108   4.526 -31.744  1.00  0.00     0.001 A 
HETATM   21  C   UNL     1     -14.573   3.350 -32.270  1.00  0.00     0.009 A 
ENDBRANCH  15  16
ENDBRANCH  12  15
ENDBRANCH   6  11
BRANCH   8  22
HETATM   22  C   UNL     1      -7.689   3.650 -32.841  1.00  0.00     0.409 C 
HETATM   23  F   UNL     1      -8.440   3.410 -31.745  1.00  0.00    -0.169 F 
HETATM   24  F   UNL     1      -6.400   3.738 -32.450  1.00  0.00    -0.169 F 
HETATM   25  F   UNL     1      -8.041   4.885 -33.287  1.00  0.00    -0.169 F 
ENDBRANCH   8  22
BRANCH   1  26
HETATM   26  C   UNL     1      -5.953  -0.641 -33.381  1.00  0.00    -0.035 A 
HETATM   27  C   UNL     1      -6.460  -1.442 -34.421  1.00  0.00     0.012 A 
HETATM   28  C   UNL     1      -5.790  -2.593 -34.839  1.00  0.00     0.037 A 
HETATM   29  C   UNL     1      -4.603  -2.974 -34.218  1.00  0.00     0.068 A 
HETATM   30  C   UNL     1      -4.109  -2.204 -33.162  1.00  0.00     0.037 A 
HETATM   31  C   UNL     1      -4.773  -1.044 -32.746  1.00  0.00     0.012 A 
BRANCH  29  32
HETATM   32  O   UNL     1      -3.852  -4.071 -34.536  1.00  0.00    -0.356 OA
HETATM   33  C   UNL     1      -3.424  -4.883 -33.449  1.00  0.00     0.210 C 
ENDBRANCH  29  32
ENDBRANCH   1  26
TORSDOF 6
ENDMDL
MODEL 4
REMARK VINA RESULT:      -9.0      3.564      9.456
REMARK  6 active torsions:
REMARK  status: ('A' for Active; 'I' for Inactive)
REMARK    1  A    between atoms: O_2  and  C_3 
REMARK    2  A    between atoms: C_6  and  C_7 
REMARK    3  A    between atoms: C_12  and  C_13 
REMARK       I    between atoms: C_13  and  N_14 
REMARK    4  A    between atoms: N_14  and  C_15 
REMARK    5  A    between atoms: C_15  and  C_16 
REMARK    6  A    between atoms: C_24  and  C_25 
ROOT
HETATM    1  C   UNL     1      -7.239   0.278 -33.312  1.00  0.00     0.118 C 
HETATM    2  N   UNL     1      -6.777   1.432 -34.087  1.00  0.00    -0.366 N 
HETATM    3  C   UNL     1      -6.409   2.587 -33.499  1.00  0.00     0.123 A 
HETATM    4  N   UNL     1      -6.804   2.882 -32.226  1.00  0.00    -0.240 N 
HETATM    5  N   UNL     1      -6.243   3.994 -31.722  1.00  0.00    -0.165 NA
HETATM    6  C   UNL     1      -5.546   4.492 -32.771  1.00  0.00     0.148 A 
HETATM    7  C   UNL     1      -5.647   3.646 -33.911  1.00  0.00     0.088 A 
HETATM    8  C   UNL     1      -7.615   1.986 -31.430  1.00  0.00     0.221 C 
HETATM    9  C   UNL     1      -7.243   0.541 -31.787  1.00  0.00     0.066 C 
HETATM   10  H   UNL     1      -6.447   1.207 -35.026  1.00  0.00     0.161 HD
ENDROOT
BRANCH   6  11
HETATM   11  C   UNL     1      -4.770   5.737 -32.675  1.00  0.00     0.272 C 
HETATM   12  N   UNL     1      -3.486   5.610 -33.142  1.00  0.00    -0.351 N 
HETATM   13  H   UNL     1      -3.253   4.720 -33.573  1.00  0.00     0.163 HD
HETATM   14  O   UNL     1      -5.236   6.784 -32.235  1.00  0.00    -0.266 OA
BRANCH  12  15
HETATM   15  C   UNL     1      -2.583   6.725 -33.225  1.00  0.00     0.161 C 
BRANCH  15  16
HETATM   16  C   UNL     1      -1.570   6.688 -32.111  1.00  0.00    -0.041 A 
HETATM   17  C   UNL     1      -1.568   7.668 -31.110  1.00  0.00     0.009 A 
HETATM   18  C   UNL     1      -0.628   7.624 -30.078  1.00  0.00     0.001 A 
HETATM   19  C   UNL     1       0.316   6.599 -30.037  1.00  0.00     0.000 A 
HETATM   20  C   UNL     1       0.321   5.616 -31.024  1.00  0.00     0.001 A 
HETATM   21  C   UNL     1      -0.620   5.656 -32.053  1.00  0.00     0.009 A 
ENDBRANCH  15  16
ENDBRANCH  12  15
ENDBRANCH   6  11
BRANCH   8  22
HETATM   22  C   UNL     1      -9.083   2.280 -31.633  1.00  0.00     0.409 C 
HETATM   23  F   UNL     1      -9.293   3.234 -32.566  1.00  0.00    -0.169 F 
HETATM   24  F   UNL     1      -9.811   1.197 -31.976  1.00  0.00    -0.169 F 
HETATM   25  F   UNL     1      -9.615   2.750 -30.474  1.00  0.00    -0.169 F 
ENDBRANCH   8  22
BRANCH   1  26
HETATM   26  C   UNL     1      -6.349  -0.907 -33.655  1.00  0.00    -0.035 A 
HETATM   27  C   UNL     1      -6.814  -1.932 -34.499  1.00  0.00     0.012 A 
HETATM   28  C   UNL     1      -6.005  -3.022 -34.827  1.00  0.00     0.037 A 
HETATM   29  C   UNL     1      -4.716  -3.115 -34.306  1.00  0.00     0.068 A 
HETATM   30  C   UNL     1      -4.258  -2.120 -33.440  1.00  0.00     0.037 A 
HETATM   31  C   UNL     1      -5.063  -1.021 -33.118  1.00  0.00     0.012 A 
BRANCH  29  32
HETATM   32  O   UNL     1      -3.827  -4.124 -34.553  1.00  0.00    -0.356 OA
HETATM   33  C   UNL     1      -3.440  -4.913 -33.434  1.00  0.00     0.210 C 
ENDBRANCH  29  32
ENDBRANCH   1  26
TORSDOF 6
ENDMDL
MODEL 5
REMARK VINA RESULT:      -8.9      7.997     10.125
REMARK  6 active torsions:
REMARK  status: ('A' for Active; 'I' for Inactive)
REMARK    1  A    between atoms: O_2  and  C_3 
REMARK    2  A    between atoms: C_6  and  C_7 
REMARK    3  A    between atoms: C_12  and  C_13 
REMARK       I    between atoms: C_13  and  N_14 
REMARK    4  A    between atoms: N_14  and  C_15 
REMARK    5  A    between atoms: C_15  and  C_16 
REMARK    6  A    between atoms: C_24  and  C_25 
ROOT
HETATM    1  C   UNL     1     -12.598   3.883 -34.351  1.00  0.00     0.118 C 
HETATM    2  N   UNL     1     -11.666   3.738 -33.230  1.00  0.00    -0.366 N 
HETATM    3  C   UNL     1     -10.819   2.695 -33.135  1.00  0.00     0.123 A 
HETATM    4  N   UNL     1     -11.040   1.547 -33.840  1.00  0.00    -0.240 N 
HETATM    5  N   UNL     1     -10.040   0.653 -33.760  1.00  0.00    -0.165 NA
HETATM    6  C   UNL     1      -9.192   1.217 -32.865  1.00  0.00     0.148 A 
HETATM    7  C   UNL     1      -9.662   2.489 -32.434  1.00  0.00     0.088 A 
HETATM    8  C   UNL     1     -12.168   1.379 -34.731  1.00  0.00     0.221 C 
HETATM    9  C   UNL     1     -12.485   2.733 -35.380  1.00  0.00     0.066 C 
HETATM   10  H   UNL     1     -11.472   4.603 -32.726  1.00  0.00     0.161 HD
ENDROOT
BRANCH   6  11
HETATM   11  C   UNL     1      -7.939   0.565 -32.457  1.00  0.00     0.272 C 
HETATM   12  N   UNL     1      -7.128   0.242 -33.516  1.00  0.00    -0.351 N 
HETATM   13  H   UNL     1      -7.438   0.564 -34.429  1.00  0.00     0.163 HD
HETATM   14  O   UNL     1      -7.648   0.350 -31.284  1.00  0.00    -0.266 OA
BRANCH  12  15
HETATM   15  C   UNL     1      -5.818  -0.319 -33.338  1.00  0.00     0.161 C 
BRANCH  15  16
HETATM   16  C   UNL     1      -5.752  -1.726 -33.872  1.00  0.00    -0.041 A 
HETATM   17  C   UNL     1      -4.538  -2.424 -33.908  1.00  0.00     0.009 A 
HETATM   18  C   UNL     1      -4.486  -3.730 -34.399  1.00  0.00     0.001 A 
HETATM   19  C   UNL     1      -5.647  -4.350 -34.856  1.00  0.00     0.000 A 
HETATM   20  C   UNL     1      -6.862  -3.670 -34.820  1.00  0.00     0.001 A 
HETATM   21  C   UNL     1      -6.916  -2.366 -34.326  1.00  0.00     0.009 A 
ENDBRANCH  15  16
ENDBRANCH  12  15
ENDBRANCH   6  11
BRANCH   8  22
HETATM   22  C   UNL     1     -13.347   0.796 -33.988  1.00  0.00     0.409 C 
HETATM   23  F   UNL     1     -13.169  -0.507 -33.681  1.00  0.00    -0.169 F 
HETATM   24  F   UNL     1     -13.651   1.453 -32.850  1.00  0.00    -0.169 F 
HETATM   25  F   UNL     1     -14.454   0.858 -34.775  1.00  0.00    -0.169 F 
ENDBRANCH   8  22
BRANCH   1  26
HETATM   26  C   UNL     1     -12.335   5.228 -35.011  1.00  0.00    -0.035 A 
HETATM   27  C   UNL     1     -13.381   5.945 -35.620  1.00  0.00     0.012 A 
HETATM   28  C   UNL     1     -13.154   7.183 -36.224  1.00  0.00     0.037 A 
HETATM   29  C   UNL     1     -11.871   7.726 -36.240  1.00  0.00     0.068 A 
HETATM   30  C   UNL     1     -10.819   7.006 -35.668  1.00  0.00     0.037 A 
HETATM   31  C   UNL     1     -11.046   5.770 -35.054  1.00  0.00     0.012 A 
BRANCH  29  32
HETATM   32  O   UNL     1     -11.520   8.926 -36.793  1.00  0.00    -0.356 OA
HETATM   33  C   UNL     1     -10.296   8.956 -37.517  1.00  0.00     0.210 C 
ENDBRANCH  29  32
ENDBRANCH   1  26
TORSDOF 6
ENDMDL
MODEL 6
REMARK VINA RESULT:      -8.7      4.331     10.162
REMARK  6 active torsions:
REMARK  status: ('A' for Active; 'I' for Inactive)
REMARK    1  A    between atoms: O_2  and  C_3 
REMARK    2  A    between atoms: C_6  and  C_7 
REMARK    3  A    between atoms: C_12  and  C_13 
REMARK       I    between atoms: C_13  and  N_14 
REMARK    4  A    between atoms: N_14  and  C_15 
REMARK    5  A    between atoms: C_15  and  C_16 
REMARK    6  A    between atoms: C_24  and  C_25 
ROOT
HETATM    1  C   UNL     1      -8.864   0.625 -33.110  1.00  0.00     0.118 C 
HETATM    2  N   UNL     1      -8.489   1.785 -32.298  1.00  0.00    -0.366 N 
HETATM    3  C   UNL     1      -7.391   2.519 -32.565  1.00  0.00     0.123 A 
HETATM    4  N   UNL     1      -6.381   2.014 -33.331  1.00  0.00    -0.240 N 
HETATM    5  N   UNL     1      -5.422   2.907 -33.632  1.00  0.00    -0.165 NA
HETATM    6  C   UNL     1      -5.787   4.003 -32.922  1.00  0.00     0.148 A 
HETATM    7  C   UNL     1      -7.006   3.786 -32.221  1.00  0.00     0.088 A 
HETATM    8  C   UNL     1      -6.425   0.690 -33.913  1.00  0.00     0.221 C 
HETATM    9  C   UNL     1      -7.880   0.361 -34.274  1.00  0.00     0.066 C 
HETATM   10  H   UNL     1      -9.254   2.185 -31.753  1.00  0.00     0.161 HD
ENDROOT
BRANCH   6  11
HETATM   11  C   UNL     1      -5.000   5.245 -32.943  1.00  0.00     0.272 C 
HETATM   12  N   UNL     1      -3.680   5.042 -33.255  1.00  0.00    -0.351 N 
HETATM   13  H   UNL     1      -3.423   4.094 -33.518  1.00  0.00     0.163 HD
HETATM   14  O   UNL     1      -5.487   6.349 -32.719  1.00  0.00    -0.266 OA
BRANCH  12  15
HETATM   15  C   UNL     1      -2.753   6.127 -33.419  1.00  0.00     0.161 C 
BRANCH  15  16
HETATM   16  C   UNL     1      -1.636   6.046 -32.411  1.00  0.00    -0.041 A 
HETATM   17  C   UNL     1      -1.506   4.932 -31.571  1.00  0.00     0.009 A 
HETATM   18  C   UNL     1      -0.466   4.863 -30.643  1.00  0.00     0.001 A 
HETATM   19  C   UNL     1       0.455   5.905 -30.547  1.00  0.00     0.000 A 
HETATM   20  C   UNL     1       0.340   7.015 -31.380  1.00  0.00     0.001 A 
HETATM   21  C   UNL     1      -0.696   7.084 -32.311  1.00  0.00     0.009 A 
ENDBRANCH  15  16
ENDBRANCH  12  15
ENDBRANCH   6  11
BRANCH   8  22
HETATM   22  C   UNL     1      -5.813  -0.321 -32.972  1.00  0.00     0.409 C 
HETATM   23  F   UNL     1      -4.527  -0.597 -33.278  1.00  0.00    -0.169 F 
HETATM   24  F   UNL     1      -5.862   0.045 -31.674  1.00  0.00    -0.169 F 
HETATM   25  F   UNL     1      -6.491  -1.496 -33.066  1.00  0.00    -0.169 F 
ENDBRANCH   8  22
BRANCH   1  26
HETATM   26  C   UNL     1     -10.275   0.851 -33.633  1.00  0.00    -0.035 A 
HETATM   27  C   UNL     1     -10.553   1.916 -34.509  1.00  0.00     0.012 A 
HETATM   28  C   UNL     1     -11.842   2.130 -35.000  1.00  0.00     0.037 A 
HETATM   29  C   UNL     1     -12.884   1.290 -34.615  1.00  0.00     0.068 A 
HETATM   30  C   UNL     1     -12.625   0.251 -33.718  1.00  0.00     0.037 A 
HETATM   31  C   UNL     1     -11.332   0.027 -33.232  1.00  0.00     0.012 A 
BRANCH  29  32
HETATM   32  O   UNL     1     -14.183   1.390 -35.027  1.00  0.00    -0.356 OA
HETATM   33  C   UNL     1     -15.153   0.716 -34.234  1.00  0.00     0.210 C 
ENDBRANCH  29  32
ENDBRANCH   1  26
TORSDOF 6
ENDMDL
MODEL 7
REMARK VINA RESULT:      -8.7      1.865      2.097
REMARK  6 active torsions:
REMARK  status: ('A' for Active; 'I' for Inactive)
REMARK    1  A    between atoms: O_2  and  C_3 
REMARK    2  A    between atoms: C_6  and  C_7 
REMARK    3  A    between atoms: C_12  and  C_13 
REMARK       I    between atoms: C_13  and  N_14 
REMARK    4  A    between atoms: N_14  and  C_15 
REMARK    5  A    between atoms: C_15  and  C_16 
REMARK    6  A    between atoms: C_24  and  C_25 
ROOT
HETATM    1  C   UNL     1      -1.483   7.127 -31.381  1.00  0.00     0.118 C 
HETATM    2  N   UNL     1      -2.785   6.535 -31.066  1.00  0.00    -0.366 N 
HETATM    3  C   UNL     1      -3.071   5.248 -31.345  1.00  0.00     0.123 A 
HETATM    4  N   UNL     1      -2.339   4.551 -32.262  1.00  0.00    -0.240 N 
HETATM    5  N   UNL     1      -2.645   3.244 -32.329  1.00  0.00    -0.165 NA
HETATM    6  C   UNL     1      -3.705   3.131 -31.492  1.00  0.00     0.148 A 
HETATM    7  C   UNL     1      -4.015   4.376 -30.875  1.00  0.00     0.088 A 
HETATM    8  C   UNL     1      -1.218   5.128 -32.973  1.00  0.00     0.221 C 
HETATM    9  C   UNL     1      -0.510   6.123 -32.044  1.00  0.00     0.066 C 
HETATM   10  H   UNL     1      -3.317   7.035 -30.354  1.00  0.00     0.161 HD
ENDROOT
BRANCH   6  11
HETATM   11  C   UNL     1      -4.386   1.849 -31.261  1.00  0.00     0.272 C 
HETATM   12  N   UNL     1      -5.750   1.971 -31.176  1.00  0.00    -0.351 N 
HETATM   13  H   UNL     1      -6.129   2.894 -31.366  1.00  0.00     0.163 HD
HETATM   14  O   UNL     1      -3.789   0.780 -31.173  1.00  0.00    -0.266 OA
BRANCH  12  15
HETATM   15  C   UNL     1      -6.617   0.833 -31.044  1.00  0.00     0.161 C 
BRANCH  15  16
HETATM   16  C   UNL     1      -7.636   0.793 -32.152  1.00  0.00    -0.041 A 
HETATM   17  C   UNL     1      -8.984   0.524 -31.879  1.00  0.00     0.009 A 
HETATM   18  C   UNL     1      -9.923   0.495 -32.912  1.00  0.00     0.001 A 
HETATM   19  C   UNL     1      -9.525   0.737 -34.225  1.00  0.00     0.000 A 
HETATM   20  C   UNL     1      -8.189   1.011 -34.509  1.00  0.00     0.001 A 
HETATM   21  C   UNL     1      -7.250   1.045 -33.478  1.00  0.00     0.009 A 
ENDBRANCH  15  16
ENDBRANCH  12  15
ENDBRANCH   6  11
BRANCH   8  22
HETATM   22  C   UNL     1      -1.680   5.760 -34.265  1.00  0.00     0.409 C 
HETATM   23  F   UNL     1      -2.941   5.404 -34.591  1.00  0.00    -0.169 F 
HETATM   24  F   UNL     1      -1.617   7.108 -34.264  1.00  0.00    -0.169 F 
HETATM   25  F   UNL     1      -0.885   5.339 -35.284  1.00  0.00    -0.169 F 
ENDBRANCH   8  22
BRANCH   1  26
HETATM   26  C   UNL     1      -0.895   7.684 -30.094  1.00  0.00    -0.035 A 
HETATM   27  C   UNL     1      -1.584   8.661 -29.353  1.00  0.00     0.012 A 
HETATM   28  C   UNL     1      -1.057   9.175 -28.167  1.00  0.00     0.037 A 
HETATM   29  C   UNL     1       0.179   8.730 -27.702  1.00  0.00     0.068 A 
HETATM   30  C   UNL     1       0.887   7.786 -28.449  1.00  0.00     0.037 A 
HETATM   31  C   UNL     1       0.357   7.261 -29.633  1.00  0.00     0.012 A 
BRANCH  29  32
HETATM   32  O   UNL     1       0.799   9.149 -26.558  1.00  0.00    -0.356 OA
HETATM   33  C   UNL     1       1.582   8.180 -25.871  1.00  0.00     0.210 C 
ENDBRANCH  29  32
ENDBRANCH   1  26
TORSDOF 6
ENDMDL
MODEL 8
REMARK VINA RESULT:      -8.5      5.035      9.117
REMARK  6 active torsions:
REMARK  status: ('A' for Active; 'I' for Inactive)
REMARK    1  A    between atoms: O_2  and  C_3 
REMARK    2  A    between atoms: C_6  and  C_7 
REMARK    3  A    between atoms: C_12  and  C_13 
REMARK       I    between atoms: C_13  and  N_14 
REMARK    4  A    between atoms: N_14  and  C_15 
REMARK    5  A    between atoms: C_15  and  C_16 
REMARK    6  A    between atoms: C_24  and  C_25 
ROOT
HETATM    1  C   UNL     1      -5.358   0.497 -31.887  1.00  0.00     0.118 C 
HETATM    2  N   UNL     1      -6.709   0.623 -31.334  1.00  0.00    -0.366 N 
HETATM    3  C   UNL     1      -7.453   1.732 -31.512  1.00  0.00     0.123 A 
HETATM    4  N   UNL     1      -6.873   2.916 -31.863  1.00  0.00    -0.240 N 
HETATM    5  N   UNL     1      -7.750   3.894 -32.146  1.00  0.00    -0.165 NA
HETATM    6  C   UNL     1      -8.946   3.333 -31.847  1.00  0.00     0.148 A 
HETATM    7  C   UNL     1      -8.795   1.983 -31.422  1.00  0.00     0.088 A 
HETATM    8  C   UNL     1      -5.449   3.057 -32.081  1.00  0.00     0.221 C 
HETATM    9  C   UNL     1      -4.913   1.749 -32.679  1.00  0.00     0.066 C 
HETATM   10  H   UNL     1      -7.157  -0.265 -31.105  1.00  0.00     0.161 HD
ENDROOT
BRANCH   6  11
HETATM   11  C   UNL     1     -10.213   4.064 -31.996  1.00  0.00     0.272 C 
HETATM   12  N   UNL     1     -11.314   3.304 -31.690  1.00  0.00    -0.351 N 
HETATM   13  H   UNL     1     -11.128   2.377 -31.319  1.00  0.00     0.163 HD
HETATM   14  O   UNL     1     -10.269   5.240 -32.344  1.00  0.00    -0.266 OA
BRANCH  12  15
HETATM   15  C   UNL     1     -12.644   3.847 -31.681  1.00  0.00     0.161 C 
BRANCH  15  16
HETATM   16  C   UNL     1     -13.608   2.936 -32.394  1.00  0.00    -0.041 A 
HETATM   17  C   UNL     1     -13.235   2.275 -33.571  1.00  0.00     0.009 A 
HETATM   18  C   UNL     1     -14.133   1.427 -34.223  1.00  0.00     0.001 A 
HETATM   19  C   UNL     1     -15.411   1.232 -33.704  1.00  0.00     0.000 A 
HETATM   20  C   UNL     1     -15.793   1.879 -32.531  1.00  0.00     0.001 A 
HETATM   21  C   UNL     1     -14.896   2.723 -31.876  1.00  0.00     0.009 A 
ENDBRANCH  15  16
ENDBRANCH  12  15
ENDBRANCH   6  11
BRANCH   8  22
HETATM   22  C   UNL     1      -4.753   3.441 -30.796  1.00  0.00     0.409 C 
HETATM   23  F   UNL     1      -5.393   2.972 -29.703  1.00  0.00    -0.169 F 
HETATM   24  F   UNL     1      -3.468   3.033 -30.731  1.00  0.00    -0.169 F 
HETATM   25  F   UNL     1      -4.733   4.795 -30.679  1.00  0.00    -0.169 F 
ENDBRANCH   8  22
BRANCH   1  26
HETATM   26  C   UNL     1      -5.324  -0.742 -32.769  1.00  0.00    -0.035 A 
HETATM   27  C   UNL     1      -4.170  -1.544 -32.835  1.00  0.00     0.012 A 
HETATM   28  C   UNL     1      -4.129  -2.687 -33.636  1.00  0.00     0.037 A 
HETATM   29  C   UNL     1      -5.238  -3.046 -34.397  1.00  0.00     0.068 A 
HETATM   30  C   UNL     1      -6.377  -2.237 -34.366  1.00  0.00     0.037 A 
HETATM   31  C   UNL     1      -6.425  -1.097 -33.556  1.00  0.00     0.012 A 
BRANCH  29  32
HETATM   32  O   UNL     1      -5.325  -4.139 -35.214  1.00  0.00    -0.356 OA
HETATM   33  C   UNL     1      -6.631  -4.658 -35.440  1.00  0.00     0.210 C 
ENDBRANCH  29  32
ENDBRANCH   1  26
TORSDOF 6
ENDMDL
MODEL 9
REMARK VINA RESULT:      -8.4      6.485      9.460
REMARK  6 active torsions:
REMARK  status: ('A' for Active; 'I' for Inactive)
REMARK    1  A    between atoms: O_2  and  C_3 
REMARK    2  A    between atoms: C_6  and  C_7 
REMARK    3  A    between atoms: C_12  and  C_13 
REMARK       I    between atoms: C_13  and  N_14 
REMARK    4  A    between atoms: N_14  and  C_15 
REMARK    5  A    between atoms: C_15  and  C_16 
REMARK    6  A    between atoms: C_24  and  C_25 
ROOT
HETATM    1  C   UNL     1     -11.108   3.823 -33.268  1.00  0.00     0.118 C 
HETATM    2  N   UNL     1     -10.405   2.712 -33.914  1.00  0.00    -0.366 N 
HETATM    3  C   UNL     1      -9.223   2.252 -33.459  1.00  0.00     0.123 A 
HETATM    4  N   UNL     1      -8.442   3.017 -32.642  1.00  0.00    -0.240 N 
HETATM    5  N   UNL     1      -7.368   2.375 -32.152  1.00  0.00    -0.165 NA
HETATM    6  C   UNL     1      -7.409   1.177 -32.783  1.00  0.00     0.148 A 
HETATM    7  C   UNL     1      -8.549   1.074 -33.630  1.00  0.00     0.088 A 
HETATM    8  C   UNL     1      -8.828   4.342 -32.204  1.00  0.00     0.221 C 
HETATM    9  C   UNL     1     -10.352   4.378 -32.037  1.00  0.00     0.066 C 
HETATM   10  H   UNL     1     -10.997   2.118 -34.496  1.00  0.00     0.161 HD
ENDROOT
BRANCH   6  11
HETATM   11  C   UNL     1      -6.396   0.137 -32.554  1.00  0.00     0.272 C 
HETATM   12  N   UNL     1      -5.652  -0.148 -33.672  1.00  0.00    -0.351 N 
HETATM   13  H   UNL     1      -5.823   0.440 -34.483  1.00  0.00     0.163 HD
HETATM   14  O   UNL     1      -6.226  -0.404 -31.465  1.00  0.00    -0.266 OA
BRANCH  12  15
HETATM   15  C   UNL     1      -4.548  -1.067 -33.648  1.00  0.00     0.161 C 
BRANCH  15  16
HETATM   16  C   UNL     1      -4.978  -2.445 -34.076  1.00  0.00    -0.041 A 
HETATM   17  C   UNL     1      -6.221  -2.652 -34.688  1.00  0.00     0.009 A 
HETATM   18  C   UNL     1      -6.610  -3.932 -35.087  1.00  0.00     0.001 A 
HETATM   19  C   UNL     1      -5.759  -5.016 -34.881  1.00  0.00     0.000 A 
HETATM   20  C   UNL     1      -4.518  -4.823 -34.279  1.00  0.00     0.001 A 
HETATM   21  C   UNL     1      -4.126  -3.544 -33.883  1.00  0.00     0.009 A 
ENDBRANCH  15  16
ENDBRANCH  12  15
ENDBRANCH   6  11
BRANCH   8  22
HETATM   22  C   UNL     1      -8.320   5.386 -33.170  1.00  0.00     0.409 C 
HETATM   23  F   UNL     1      -9.267   6.294 -33.492  1.00  0.00    -0.169 F 
HETATM   24  F   UNL     1      -7.237   6.057 -32.725  1.00  0.00    -0.169 F 
HETATM   25  F   UNL     1      -7.950   4.787 -34.333  1.00  0.00    -0.169 F 
ENDBRANCH   8  22
BRANCH   1  26
HETATM   26  C   UNL     1     -12.497   3.341 -32.880  1.00  0.00    -0.035 A 
HETATM   27  C   UNL     1     -13.295   4.088 -31.994  1.00  0.00     0.012 A 
HETATM   28  C   UNL     1     -14.574   3.658 -31.635  1.00  0.00     0.037 A 
HETATM   29  C   UNL     1     -15.078   2.465 -32.146  1.00  0.00     0.068 A 
HETATM   30  C   UNL     1     -14.280   1.698 -32.999  1.00  0.00     0.037 A 
HETATM   31  C   UNL     1     -13.001   2.131 -33.369  1.00  0.00     0.012 A 
BRANCH  29  32
HETATM   32  O   UNL     1     -16.311   1.940 -31.877  1.00  0.00    -0.356 OA
HETATM   33  C   UNL     1     -17.411   2.839 -31.948  1.00  0.00     0.210 C 
ENDBRANCH  29  32
ENDBRANCH   1  26
TORSDOF 6
ENDMDL
MODEL 10
REMARK VINA RESULT:      -8.4      3.492      9.576
REMARK  6 active torsions:
REMARK  status: ('A' for Active; 'I' for Inactive)
REMARK    1  A    between atoms: O_2  and  C_3 
REMARK    2  A    between atoms: C_6  and  C_7 
REMARK    3  A    between atoms: C_12  and  C_13 
REMARK       I    between atoms: C_13  and  N_14 
REMARK    4  A    between atoms: N_14  and  C_15 
REMARK    5  A    between atoms: C_15  and  C_16 
REMARK    6  A    between atoms: C_24  and  C_25 
ROOT
HETATM    1  C   UNL     1      -6.591   0.471 -32.133  1.00  0.00     0.118 C 
HETATM    2  N   UNL     1      -6.217   1.601 -31.280  1.00  0.00    -0.366 N 
HETATM    3  C   UNL     1      -5.054   2.262 -31.438  1.00  0.00     0.123 A 
HETATM    4  N   UNL     1      -4.013   1.695 -32.116  1.00  0.00    -0.240 N 
HETATM    5  N   UNL     1      -2.975   2.525 -32.320  1.00  0.00    -0.165 NA
HETATM    6  C   UNL     1      -3.330   3.639 -31.635  1.00  0.00     0.148 A 
HETATM    7  C   UNL     1      -4.620   3.500 -31.049  1.00  0.00     0.088 A 
HETATM    8  C   UNL     1      -4.090   0.379 -32.712  1.00  0.00     0.221 C 
HETATM    9  C   UNL     1      -5.524   0.148 -33.206  1.00  0.00     0.066 C 
HETATM   10  H   UNL     1      -7.000   2.048 -30.801  1.00  0.00     0.161 HD
ENDROOT
BRANCH   6  11
HETATM   11  C   UNL     1      -2.466   4.826 -31.572  1.00  0.00     0.272 C 
HETATM   12  N   UNL     1      -2.923   5.780 -30.698  1.00  0.00    -0.351 N 
HETATM   13  H   UNL     1      -3.734   5.525 -30.143  1.00  0.00     0.163 HD
HETATM   14  O   UNL     1      -1.433   4.938 -32.226  1.00  0.00    -0.266 OA
BRANCH  12  15
HETATM   15  C   UNL     1      -2.184   6.980 -30.414  1.00  0.00     0.161 C 
BRANCH  15  16
HETATM   16  C   UNL     1      -1.402   6.847 -29.134  1.00  0.00    -0.041 A 
HETATM   17  C   UNL     1      -1.969   7.206 -27.904  1.00  0.00     0.009 A 
HETATM   18  C   UNL     1      -1.239   7.075 -26.722  1.00  0.00     0.001 A 
HETATM   19  C   UNL     1       0.064   6.582 -26.757  1.00  0.00     0.000 A 
HETATM   20  C   UNL     1       0.638   6.216 -27.972  1.00  0.00     0.001 A 
HETATM   21  C   UNL     1      -0.092   6.342 -29.154  1.00  0.00     0.009 A 
ENDBRANCH  15  16
ENDBRANCH  12  15
ENDBRANCH   6  11
BRANCH   8  22
HETATM   22  C   UNL     1      -3.633  -0.674 -31.730  1.00  0.00     0.409 C 
HETATM   23  F   UNL     1      -2.349  -1.043 -31.930  1.00  0.00    -0.169 F 
HETATM   24  F   UNL     1      -3.762  -0.305 -30.438  1.00  0.00    -0.169 F 
HETATM   25  F   UNL     1      -4.385  -1.796 -31.886  1.00  0.00    -0.169 F 
ENDBRANCH   8  22
BRANCH   1  26
HETATM   26  C   UNL     1      -7.931   0.792 -32.779  1.00  0.00    -0.035 A 
HETATM   27  C   UNL     1      -8.073   1.913 -33.616  1.00  0.00     0.012 A 
HETATM   28  C   UNL     1      -9.296   2.214 -34.219  1.00  0.00     0.037 A 
HETATM   29  C   UNL     1     -10.406   1.405 -33.988  1.00  0.00     0.068 A 
HETATM   30  C   UNL     1     -10.284   0.310 -33.130  1.00  0.00     0.037 A 
HETATM   31  C   UNL     1      -9.057  -0.001 -32.532  1.00  0.00     0.012 A 
BRANCH  29  32
HETATM   32  O   UNL     1     -11.652   1.589 -34.520  1.00  0.00    -0.356 OA
HETATM   33  C   UNL     1     -12.751   1.175 -33.716  1.00  0.00     0.210 C 
ENDBRANCH  29  32
ENDBRANCH   1  26
TORSDOF 6
ENDMDL
