MODEL 1
REMARK VINA RESULT:      -9.0      0.000      0.000
REMARK  7 active torsions:
REMARK  status: ('A' for Active; 'I' for Inactive)
REMARK    1  A    between atoms: C_2  and  N_3 
REMARK    2  A    between atoms: C_2  and  C_26 
REMARK       I    between atoms: N_3  and  C_4 
REMARK    3  A    between atoms: C_4  and  C_5 
REMARK    4  A    between atoms: C_8  and  C_9 
REMARK       I    between atoms: C_9  and  N_10 
REMARK    5  A    between atoms: N_10  and  C_11 
REMARK    6  A    between atoms: N_20  and  C_21 
REMARK    7  A    between atoms: C_28  and  O_29 
ROOT
HETATM    1  C   UNL     1      -3.889   4.828 -31.120  1.00  0.00     0.098 A 
HETATM    2  C   UNL     1      -3.973   3.341 -31.237  1.00  0.00     0.206 A 
HETATM    3  O   UNL     1      -2.990   2.683 -31.587  1.00  0.00    -0.286 OA
HETATM    4  C   UNL     1      -5.272   2.665 -30.938  1.00  0.00     0.098 A 
HETATM    5  C   UNL     1      -6.300   3.459 -30.592  1.00  0.00     0.112 A 
HETATM    6  N   UNL     1      -6.208   4.832 -30.482  1.00  0.00    -0.360 N 
HETATM    7  C   UNL     1      -5.017   5.470 -30.771  1.00  0.00     0.112 A 
ENDROOT
BRANCH   1   8
HETATM    8  C   UNL     1      -2.654   5.623 -31.378  1.00  0.00     0.257 C 
HETATM    9  N   UNL     1      -1.672   5.490 -30.433  1.00  0.00    -0.348 N 
HETATM   10  H   UNL     1      -1.868   4.916 -29.613  1.00  0.00     0.163 HD
HETATM   11  O   UNL     1      -2.542   6.342 -32.367  1.00  0.00    -0.267 OA
BRANCH   9  12
HETATM   12  C   UNL     1      -0.401   6.192 -30.475  1.00  0.00     0.114 C 
HETATM   13  C   UNL     1       0.760   5.251 -30.808  1.00  0.00     0.037 C 
BRANCH  12  14
HETATM   14  C   UNL     1      -0.157   6.896 -29.148  1.00  0.00    -0.033 A 
HETATM   15  C   UNL     1      -1.042   6.702 -28.071  1.00  0.00     0.046 A 
HETATM   16  C   UNL     1      -0.826   7.340 -26.846  1.00  0.00     0.068 A 
HETATM   17  C   UNL     1       0.288   8.167 -26.690  1.00  0.00     0.037 A 
HETATM   18  C   UNL     1       1.173   8.371 -27.745  1.00  0.00     0.003 A 
HETATM   19  C   UNL     1       0.949   7.744 -28.969  1.00  0.00     0.009 A 
BRANCH  16  20
HETATM   20  O   UNL     1      -1.616   7.238 -25.733  1.00  0.00    -0.356 OA
HETATM   21  C   UNL     1      -2.981   7.606 -25.876  1.00  0.00     0.210 C 
ENDBRANCH  16  20
ENDBRANCH  12  14
ENDBRANCH   9  12
ENDBRANCH   1   8
BRANCH   4  22
HETATM   22  C   UNL     1      -5.483   1.190 -31.002  1.00  0.00     0.257 C 
HETATM   23  N   UNL     1      -5.619   0.684 -32.269  1.00  0.00    -0.352 N 
HETATM   24  H   UNL     1      -5.469   1.323 -33.050  1.00  0.00     0.163 HD
HETATM   25  O   UNL     1      -5.522   0.500 -29.988  1.00  0.00    -0.267 OA
BRANCH  23  26
HETATM   26  C   UNL     1      -5.622  -0.742 -32.587  1.00  0.00     0.084 C 
HETATM   27  C   UNL     1      -6.745  -1.002 -33.598  1.00  0.00     0.025 C 
HETATM   28  C   UNL     1      -6.824  -2.416 -34.170  1.00  0.00     0.002 C 
HETATM   29  C   UNL     1      -5.711  -2.702 -35.172  1.00  0.00     0.000 C 
HETATM   30  C   UNL     1      -4.411  -3.214 -34.560  1.00  0.00     0.000 C 
HETATM   31  C   UNL     1      -4.018  -2.643 -33.202  1.00  0.00     0.002 C 
HETATM   32  C   UNL     1      -4.215  -1.138 -33.061  1.00  0.00     0.025 C 
ENDBRANCH  23  26
ENDBRANCH   4  22
BRANCH   6  33
HETATM   33  C   UNL     1      -7.430   5.624 -30.288  1.00  0.00     0.089 A 
HETATM   34  C   UNL     1      -8.730   4.981 -29.879  1.00  0.00     0.028 A 
HETATM   35  C   UNL     1      -8.010   5.882 -28.921  1.00  0.00     0.028 A 
ENDBRANCH   6  33
TORSDOF 7
ENDMDL
MODEL 2
REMARK VINA RESULT:      -8.8      2.371      9.899
REMARK  7 active torsions:
REMARK  status: ('A' for Active; 'I' for Inactive)
REMARK    1  A    between atoms: C_2  and  N_3 
REMARK    2  A    between atoms: C_2  and  C_26 
REMARK       I    between atoms: N_3  and  C_4 
REMARK    3  A    between atoms: C_4  and  C_5 
REMARK    4  A    between atoms: C_8  and  C_9 
REMARK       I    between atoms: C_9  and  N_10 
REMARK    5  A    between atoms: N_10  and  C_11 
REMARK    6  A    between atoms: N_20  and  C_21 
REMARK    7  A    between atoms: C_28  and  O_29 
ROOT
HETATM    1  C   UNL     1      -5.020   4.241 -32.401  1.00  0.00     0.098 A 
HETATM    2  C   UNL     1      -4.802   4.857 -31.057  1.00  0.00     0.206 A 
HETATM    3  O   UNL     1      -5.547   4.584 -30.113  1.00  0.00    -0.286 OA
HETATM    4  C   UNL     1      -3.675   5.823 -30.881  1.00  0.00     0.098 A 
HETATM    5  C   UNL     1      -2.930   6.088 -31.969  1.00  0.00     0.112 A 
HETATM    6  N   UNL     1      -3.140   5.507 -33.203  1.00  0.00    -0.360 N 
HETATM    7  C   UNL     1      -4.187   4.624 -33.382  1.00  0.00     0.112 A 
ENDROOT
BRANCH   1   8
HETATM    8  C   UNL     1      -6.098   3.257 -32.709  1.00  0.00     0.257 C 
HETATM    9  N   UNL     1      -5.974   2.048 -32.078  1.00  0.00    -0.348 N 
HETATM   10  H   UNL     1      -5.149   1.888 -31.501  1.00  0.00     0.163 HD
HETATM   11  O   UNL     1      -7.019   3.524 -33.475  1.00  0.00    -0.267 OA
BRANCH   9  12
HETATM   12  C   UNL     1      -6.896   0.939 -32.254  1.00  0.00     0.114 C 
HETATM   13  C   UNL     1      -7.494   0.477 -30.923  1.00  0.00     0.037 C 
BRANCH  12  14
HETATM   14  C   UNL     1      -6.190  -0.213 -32.954  1.00  0.00    -0.033 A 
HETATM   15  C   UNL     1      -6.939  -1.204 -33.617  1.00  0.00     0.046 A 
HETATM   16  C   UNL     1      -6.300  -2.265 -34.266  1.00  0.00     0.068 A 
HETATM   17  C   UNL     1      -4.905  -2.330 -34.267  1.00  0.00     0.037 A 
HETATM   18  C   UNL     1      -4.149  -1.359 -33.616  1.00  0.00     0.003 A 
HETATM   19  C   UNL     1      -4.788  -0.309 -32.958  1.00  0.00     0.009 A 
BRANCH  16  20
HETATM   20  O   UNL     1      -6.916  -3.288 -34.934  1.00  0.00    -0.356 OA
HETATM   21  C   UNL     1      -6.166  -4.484 -35.111  1.00  0.00     0.210 C 
ENDBRANCH  16  20
ENDBRANCH  12  14
ENDBRANCH   9  12
ENDBRANCH   1   8
BRANCH   4  22
HETATM   22  C   UNL     1      -3.340   6.494 -29.592  1.00  0.00     0.257 C 
HETATM   23  N   UNL     1      -2.017   6.429 -29.237  1.00  0.00    -0.352 N 
HETATM   24  H   UNL     1      -1.368   6.027 -29.913  1.00  0.00     0.163 HD
HETATM   25  O   UNL     1      -4.196   7.059 -28.919  1.00  0.00    -0.267 OA
BRANCH  23  26
HETATM   26  C   UNL     1      -1.425   7.187 -28.137  1.00  0.00     0.084 C 
HETATM   27  C   UNL     1      -0.249   6.377 -27.580  1.00  0.00     0.025 C 
HETATM   28  C   UNL     1       0.598   7.065 -26.510  1.00  0.00     0.002 C 
HETATM   29  C   UNL     1       1.488   8.160 -27.087  1.00  0.00     0.000 C 
HETATM   30  C   UNL     1       0.831   9.532 -27.196  1.00  0.00     0.000 C 
HETATM   31  C   UNL     1      -0.652   9.559 -27.549  1.00  0.00     0.002 C 
HETATM   32  C   UNL     1      -1.063   8.590 -28.652  1.00  0.00     0.025 C 
ENDBRANCH  23  26
ENDBRANCH   4  22
BRANCH   6  33
HETATM   33  C   UNL     1      -2.398   6.004 -34.370  1.00  0.00     0.089 A 
HETATM   34  C   UNL     1      -1.050   6.661 -34.226  1.00  0.00     0.028 A 
HETATM   35  C   UNL     1      -1.158   5.319 -34.884  1.00  0.00     0.028 A 
ENDBRANCH   6  33
TORSDOF 7
ENDMDL
MODEL 3
REMARK VINA RESULT:      -8.8      1.345      1.390
REMARK  7 active torsions:
REMARK  status: ('A' for Active; 'I' for Inactive)
REMARK    1  A    between atoms: C_2  and  N_3 
REMARK    2  A    between atoms: C_2  and  C_26 
REMARK       I    between atoms: N_3  and  C_4 
REMARK    3  A    between atoms: C_4  and  C_5 
REMARK    4  A    between atoms: C_8  and  C_9 
REMARK       I    between atoms: C_9  and  N_10 
REMARK    5  A    between atoms: N_10  and  C_11 
REMARK    6  A    between atoms: N_20  and  C_21 
REMARK    7  A    between atoms: C_28  and  O_29 
ROOT
HETATM    1  C   UNL     1      -3.330   4.361 -31.373  1.00  0.00     0.098 A 
HETATM    2  C   UNL     1      -3.690   2.917 -31.513  1.00  0.00     0.206 A 
HETATM    3  O   UNL     1      -2.822   2.074 -31.748  1.00  0.00    -0.286 OA
HETATM    4  C   UNL     1      -5.124   2.516 -31.377  1.00  0.00     0.098 A 
HETATM    5  C   UNL     1      -6.009   3.501 -31.151  1.00  0.00     0.112 A 
HETATM    6  N   UNL     1      -5.661   4.831 -31.018  1.00  0.00    -0.360 N 
HETATM    7  C   UNL     1      -4.343   5.217 -31.156  1.00  0.00     0.112 A 
ENDROOT
BRANCH   1   8
HETATM    8  C   UNL     1      -1.941   4.894 -31.474  1.00  0.00     0.257 C 
HETATM    9  N   UNL     1      -1.390   5.302 -30.289  1.00  0.00    -0.348 N 
HETATM   10  H   UNL     1      -1.970   5.267 -29.451  1.00  0.00     0.163 HD
HETATM   11  O   UNL     1      -1.349   4.958 -32.548  1.00  0.00    -0.267 OA
BRANCH   9  12
HETATM   12  C   UNL     1      -0.061   5.875 -30.163  1.00  0.00     0.114 C 
HETATM   13  C   UNL     1       0.947   4.863 -29.612  1.00  0.00     0.037 C 
BRANCH  12  14
HETATM   14  C   UNL     1      -0.115   7.114 -29.280  1.00  0.00    -0.033 A 
HETATM   15  C   UNL     1      -1.207   7.998 -29.368  1.00  0.00     0.046 A 
HETATM   16  C   UNL     1      -1.269   9.136 -28.560  1.00  0.00     0.068 A 
HETATM   17  C   UNL     1      -0.242   9.388 -27.647  1.00  0.00     0.037 A 
HETATM   18  C   UNL     1       0.846   8.525 -27.548  1.00  0.00     0.003 A 
HETATM   19  C   UNL     1       0.912   7.397 -28.364  1.00  0.00     0.009 A 
BRANCH  16  20
HETATM   20  O   UNL     1      -2.269  10.070 -28.558  1.00  0.00    -0.356 OA
HETATM   21  C   UNL     1      -2.039  11.258 -27.811  1.00  0.00     0.210 C 
ENDBRANCH  16  20
ENDBRANCH  12  14
ENDBRANCH   9  12
ENDBRANCH   1   8
BRANCH   4  22
HETATM   22  C   UNL     1      -5.612   1.110 -31.479  1.00  0.00     0.257 C 
HETATM   23  N   UNL     1      -5.221   0.447 -32.614  1.00  0.00    -0.352 N 
HETATM   24  H   UNL     1      -4.563   0.921 -33.233  1.00  0.00     0.163 HD
HETATM   25  O   UNL     1      -6.303   0.603 -30.602  1.00  0.00    -0.267 OA
BRANCH  23  26
HETATM   26  C   UNL     1      -5.399  -0.987 -32.828  1.00  0.00     0.084 C 
HETATM   27  C   UNL     1      -6.459  -1.177 -33.921  1.00  0.00     0.025 C 
HETATM   28  C   UNL     1      -6.688  -2.610 -34.396  1.00  0.00     0.002 C 
HETATM   29  C   UNL     1      -5.546  -3.126 -35.265  1.00  0.00     0.000 C 
HETATM   30  C   UNL     1      -4.388  -3.756 -34.498  1.00  0.00     0.000 C 
HETATM   31  C   UNL     1      -4.035  -3.132 -33.152  1.00  0.00     0.002 C 
HETATM   32  C   UNL     1      -4.028  -1.607 -33.138  1.00  0.00     0.025 C 
ENDBRANCH  23  26
ENDBRANCH   4  22
BRANCH   6  33
HETATM   33  C   UNL     1      -6.717   5.851 -30.965  1.00  0.00     0.089 A 
HETATM   34  C   UNL     1      -8.130   5.503 -30.572  1.00  0.00     0.028 A 
HETATM   35  C   UNL     1      -7.290   6.346 -29.661  1.00  0.00     0.028 A 
ENDBRANCH   6  33
TORSDOF 7
ENDMDL
MODEL 4
REMARK VINA RESULT:      -8.6      4.615      8.834
REMARK  7 active torsions:
REMARK  status: ('A' for Active; 'I' for Inactive)
REMARK    1  A    between atoms: C_2  and  N_3 
REMARK    2  A    between atoms: C_2  and  C_26 
REMARK       I    between atoms: N_3  and  C_4 
REMARK    3  A    between atoms: C_4  and  C_5 
REMARK    4  A    between atoms: C_8  and  C_9 
REMARK       I    between atoms: C_9  and  N_10 
REMARK    5  A    between atoms: N_10  and  C_11 
REMARK    6  A    between atoms: N_20  and  C_21 
REMARK    7  A    between atoms: C_28  and  O_29 
ROOT
HETATM    1  C   UNL     1      -7.787   4.367 -33.717  1.00  0.00     0.098 A 
HETATM    2  C   UNL     1      -7.697   2.946 -33.263  1.00  0.00     0.206 A 
HETATM    3  O   UNL     1      -8.719   2.283 -33.072  1.00  0.00    -0.286 OA
HETATM    4  C   UNL     1      -6.348   2.347 -33.029  1.00  0.00     0.098 A 
HETATM    5  C   UNL     1      -5.288   3.148 -33.232  1.00  0.00     0.112 A 
HETATM    6  N   UNL     1      -5.385   4.458 -33.657  1.00  0.00    -0.360 N 
HETATM    7  C   UNL     1      -6.626   5.027 -33.862  1.00  0.00     0.112 A 
ENDROOT
BRANCH   1   8
HETATM    8  C   UNL     1      -9.066   5.080 -33.997  1.00  0.00     0.257 C 
HETATM    9  N   UNL     1      -9.990   5.030 -32.987  1.00  0.00    -0.348 N 
HETATM   10  H   UNL     1      -9.768   4.478 -32.159  1.00  0.00     0.163 HD
HETATM   11  O   UNL     1      -9.263   5.662 -35.060  1.00  0.00    -0.267 OA
BRANCH   9  12
HETATM   12  C   UNL     1     -11.309   5.635 -33.059  1.00  0.00     0.114 C 
HETATM   13  C   UNL     1     -11.485   6.745 -32.021  1.00  0.00     0.037 C 
BRANCH  12  14
HETATM   14  C   UNL     1     -12.377   4.564 -32.887  1.00  0.00    -0.033 A 
HETATM   15  C   UNL     1     -12.612   3.628 -33.911  1.00  0.00     0.046 A 
HETATM   16  C   UNL     1     -13.588   2.639 -33.762  1.00  0.00     0.068 A 
HETATM   17  C   UNL     1     -14.325   2.572 -32.577  1.00  0.00     0.037 A 
HETATM   18  C   UNL     1     -14.105   3.491 -31.554  1.00  0.00     0.003 A 
HETATM   19  C   UNL     1     -13.141   4.485 -31.710  1.00  0.00     0.009 A 
BRANCH  16  20
HETATM   20  O   UNL     1     -13.913   1.681 -34.685  1.00  0.00    -0.356 OA
HETATM   21  C   UNL     1     -14.396   0.442 -34.183  1.00  0.00     0.210 C 
ENDBRANCH  16  20
ENDBRANCH  12  14
ENDBRANCH   9  12
ENDBRANCH   1   8
BRANCH   4  22
HETATM   22  C   UNL     1      -6.121   0.939 -32.592  1.00  0.00     0.257 C 
HETATM   23  N   UNL     1      -6.463  -0.012 -33.519  1.00  0.00    -0.352 N 
HETATM   24  H   UNL     1      -6.743   0.312 -34.445  1.00  0.00     0.163 HD
HETATM   25  O   UNL     1      -5.657   0.674 -31.488  1.00  0.00    -0.267 OA
BRANCH  23  26
HETATM   26  C   UNL     1      -6.135  -1.431 -33.397  1.00  0.00     0.084 C 
HETATM   27  C   UNL     1      -7.114  -2.222 -34.272  1.00  0.00     0.025 C 
HETATM   28  C   UNL     1      -6.848  -3.721 -34.396  1.00  0.00     0.002 C 
HETATM   29  C   UNL     1      -5.643  -4.028 -35.280  1.00  0.00     0.000 C 
HETATM   30  C   UNL     1      -4.300  -4.031 -34.558  1.00  0.00     0.000 C 
HETATM   31  C   UNL     1      -4.120  -3.014 -33.436  1.00  0.00     0.002 C 
HETATM   32  C   UNL     1      -4.650  -1.619 -33.748  1.00  0.00     0.025 C 
ENDBRANCH  23  26
ENDBRANCH   4  22
BRANCH   6  33
HETATM   33  C   UNL     1      -4.184   5.305 -33.663  1.00  0.00     0.089 A 
HETATM   34  C   UNL     1      -2.800   4.711 -33.676  1.00  0.00     0.028 A 
HETATM   35  C   UNL     1      -3.307   5.444 -34.881  1.00  0.00     0.028 A 
ENDBRANCH   6  33
TORSDOF 7
ENDMDL
MODEL 5
REMARK VINA RESULT:      -8.5      2.581      3.247
REMARK  7 active torsions:
REMARK  status: ('A' for Active; 'I' for Inactive)
REMARK    1  A    between atoms: C_2  and  N_3 
REMARK    2  A    between atoms: C_2  and  C_26 
REMARK       I    between atoms: N_3  and  C_4 
REMARK    3  A    between atoms: C_4  and  C_5 
REMARK    4  A    between atoms: C_8  and  C_9 
REMARK       I    between atoms: C_9  and  N_10 
REMARK    5  A    between atoms: N_10  and  C_11 
REMARK    6  A    between atoms: N_20  and  C_21 
REMARK    7  A    between atoms: C_28  and  O_29 
ROOT
HETATM    1  C   UNL     1      -6.046   4.733 -32.639  1.00  0.00     0.098 A 
HETATM    2  C   UNL     1      -5.859   3.252 -32.569  1.00  0.00     0.206 A 
HETATM    3  O   UNL     1      -4.782   2.741 -32.882  1.00  0.00    -0.286 OA
HETATM    4  C   UNL     1      -7.005   2.401 -32.127  1.00  0.00     0.098 A 
HETATM    5  C   UNL     1      -8.152   3.037 -31.833  1.00  0.00     0.112 A 
HETATM    6  N   UNL     1      -8.310   4.406 -31.897  1.00  0.00    -0.360 N 
HETATM    7  C   UNL     1      -7.263   5.203 -32.318  1.00  0.00     0.112 A 
ENDROOT
BRANCH   1   8
HETATM    8  C   UNL     1      -4.984   5.696 -33.051  1.00  0.00     0.257 C 
HETATM    9  N   UNL     1      -3.846   5.122 -33.553  1.00  0.00    -0.348 N 
HETATM   10  H   UNL     1      -3.782   4.105 -33.559  1.00  0.00     0.163 HD
HETATM   11  O   UNL     1      -5.132   6.909 -32.940  1.00  0.00    -0.267 OA
BRANCH   9  12
HETATM   12  C   UNL     1      -2.680   5.871 -33.989  1.00  0.00     0.114 C 
HETATM   13  C   UNL     1      -1.902   5.131 -35.079  1.00  0.00     0.037 C 
BRANCH  12  14
HETATM   14  C   UNL     1      -1.783   6.170 -32.797  1.00  0.00    -0.033 A 
HETATM   15  C   UNL     1      -1.009   5.145 -32.220  1.00  0.00     0.046 A 
HETATM   16  C   UNL     1      -0.179   5.409 -31.127  1.00  0.00     0.068 A 
HETATM   17  C   UNL     1      -0.107   6.706 -30.615  1.00  0.00     0.037 A 
HETATM   18  C   UNL     1      -0.866   7.732 -31.173  1.00  0.00     0.003 A 
HETATM   19  C   UNL     1      -1.704   7.464 -32.255  1.00  0.00     0.009 A 
BRANCH  16  20
HETATM   20  O   UNL     1       0.612   4.500 -30.478  1.00  0.00    -0.356 OA
HETATM   21  C   UNL     1       1.064   4.854 -29.177  1.00  0.00     0.210 C 
ENDBRANCH  16  20
ENDBRANCH  12  14
ENDBRANCH   9  12
ENDBRANCH   1   8
BRANCH   4  22
HETATM   22  C   UNL     1      -6.944   0.916 -31.999  1.00  0.00     0.257 C 
HETATM   23  N   UNL     1      -6.565   0.256 -33.141  1.00  0.00    -0.352 N 
HETATM   24  H   UNL     1      -6.266   0.823 -33.934  1.00  0.00     0.163 HD
HETATM   25  O   UNL     1      -7.211   0.348 -30.945  1.00  0.00    -0.267 OA
BRANCH  23  26
HETATM   26  C   UNL     1      -6.234  -1.166 -33.194  1.00  0.00     0.084 C 
HETATM   27  C   UNL     1      -7.107  -1.817 -34.274  1.00  0.00     0.025 C 
HETATM   28  C   UNL     1      -6.811  -3.282 -34.587  1.00  0.00     0.002 C 
HETATM   29  C   UNL     1      -5.518  -3.459 -35.376  1.00  0.00     0.000 C 
HETATM   30  C   UNL     1      -4.257  -3.573 -34.526  1.00  0.00     0.000 C 
HETATM   31  C   UNL     1      -4.207  -2.732 -33.254  1.00  0.00     0.002 C 
HETATM   32  C   UNL     1      -4.719  -1.305 -33.412  1.00  0.00     0.025 C 
ENDBRANCH  23  26
ENDBRANCH   4  22
BRANCH   6  33
HETATM   33  C   UNL     1      -9.651   4.987 -31.744  1.00  0.00     0.089 A 
HETATM   34  C   UNL     1     -10.011   6.314 -32.359  1.00  0.00     0.028 A 
HETATM   35  C   UNL     1     -10.630   5.056 -32.888  1.00  0.00     0.028 A 
ENDBRANCH   6  33
TORSDOF 7
ENDMDL
MODEL 6
REMARK VINA RESULT:      -8.5      4.420     10.370
REMARK  7 active torsions:
REMARK  status: ('A' for Active; 'I' for Inactive)
REMARK    1  A    between atoms: C_2  and  N_3 
REMARK    2  A    between atoms: C_2  and  C_26 
REMARK       I    between atoms: N_3  and  C_4 
REMARK    3  A    between atoms: C_4  and  C_5 
REMARK    4  A    between atoms: C_8  and  C_9 
REMARK       I    between atoms: C_9  and  N_10 
REMARK    5  A    between atoms: N_10  and  C_11 
REMARK    6  A    between atoms: N_20  and  C_21 
REMARK    7  A    between atoms: C_28  and  O_29 
ROOT
HETATM    1  C   UNL     1      -7.610   2.244 -33.307  1.00  0.00     0.098 A 
HETATM    2  C   UNL     1      -6.333   2.930 -32.942  1.00  0.00     0.206 A 
HETATM    3  O   UNL     1      -6.272   4.160 -32.900  1.00  0.00    -0.286 OA
HETATM    4  C   UNL     1      -5.127   2.098 -32.645  1.00  0.00     0.098 A 
HETATM    5  C   UNL     1      -5.273   0.765 -32.744  1.00  0.00     0.112 A 
HETATM    6  N   UNL     1      -6.460   0.145 -33.077  1.00  0.00    -0.360 N 
HETATM    7  C   UNL     1      -7.577   0.902 -33.368  1.00  0.00     0.112 A 
ENDROOT
BRANCH   1   8
HETATM    8  C   UNL     1      -8.885   2.952 -33.615  1.00  0.00     0.257 C 
HETATM    9  N   UNL     1      -9.914   2.693 -32.750  1.00  0.00    -0.348 N 
HETATM   10  H   UNL     1      -9.759   2.011 -32.008  1.00  0.00     0.163 HD
HETATM   11  O   UNL     1      -8.991   3.706 -34.578  1.00  0.00    -0.267 OA
BRANCH   9  12
HETATM   12  C   UNL     1     -11.248   3.256 -32.877  1.00  0.00     0.114 C 
HETATM   13  C   UNL     1     -11.651   4.053 -31.635  1.00  0.00     0.037 C 
BRANCH  12  14
HETATM   14  C   UNL     1     -12.252   2.146 -33.153  1.00  0.00    -0.033 A 
HETATM   15  C   UNL     1     -13.633   2.410 -33.090  1.00  0.00     0.046 A 
HETATM   16  C   UNL     1     -14.564   1.399 -33.344  1.00  0.00     0.068 A 
HETATM   17  C   UNL     1     -14.116   0.120 -33.679  1.00  0.00     0.037 A 
HETATM   18  C   UNL     1     -12.753  -0.159 -33.745  1.00  0.00     0.003 A 
HETATM   19  C   UNL     1     -11.826   0.847 -33.478  1.00  0.00     0.009 A 
BRANCH  16  20
HETATM   20  O   UNL     1     -15.926   1.529 -33.307  1.00  0.00    -0.356 OA
HETATM   21  C   UNL     1     -16.467   2.333 -32.266  1.00  0.00     0.210 C 
ENDBRANCH  16  20
ENDBRANCH  12  14
ENDBRANCH   9  12
ENDBRANCH   1   8
BRANCH   4  22
HETATM   22  C   UNL     1      -3.800   2.656 -32.255  1.00  0.00     0.257 C 
HETATM   23  N   UNL     1      -3.468   3.834 -32.875  1.00  0.00    -0.352 N 
HETATM   24  H   UNL     1      -4.178   4.274 -33.461  1.00  0.00     0.163 HD
HETATM   25  O   UNL     1      -3.080   2.094 -31.436  1.00  0.00    -0.267 OA
BRANCH  23  26
HETATM   26  C   UNL     1      -2.328   4.666 -32.497  1.00  0.00     0.084 C 
HETATM   27  C   UNL     1      -1.986   5.572 -33.686  1.00  0.00     0.025 C 
HETATM   28  C   UNL     1      -0.907   6.625 -33.443  1.00  0.00     0.002 C 
HETATM   29  C   UNL     1      -1.401   7.775 -32.572  1.00  0.00     0.000 C 
HETATM   30  C   UNL     1      -1.266   7.549 -31.070  1.00  0.00     0.000 C 
HETATM   31  C   UNL     1      -1.488   6.126 -30.566  1.00  0.00     0.002 C 
HETATM   32  C   UNL     1      -2.675   5.405 -31.195  1.00  0.00     0.025 C 
ENDBRANCH  23  26
ENDBRANCH   4  22
BRANCH   6  33
HETATM   33  C   UNL     1      -6.468  -1.300 -33.346  1.00  0.00     0.089 A 
HETATM   34  C   UNL     1      -7.190  -1.875 -34.537  1.00  0.00     0.028 A 
HETATM   35  C   UNL     1      -5.693  -1.907 -34.487  1.00  0.00     0.028 A 
ENDBRANCH   6  33
TORSDOF 7
ENDMDL
MODEL 7
REMARK VINA RESULT:      -8.4      4.566     10.414
REMARK  7 active torsions:
REMARK  status: ('A' for Active; 'I' for Inactive)
REMARK    1  A    between atoms: C_2  and  N_3 
REMARK    2  A    between atoms: C_2  and  C_26 
REMARK       I    between atoms: N_3  and  C_4 
REMARK    3  A    between atoms: C_4  and  C_5 
REMARK    4  A    between atoms: C_8  and  C_9 
REMARK       I    between atoms: C_9  and  N_10 
REMARK    5  A    between atoms: N_10  and  C_11 
REMARK    6  A    between atoms: N_20  and  C_21 
REMARK    7  A    between atoms: C_28  and  O_29 
ROOT
HETATM    1  C   UNL     1      -8.800   0.817 -33.561  1.00  0.00     0.098 A 
HETATM    2  C   UNL     1      -8.026   1.848 -32.805  1.00  0.00     0.206 A 
HETATM    3  O   UNL     1      -8.596   2.824 -32.313  1.00  0.00    -0.286 OA
HETATM    4  C   UNL     1      -6.547   1.683 -32.669  1.00  0.00     0.098 A 
HETATM    5  C   UNL     1      -6.001   0.607 -33.261  1.00  0.00     0.112 A 
HETATM    6  N   UNL     1      -6.729  -0.341 -33.952  1.00  0.00    -0.360 N 
HETATM    7  C   UNL     1      -8.094  -0.193 -34.098  1.00  0.00     0.112 A 
ENDROOT
BRANCH   1   8
HETATM    8  C   UNL     1     -10.277   0.855 -33.762  1.00  0.00     0.257 C 
HETATM    9  N   UNL     1     -10.725   1.859 -34.578  1.00  0.00    -0.348 N 
HETATM   10  H   UNL     1     -10.044   2.527 -34.938  1.00  0.00     0.163 HD
HETATM   11  O   UNL     1     -11.023   0.041 -33.226  1.00  0.00    -0.267 OA
BRANCH   9  12
HETATM   12  C   UNL     1     -12.125   2.094 -34.887  1.00  0.00     0.114 C 
HETATM   13  C   UNL     1     -12.295   3.091 -36.036  1.00  0.00     0.037 C 
BRANCH  12  14
HETATM   14  C   UNL     1     -12.854   2.579 -33.643  1.00  0.00    -0.033 A 
HETATM   15  C   UNL     1     -14.095   2.018 -33.286  1.00  0.00     0.046 A 
HETATM   16  C   UNL     1     -14.772   2.453 -32.143  1.00  0.00     0.068 A 
HETATM   17  C   UNL     1     -14.201   3.444 -31.342  1.00  0.00     0.037 A 
HETATM   18  C   UNL     1     -12.975   4.011 -31.681  1.00  0.00     0.003 A 
HETATM   19  C   UNL     1     -12.308   3.585 -32.828  1.00  0.00     0.009 A 
BRANCH  16  20
HETATM   20  O   UNL     1     -15.981   1.992 -31.698  1.00  0.00    -0.356 OA
HETATM   21  C   UNL     1     -17.125   2.771 -32.023  1.00  0.00     0.210 C 
ENDBRANCH  16  20
ENDBRANCH  12  14
ENDBRANCH   9  12
ENDBRANCH   1   8
BRANCH   4  22
HETATM   22  C   UNL     1      -5.663   2.630 -31.928  1.00  0.00     0.257 C 
HETATM   23  N   UNL     1      -4.749   3.292 -32.708  1.00  0.00    -0.352 N 
HETATM   24  H   UNL     1      -4.812   3.163 -33.718  1.00  0.00     0.163 HD
HETATM   25  O   UNL     1      -5.767   2.794 -30.717  1.00  0.00    -0.267 OA
BRANCH  23  26
HETATM   26  C   UNL     1      -3.933   4.410 -32.243  1.00  0.00     0.084 C 
HETATM   27  C   UNL     1      -2.587   3.851 -31.765  1.00  0.00     0.025 C 
HETATM   28  C   UNL     1      -1.530   4.880 -31.371  1.00  0.00     0.002 C 
HETATM   29  C   UNL     1      -0.927   5.588 -32.579  1.00  0.00     0.000 C 
HETATM   30  C   UNL     1      -1.693   6.820 -33.051  1.00  0.00     0.000 C 
HETATM   31  C   UNL     1      -3.213   6.769 -32.939  1.00  0.00     0.002 C 
HETATM   32  C   UNL     1      -3.841   5.449 -33.372  1.00  0.00     0.025 C 
ENDBRANCH  23  26
ENDBRANCH   4  22
BRANCH   6  33
HETATM   33  C   UNL     1      -6.022  -1.372 -34.723  1.00  0.00     0.089 A 
HETATM   34  C   UNL     1      -5.006  -2.281 -34.079  1.00  0.00     0.028 A 
HETATM   35  C   UNL     1      -6.313  -2.842 -34.554  1.00  0.00     0.028 A 
ENDBRANCH   6  33
TORSDOF 7
ENDMDL
MODEL 8
REMARK VINA RESULT:      -8.4      3.373      5.236
REMARK  7 active torsions:
REMARK  status: ('A' for Active; 'I' for Inactive)
REMARK    1  A    between atoms: C_2  and  N_3 
REMARK    2  A    between atoms: C_2  and  C_26 
REMARK       I    between atoms: N_3  and  C_4 
REMARK    3  A    between atoms: C_4  and  C_5 
REMARK    4  A    between atoms: C_8  and  C_9 
REMARK       I    between atoms: C_9  and  N_10 
REMARK    5  A    between atoms: N_10  and  C_11 
REMARK    6  A    between atoms: N_20  and  C_21 
REMARK    7  A    between atoms: C_28  and  O_29 
ROOT
HETATM    1  C   UNL     1      -4.655   3.201 -32.494  1.00  0.00     0.098 A 
HETATM    2  C   UNL     1      -5.918   2.946 -33.251  1.00  0.00     0.206 A 
HETATM    3  O   UNL     1      -6.581   3.884 -33.699  1.00  0.00    -0.286 OA
HETATM    4  C   UNL     1      -6.372   1.534 -33.442  1.00  0.00     0.098 A 
HETATM    5  C   UNL     1      -5.606   0.574 -32.895  1.00  0.00     0.112 A 
HETATM    6  N   UNL     1      -4.438   0.824 -32.203  1.00  0.00    -0.360 N 
HETATM    7  C   UNL     1      -4.016   2.124 -32.007  1.00  0.00     0.112 A 
ENDROOT
BRANCH   1   8
HETATM    8  C   UNL     1      -4.085   4.556 -32.242  1.00  0.00     0.257 C 
HETATM    9  N   UNL     1      -2.871   4.791 -32.828  1.00  0.00    -0.348 N 
HETATM   10  H   UNL     1      -2.425   4.027 -33.336  1.00  0.00     0.163 HD
HETATM   11  O   UNL     1      -4.673   5.388 -31.556  1.00  0.00    -0.267 OA
BRANCH   9  12
HETATM   12  C   UNL     1      -2.126   6.031 -32.693  1.00  0.00     0.114 C 
HETATM   13  C   UNL     1      -1.297   6.338 -33.942  1.00  0.00     0.037 C 
BRANCH  12  14
HETATM   14  C   UNL     1      -1.237   5.967 -31.460  1.00  0.00    -0.033 A 
HETATM   15  C   UNL     1      -1.585   6.680 -30.298  1.00  0.00     0.046 A 
HETATM   16  C   UNL     1      -0.778   6.626 -29.159  1.00  0.00     0.068 A 
HETATM   17  C   UNL     1       0.379   5.843 -29.173  1.00  0.00     0.037 A 
HETATM   18  C   UNL     1       0.739   5.131 -30.314  1.00  0.00     0.003 A 
HETATM   19  C   UNL     1      -0.061   5.197 -31.454  1.00  0.00     0.009 A 
BRANCH  16  20
HETATM   20  O   UNL     1      -1.005   7.277 -27.977  1.00  0.00    -0.356 OA
HETATM   21  C   UNL     1      -2.240   7.971 -27.852  1.00  0.00     0.210 C 
ENDBRANCH  16  20
ENDBRANCH  12  14
ENDBRANCH   9  12
ENDBRANCH   1   8
BRANCH   4  22
HETATM   22  C   UNL     1      -7.602   1.144 -34.189  1.00  0.00     0.257 C 
HETATM   23  N   UNL     1      -8.780   1.489 -33.577  1.00  0.00    -0.352 N 
HETATM   24  H   UNL     1      -8.722   2.058 -32.732  1.00  0.00     0.163 HD
HETATM   25  O   UNL     1      -7.544   0.566 -35.270  1.00  0.00    -0.267 OA
BRANCH  23  26
HETATM   26  C   UNL     1     -10.092   1.401 -34.213  1.00  0.00     0.084 C 
HETATM   27  C   UNL     1     -10.996   0.542 -33.322  1.00  0.00     0.025 C 
HETATM   28  C   UNL     1     -12.461   0.445 -33.741  1.00  0.00     0.002 C 
HETATM   29  C   UNL     1     -13.233   1.732 -33.466  1.00  0.00     0.000 C 
HETATM   30  C   UNL     1     -13.168   2.771 -34.580  1.00  0.00     0.000 C 
HETATM   31  C   UNL     1     -11.854   2.877 -35.346  1.00  0.00     0.002 C 
HETATM   32  C   UNL     1     -10.602   2.827 -34.476  1.00  0.00     0.025 C 
ENDBRANCH  23  26
ENDBRANCH   4  22
BRANCH   6  33
HETATM   33  C   UNL     1      -3.779  -0.273 -31.481  1.00  0.00     0.089 A 
HETATM   34  C   UNL     1      -3.773  -1.680 -32.020  1.00  0.00     0.028 A 
HETATM   35  C   UNL     1      -2.496  -0.897 -31.969  1.00  0.00     0.028 A 
ENDBRANCH   6  33
TORSDOF 7
ENDMDL
MODEL 9
REMARK VINA RESULT:      -8.3      4.854     10.568
REMARK  7 active torsions:
REMARK  status: ('A' for Active; 'I' for Inactive)
REMARK    1  A    between atoms: C_2  and  N_3 
REMARK    2  A    between atoms: C_2  and  C_26 
REMARK       I    between atoms: N_3  and  C_4 
REMARK    3  A    between atoms: C_4  and  C_5 
REMARK    4  A    between atoms: C_8  and  C_9 
REMARK       I    between atoms: C_9  and  N_10 
REMARK    5  A    between atoms: N_10  and  C_11 
REMARK    6  A    between atoms: N_20  and  C_21 
REMARK    7  A    between atoms: C_28  and  O_29 
ROOT
HETATM    1  C   UNL     1      -8.463   3.053 -33.577  1.00  0.00     0.098 A 
HETATM    2  C   UNL     1      -7.406   4.076 -33.836  1.00  0.00     0.206 A 
HETATM    3  O   UNL     1      -7.712   5.230 -34.144  1.00  0.00    -0.286 OA
HETATM    4  C   UNL     1      -5.970   3.673 -33.731  1.00  0.00     0.098 A 
HETATM    5  C   UNL     1      -5.724   2.389 -33.420  1.00  0.00     0.112 A 
HETATM    6  N   UNL     1      -6.711   1.455 -33.177  1.00  0.00    -0.360 N 
HETATM    7  C   UNL     1      -8.041   1.811 -33.285  1.00  0.00     0.112 A 
ENDROOT
BRANCH   1   8
HETATM    8  C   UNL     1      -9.928   3.324 -33.636  1.00  0.00     0.257 C 
HETATM    9  N   UNL     1     -10.456   3.377 -34.898  1.00  0.00    -0.348 N 
HETATM   10  H   UNL     1      -9.820   3.285 -35.690  1.00  0.00     0.163 HD
HETATM   11  O   UNL     1     -10.597   3.489 -32.620  1.00  0.00    -0.267 OA
BRANCH   9  12
HETATM   12  C   UNL     1     -11.853   3.653 -35.186  1.00  0.00     0.114 C 
HETATM   13  C   UNL     1     -12.264   5.055 -34.728  1.00  0.00     0.037 C 
BRANCH  12  14
HETATM   14  C   UNL     1     -12.733   2.596 -34.535  1.00  0.00    -0.033 A 
HETATM   15  C   UNL     1     -13.616   2.951 -33.498  1.00  0.00     0.046 A 
HETATM   16  C   UNL     1     -14.431   1.989 -32.896  1.00  0.00     0.068 A 
HETATM   17  C   UNL     1     -14.377   0.666 -33.340  1.00  0.00     0.037 A 
HETATM   18  C   UNL     1     -13.509   0.297 -34.364  1.00  0.00     0.003 A 
HETATM   19  C   UNL     1     -12.687   1.255 -34.955  1.00  0.00     0.009 A 
BRANCH  16  20
HETATM   20  O   UNL     1     -15.321   2.209 -31.878  1.00  0.00    -0.356 OA
HETATM   21  C   UNL     1     -16.663   2.495 -32.248  1.00  0.00     0.210 C 
ENDBRANCH  16  20
ENDBRANCH  12  14
ENDBRANCH   9  12
ENDBRANCH   1   8
BRANCH   4  22
HETATM   22  C   UNL     1      -4.822   4.600 -33.949  1.00  0.00     0.257 C 
HETATM   23  N   UNL     1      -4.032   4.806 -32.846  1.00  0.00    -0.352 N 
HETATM   24  H   UNL     1      -4.228   4.246 -32.016  1.00  0.00     0.163 HD
HETATM   25  O   UNL     1      -4.614   5.123 -35.038  1.00  0.00    -0.267 OA
BRANCH  23  26
HETATM   26  C   UNL     1      -2.746   5.497 -32.877  1.00  0.00     0.084 C 
HETATM   27  C   UNL     1      -3.000   6.987 -32.623  1.00  0.00     0.025 C 
HETATM   28  C   UNL     1      -1.762   7.868 -32.472  1.00  0.00     0.002 C 
HETATM   29  C   UNL     1      -1.053   7.653 -31.139  1.00  0.00     0.000 C 
HETATM   30  C   UNL     1      -0.030   6.521 -31.129  1.00  0.00     0.000 C 
HETATM   31  C   UNL     1      -0.358   5.291 -31.969  1.00  0.00     0.002 C 
HETATM   32  C   UNL     1      -1.804   4.817 -31.870  1.00  0.00     0.025 C 
ENDBRANCH  23  26
ENDBRANCH   4  22
BRANCH   6  33
HETATM   33  C   UNL     1      -6.345   0.039 -33.036  1.00  0.00     0.089 A 
HETATM   34  C   UNL     1      -4.922  -0.386 -32.782  1.00  0.00     0.028 A 
HETATM   35  C   UNL     1      -5.953  -0.560 -31.709  1.00  0.00     0.028 A 
ENDBRANCH   6  33
TORSDOF 7
ENDMDL
MODEL 10
REMARK VINA RESULT:      -8.2      3.753      7.051
REMARK  7 active torsions:
REMARK  status: ('A' for Active; 'I' for Inactive)
REMARK    1  A    between atoms: C_2  and  N_3 
REMARK    2  A    between atoms: C_2  and  C_26 
REMARK       I    between atoms: N_3  and  C_4 
REMARK    3  A    between atoms: C_4  and  C_5 
REMARK    4  A    between atoms: C_8  and  C_9 
REMARK       I    between atoms: C_9  and  N_10 
REMARK    5  A    between atoms: N_10  and  C_11 
REMARK    6  A    between atoms: N_20  and  C_21 
REMARK    7  A    between atoms: C_28  and  O_29 
ROOT
HETATM    1  C   UNL     1      -5.901   1.066 -32.686  1.00  0.00     0.098 A 
HETATM    2  C   UNL     1      -7.358   1.351 -32.510  1.00  0.00     0.206 A 
HETATM    3  O   UNL     1      -7.736   2.205 -31.706  1.00  0.00    -0.286 OA
HETATM    4  C   UNL     1      -8.348   0.571 -33.314  1.00  0.00     0.098 A 
HETATM    5  C   UNL     1      -7.851  -0.361 -34.145  1.00  0.00     0.112 A 
HETATM    6  N   UNL     1      -6.503  -0.610 -34.302  1.00  0.00    -0.360 N 
HETATM    7  C   UNL     1      -5.578   0.092 -33.555  1.00  0.00     0.112 A 
ENDROOT
BRANCH   1   8
HETATM    8  C   UNL     1      -4.811   1.776 -31.958  1.00  0.00     0.257 C 
HETATM    9  N   UNL     1      -4.939   3.139 -31.911  1.00  0.00    -0.348 N 
HETATM   10  H   UNL     1      -5.718   3.567 -32.411  1.00  0.00     0.163 HD
HETATM   11  O   UNL     1      -3.874   1.171 -31.445  1.00  0.00    -0.267 OA
BRANCH   9  12
HETATM   12  C   UNL     1      -3.980   4.026 -31.276  1.00  0.00     0.114 C 
HETATM   13  C   UNL     1      -4.648   4.953 -30.258  1.00  0.00     0.037 C 
BRANCH  12  14
HETATM   14  C   UNL     1      -3.243   4.833 -32.335  1.00  0.00    -0.033 A 
HETATM   15  C   UNL     1      -2.933   6.186 -32.104  1.00  0.00     0.046 A 
HETATM   16  C   UNL     1      -2.253   6.936 -33.068  1.00  0.00     0.068 A 
HETATM   17  C   UNL     1      -1.866   6.328 -34.264  1.00  0.00     0.037 A 
HETATM   18  C   UNL     1      -2.165   4.990 -34.509  1.00  0.00     0.003 A 
HETATM   19  C   UNL     1      -2.855   4.248 -33.552  1.00  0.00     0.009 A 
BRANCH  16  20
HETATM   20  O   UNL     1      -1.903   8.255 -32.964  1.00  0.00    -0.356 OA
HETATM   21  C   UNL     1      -2.005   8.849 -31.676  1.00  0.00     0.210 C 
ENDBRANCH  16  20
ENDBRANCH  12  14
ENDBRANCH   9  12
ENDBRANCH   1   8
BRANCH   4  22
HETATM   22  C   UNL     1      -9.824   0.769 -33.243  1.00  0.00     0.257 C 
HETATM   23  N   UNL     1     -10.259   2.001 -33.663  1.00  0.00    -0.352 N 
HETATM   24  H   UNL     1      -9.569   2.629 -34.072  1.00  0.00     0.163 HD
HETATM   25  O   UNL     1     -10.575  -0.115 -32.845  1.00  0.00    -0.267 OA
BRANCH  23  26
HETATM   26  C   UNL     1     -11.663   2.344 -33.881  1.00  0.00     0.084 C 
HETATM   27  C   UNL     1     -12.380   1.097 -34.414  1.00  0.00     0.025 C 
HETATM   28  C   UNL     1     -13.895   1.206 -34.572  1.00  0.00     0.002 C 
HETATM   29  C   UNL     1     -14.624   1.183 -33.233  1.00  0.00     0.000 C 
HETATM   30  C   UNL     1     -14.776   2.544 -32.559  1.00  0.00     0.000 C 
HETATM   31  C   UNL     1     -13.621   3.526 -32.727  1.00  0.00     0.002 C 
HETATM   32  C   UNL     1     -12.234   2.913 -32.572  1.00  0.00     0.025 C 
ENDBRANCH  23  26
ENDBRANCH   4  22
BRANCH   6  33
HETATM   33  C   UNL     1      -6.071  -1.776 -35.087  1.00  0.00     0.089 A 
HETATM   34  C   UNL     1      -5.022  -2.727 -34.572  1.00  0.00     0.028 A 
HETATM   35  C   UNL     1      -6.443  -3.185 -34.700  1.00  0.00     0.028 A 
ENDBRANCH   6  33
TORSDOF 7
ENDMDL
