MODEL 1
REMARK VINA RESULT:      -8.6      0.000      0.000
REMARK  3 active torsions:
REMARK  status: ('A' for Active; 'I' for Inactive)
REMARK    1  A    between atoms: C_2  and  C_3 
REMARK       I    between atoms: C_3  and  N_4 
REMARK    2  A    between atoms: N_4  and  N_5 
REMARK    3  A    between atoms: C_21  and  C_22 
ROOT
HETATM    1  C   UNL     1      -4.299   5.322 -33.890  1.00  0.00     0.288 C 
HETATM    2  N   UNL     1      -5.247   5.013 -32.935  1.00  0.00    -0.251 N 
HETATM    3  O   UNL     1      -4.365   4.931 -35.054  1.00  0.00    -0.264 OA
HETATM    4  H   UNL     1      -5.030   5.149 -31.956  1.00  0.00     0.191 HD
ENDROOT
BRANCH   2   5
HETATM    5  N   UNL     1      -6.094   3.946 -33.197  1.00  0.00    -0.167 N 
HETATM    6  C   UNL     1      -7.297   4.106 -33.828  1.00  0.00     0.345 C 
HETATM    7  O   UNL     1      -7.799   5.150 -34.209  1.00  0.00    -0.245 OA
HETATM    8  N   UNL     1      -7.835   2.854 -34.031  1.00  0.00    -0.323 N 
HETATM    9  C   UNL     1      -6.978   1.795 -33.521  1.00  0.00     0.117 C 
HETATM   10  H   UNL     1      -8.736   2.736 -34.478  1.00  0.00     0.165 HD
HETATM   11  C   UNL     1      -6.588   0.803 -34.620  1.00  0.00     0.041 C 
HETATM   12  C   UNL     1      -7.623   1.102 -32.317  1.00  0.00     0.041 C 
HETATM   13  C   UNL     1      -5.748   2.621 -33.073  1.00  0.00     0.275 C 
HETATM   14  C   UNL     1      -7.756  -0.097 -35.022  1.00  0.00     0.003 C 
HETATM   15  C   UNL     1      -8.375  -0.794 -33.814  1.00  0.00     0.000 C 
HETATM   16  C   UNL     1      -8.787   0.202 -32.732  1.00  0.00     0.003 C 
HETATM   17  O   UNL     1      -4.680   2.156 -32.701  1.00  0.00    -0.268 OA
ENDBRANCH   2   5
BRANCH   1  18
HETATM   18  C   UNL     1      -3.192   6.112 -33.413  1.00  0.00     0.121 A 
HETATM   19  C   UNL     1      -2.613   6.292 -32.171  1.00  0.00     0.066 A 
HETATM   20  C   UNL     1      -1.484   7.121 -32.388  1.00  0.00     0.061 A 
HETATM   21  N   UNL     1      -1.405   7.490 -33.673  1.00  0.00    -0.178 NA
HETATM   22  N   UNL     1      -2.436   6.869 -34.264  1.00  0.00    -0.272 N 
HETATM   23  H   UNL     1      -2.573   6.984 -35.264  1.00  0.00     0.189 HD
BRANCH  20  24
HETATM   24  C   UNL     1      -0.421   7.591 -31.424  1.00  0.00     0.039 C 
HETATM   25  C   UNL     1      -1.001   8.042 -30.075  1.00  0.00     0.011 C 
HETATM   26  C   UNL     1      -1.268   6.890 -29.111  1.00  0.00     0.001 C 
HETATM   27  C   UNL     1      -0.020   6.040 -28.904  1.00  0.00     0.000 C 
HETATM   28  C   UNL     1       0.514   5.499 -30.224  1.00  0.00     0.001 C 
HETATM   29  C   UNL     1       0.749   6.605 -31.253  1.00  0.00     0.011 C 
ENDBRANCH  20  24
ENDBRANCH   1  18
TORSDOF 3
ENDMDL
MODEL 2
REMARK VINA RESULT:      -8.5      2.603      3.753
REMARK  3 active torsions:
REMARK  status: ('A' for Active; 'I' for Inactive)
REMARK    1  A    between atoms: C_2  and  C_3 
REMARK       I    between atoms: C_3  and  N_4 
REMARK    2  A    between atoms: N_4  and  N_5 
REMARK    3  A    between atoms: C_21  and  C_22 
ROOT
HETATM    1  C   UNL     1      -6.304   3.920 -33.659  1.00  0.00     0.288 C 
HETATM    2  N   UNL     1      -6.870   2.760 -33.170  1.00  0.00    -0.251 N 
HETATM    3  O   UNL     1      -6.946   4.781 -34.257  1.00  0.00    -0.264 OA
HETATM    4  H   UNL     1      -6.272   1.987 -32.906  1.00  0.00     0.191 HD
ENDROOT
BRANCH   2   5
HETATM    5  N   UNL     1      -8.106   2.388 -33.678  1.00  0.00    -0.167 N 
HETATM    6  C   UNL     1      -8.240   1.424 -34.638  1.00  0.00     0.345 C 
HETATM    7  O   UNL     1      -7.349   0.799 -35.189  1.00  0.00    -0.245 OA
HETATM    8  N   UNL     1      -9.587   1.217 -34.842  1.00  0.00    -0.323 N 
HETATM    9  C   UNL     1     -10.410   2.070 -33.997  1.00  0.00     0.117 C 
HETATM   10  H   UNL     1      -9.919   0.547 -35.524  1.00  0.00     0.165 HD
HETATM   11  C   UNL     1     -11.350   1.249 -33.109  1.00  0.00     0.041 C 
HETATM   12  C   UNL     1     -11.163   3.108 -34.835  1.00  0.00     0.041 C 
HETATM   13  C   UNL     1      -9.317   2.756 -33.143  1.00  0.00     0.275 C 
HETATM   14  C   UNL     1     -12.499   0.633 -33.906  1.00  0.00     0.003 C 
HETATM   15  C   UNL     1     -13.250   1.682 -34.720  1.00  0.00     0.000 C 
HETATM   16  C   UNL     1     -12.312   2.479 -35.624  1.00  0.00     0.003 C 
HETATM   17  O   UNL     1      -9.521   3.470 -32.171  1.00  0.00    -0.268 OA
ENDBRANCH   2   5
BRANCH   1  18
HETATM   18  C   UNL     1      -4.882   4.036 -33.452  1.00  0.00     0.121 A 
HETATM   19  C   UNL     1      -3.920   4.920 -33.903  1.00  0.00     0.066 A 
HETATM   20  C   UNL     1      -2.718   4.551 -33.248  1.00  0.00     0.061 A 
HETATM   21  N   UNL     1      -2.906   3.463 -32.489  1.00  0.00    -0.178 NA
HETATM   22  N   UNL     1      -4.209   3.179 -32.626  1.00  0.00    -0.272 N 
HETATM   23  H   UNL     1      -4.598   2.390 -32.117  1.00  0.00     0.189 HD
BRANCH  20  24
HETATM   24  C   UNL     1      -1.354   5.196 -33.279  1.00  0.00     0.039 C 
HETATM   25  C   UNL     1      -1.374   6.595 -33.914  1.00  0.00     0.011 C 
HETATM   26  C   UNL     1      -1.797   7.697 -32.948  1.00  0.00     0.001 C 
HETATM   27  C   UNL     1      -0.939   7.689 -31.688  1.00  0.00     0.000 C 
HETATM   28  C   UNL     1      -0.987   6.338 -30.987  1.00  0.00     0.001 C 
HETATM   29  C   UNL     1      -0.625   5.184 -31.923  1.00  0.00     0.011 C 
ENDBRANCH  20  24
ENDBRANCH   1  18
TORSDOF 3
ENDMDL
MODEL 3
REMARK VINA RESULT:      -8.3      1.782      2.143
REMARK  3 active torsions:
REMARK  status: ('A' for Active; 'I' for Inactive)
REMARK    1  A    between atoms: C_2  and  C_3 
REMARK       I    between atoms: C_3  and  N_4 
REMARK    2  A    between atoms: N_4  and  N_5 
REMARK    3  A    between atoms: C_21  and  C_22 
ROOT
HETATM    1  C   UNL     1      -3.942   3.189 -32.661  1.00  0.00     0.288 C 
HETATM    2  N   UNL     1      -5.056   3.726 -33.275  1.00  0.00    -0.251 N 
HETATM    3  O   UNL     1      -3.918   2.056 -32.183  1.00  0.00    -0.264 OA
HETATM    4  H   UNL     1      -5.105   4.725 -33.432  1.00  0.00     0.191 HD
ENDROOT
BRANCH   2   5
HETATM    5  N   UNL     1      -6.278   3.119 -33.025  1.00  0.00    -0.167 N 
HETATM    6  C   UNL     1      -7.117   3.546 -32.034  1.00  0.00     0.345 C 
HETATM    7  O   UNL     1      -6.924   4.452 -31.241  1.00  0.00    -0.245 OA
HETATM    8  N   UNL     1      -8.280   2.813 -32.121  1.00  0.00    -0.323 N 
HETATM    9  C   UNL     1      -8.241   1.844 -33.205  1.00  0.00     0.117 C 
HETATM   10  H   UNL     1      -9.043   2.958 -31.471  1.00  0.00     0.165 HD
HETATM   11  C   UNL     1      -9.384   2.062 -34.201  1.00  0.00     0.041 C 
HETATM   12  C   UNL     1      -8.213   0.413 -32.660  1.00  0.00     0.041 C 
HETATM   13  C   UNL     1      -6.881   2.201 -33.852  1.00  0.00     0.275 C 
HETATM   14  C   UNL     1     -10.734   1.629 -33.630  1.00  0.00     0.003 C 
HETATM   15  C   UNL     1     -10.694   0.196 -33.107  1.00  0.00     0.000 C 
HETATM   16  C   UNL     1      -9.570  -0.009 -32.094  1.00  0.00     0.003 C 
HETATM   17  O   UNL     1      -6.458   1.750 -34.908  1.00  0.00    -0.268 OA
ENDBRANCH   2   5
BRANCH   1  18
HETATM   18  C   UNL     1      -2.807   4.072 -32.584  1.00  0.00     0.121 A 
HETATM   19  C   UNL     1      -2.046   4.562 -31.539  1.00  0.00     0.066 A 
HETATM   20  C   UNL     1      -0.999   5.307 -32.138  1.00  0.00     0.061 A 
HETATM   21  N   UNL     1      -1.139   5.336 -33.470  1.00  0.00    -0.178 NA
HETATM   22  N   UNL     1      -2.224   4.587 -33.709  1.00  0.00    -0.272 N 
HETATM   23  H   UNL     1      -2.521   4.443 -34.670  1.00  0.00     0.189 HD
BRANCH  20  24
HETATM   24  C   UNL     1       0.182   6.006 -31.510  1.00  0.00     0.039 C 
HETATM   25  C   UNL     1      -0.234   7.150 -30.573  1.00  0.00     0.011 C 
HETATM   26  C   UNL     1      -0.615   6.682 -29.172  1.00  0.00     0.001 C 
HETATM   27  C   UNL     1       0.496   5.849 -28.544  1.00  0.00     0.000 C 
HETATM   28  C   UNL     1       0.855   4.650 -29.412  1.00  0.00     0.001 C 
HETATM   29  C   UNL     1       1.194   5.052 -30.848  1.00  0.00     0.011 C 
ENDBRANCH  20  24
ENDBRANCH   1  18
TORSDOF 3
ENDMDL
MODEL 4
REMARK VINA RESULT:      -8.3      2.300      3.232
REMARK  3 active torsions:
REMARK  status: ('A' for Active; 'I' for Inactive)
REMARK    1  A    between atoms: C_2  and  C_3 
REMARK       I    between atoms: C_3  and  N_4 
REMARK    2  A    between atoms: N_4  and  N_5 
REMARK    3  A    between atoms: C_21  and  C_22 
ROOT
HETATM    1  C   UNL     1      -2.877   4.887 -31.679  1.00  0.00     0.288 C 
HETATM    2  N   UNL     1      -3.749   4.118 -30.933  1.00  0.00    -0.251 N 
HETATM    3  O   UNL     1      -2.945   4.983 -32.902  1.00  0.00    -0.264 OA
HETATM    4  H   UNL     1      -3.511   3.880 -29.978  1.00  0.00     0.191 HD
ENDROOT
BRANCH   2   5
HETATM    5  N   UNL     1      -4.482   3.150 -31.604  1.00  0.00    -0.167 N 
HETATM    6  C   UNL     1      -4.039   1.865 -31.744  1.00  0.00     0.345 C 
HETATM    7  O   UNL     1      -2.981   1.400 -31.354  1.00  0.00    -0.245 OA
HETATM    8  N   UNL     1      -5.038   1.139 -32.356  1.00  0.00    -0.323 N 
HETATM    9  C   UNL     1      -6.208   1.952 -32.651  1.00  0.00     0.117 C 
HETATM   10  H   UNL     1      -4.919   0.156 -32.568  1.00  0.00     0.165 HD
HETATM   11  C   UNL     1      -7.468   1.394 -31.983  1.00  0.00     0.041 C 
HETATM   12  C   UNL     1      -6.384   2.130 -34.162  1.00  0.00     0.041 C 
HETATM   13  C   UNL     1      -5.793   3.290 -31.995  1.00  0.00     0.275 C 
HETATM   14  C   UNL     1      -7.964   0.120 -32.666  1.00  0.00     0.003 C 
HETATM   15  C   UNL     1      -8.151   0.319 -34.167  1.00  0.00     0.000 C 
HETATM   16  C   UNL     1      -6.883   0.850 -34.833  1.00  0.00     0.003 C 
HETATM   17  O   UNL     1      -6.519   4.264 -31.849  1.00  0.00    -0.268 OA
ENDBRANCH   2   5
BRANCH   1  18
HETATM   18  C   UNL     1      -1.847   5.547 -30.917  1.00  0.00     0.121 A 
HETATM   19  C   UNL     1      -1.669   6.844 -30.475  1.00  0.00     0.066 A 
HETATM   20  C   UNL     1      -0.495   6.824 -29.681  1.00  0.00     0.061 A 
HETATM   21  N   UNL     1       0.062   5.606 -29.686  1.00  0.00    -0.178 NA
HETATM   22  N   UNL     1      -0.770   4.861 -30.429  1.00  0.00    -0.272 N 
HETATM   23  H   UNL     1      -0.563   3.875 -30.561  1.00  0.00     0.189 HD
BRANCH  20  24
HETATM   24  C   UNL     1       0.152   7.922 -28.871  1.00  0.00     0.039 C 
HETATM   25  C   UNL     1      -0.858   8.967 -28.375  1.00  0.00     0.011 C 
HETATM   26  C   UNL     1      -1.589   8.552 -27.102  1.00  0.00     0.001 C 
HETATM   27  C   UNL     1      -0.608   8.183 -25.995  1.00  0.00     0.000 C 
HETATM   28  C   UNL     1       0.340   7.075 -26.434  1.00  0.00     0.001 C 
HETATM   29  C   UNL     1       1.062   7.410 -27.739  1.00  0.00     0.011 C 
ENDBRANCH  20  24
ENDBRANCH   1  18
TORSDOF 3
ENDMDL
MODEL 5
REMARK VINA RESULT:      -8.2      1.951      2.277
REMARK  3 active torsions:
REMARK  status: ('A' for Active; 'I' for Inactive)
REMARK    1  A    between atoms: C_2  and  C_3 
REMARK       I    between atoms: C_3  and  N_4 
REMARK    2  A    between atoms: N_4  and  N_5 
REMARK    3  A    between atoms: C_21  and  C_22 
ROOT
HETATM    1  C   UNL     1      -2.902   4.557 -32.284  1.00  0.00     0.288 C 
HETATM    2  N   UNL     1      -4.258   4.628 -32.036  1.00  0.00    -0.251 N 
HETATM    3  O   UNL     1      -2.417   3.870 -33.181  1.00  0.00    -0.264 OA
HETATM    4  H   UNL     1      -4.584   5.005 -31.155  1.00  0.00     0.191 HD
ENDROOT
BRANCH   2   5
HETATM    5  N   UNL     1      -5.058   3.627 -32.568  1.00  0.00    -0.167 N 
HETATM    6  C   UNL     1      -5.669   3.750 -33.785  1.00  0.00     0.345 C 
HETATM    7  O   UNL     1      -5.636   4.711 -34.535  1.00  0.00    -0.245 OA
HETATM    8  N   UNL     1      -6.292   2.553 -34.067  1.00  0.00    -0.323 N 
HETATM    9  C   UNL     1      -6.107   1.573 -33.007  1.00  0.00     0.117 C 
HETATM   10  H   UNL     1      -6.818   2.424 -34.921  1.00  0.00     0.165 HD
HETATM   11  C   UNL     1      -5.437   0.298 -33.527  1.00  0.00     0.041 C 
HETATM   12  C   UNL     1      -7.431   1.283 -32.294  1.00  0.00     0.041 C 
HETATM   13  C   UNL     1      -5.149   2.349 -32.071  1.00  0.00     0.275 C 
HETATM   14  C   UNL     1      -6.386  -0.543 -34.379  1.00  0.00     0.003 C 
HETATM   15  C   UNL     1      -7.692  -0.839 -33.647  1.00  0.00     0.000 C 
HETATM   16  C   UNL     1      -8.370   0.438 -33.155  1.00  0.00     0.003 C 
HETATM   17  O   UNL     1      -4.580   1.881 -31.094  1.00  0.00    -0.268 OA
ENDBRANCH   2   5
BRANCH   1  18
HETATM   18  C   UNL     1      -2.080   5.325 -31.384  1.00  0.00     0.121 A 
HETATM   19  C   UNL     1      -2.107   6.637 -30.948  1.00  0.00     0.066 A 
HETATM   20  C   UNL     1      -1.080   6.744 -29.978  1.00  0.00     0.061 A 
HETATM   21  N   UNL     1      -0.409   5.589 -29.866  1.00  0.00    -0.178 NA
HETATM   22  N   UNL     1      -1.031   4.758 -30.715  1.00  0.00    -0.272 N 
HETATM   23  H   UNL     1      -0.706   3.798 -30.790  1.00  0.00     0.189 HD
BRANCH  20  24
HETATM   24  C   UNL     1      -0.686   7.907 -29.100  1.00  0.00     0.039 C 
HETATM   25  C   UNL     1      -1.648   8.112 -27.919  1.00  0.00     0.011 C 
HETATM   26  C   UNL     1      -1.354   7.204 -26.730  1.00  0.00     0.001 C 
HETATM   27  C   UNL     1       0.094   7.338 -26.274  1.00  0.00     0.000 C 
HETATM   28  C   UNL     1       1.067   7.039 -27.407  1.00  0.00     0.001 C 
HETATM   29  C   UNL     1       0.787   7.882 -28.652  1.00  0.00     0.011 C 
ENDBRANCH  20  24
ENDBRANCH   1  18
TORSDOF 3
ENDMDL
MODEL 6
REMARK VINA RESULT:      -8.2      1.473      8.200
REMARK  3 active torsions:
REMARK  status: ('A' for Active; 'I' for Inactive)
REMARK    1  A    between atoms: C_2  and  C_3 
REMARK       I    between atoms: C_3  and  N_4 
REMARK    2  A    between atoms: N_4  and  N_5 
REMARK    3  A    between atoms: C_21  and  C_22 
ROOT
HETATM    1  C   UNL     1      -5.537   4.942 -33.452  1.00  0.00     0.288 C 
HETATM    2  N   UNL     1      -4.244   4.488 -33.625  1.00  0.00    -0.251 N 
HETATM    3  O   UNL     1      -5.804   6.073 -33.052  1.00  0.00    -0.264 OA
HETATM    4  H   UNL     1      -4.074   3.495 -33.721  1.00  0.00     0.191 HD
ENDROOT
BRANCH   2   5
HETATM    5  N   UNL     1      -3.230   5.191 -32.991  1.00  0.00    -0.167 N 
HETATM    6  C   UNL     1      -2.619   6.270 -33.566  1.00  0.00     0.345 C 
HETATM    7  O   UNL     1      -2.833   6.739 -34.672  1.00  0.00    -0.245 OA
HETATM    8  N   UNL     1      -1.745   6.801 -32.643  1.00  0.00    -0.323 N 
HETATM    9  C   UNL     1      -1.749   6.061 -31.391  1.00  0.00     0.117 C 
HETATM   10  H   UNL     1      -1.174   7.607 -32.863  1.00  0.00     0.165 HD
HETATM   11  C   UNL     1      -2.111   6.959 -30.204  1.00  0.00     0.041 C 
HETATM   12  C   UNL     1      -0.418   5.332 -31.181  1.00  0.00     0.041 C 
HETATM   13  C   UNL     1      -2.883   5.045 -31.669  1.00  0.00     0.275 C 
HETATM   14  C   UNL     1      -0.975   7.913 -29.838  1.00  0.00     0.003 C 
HETATM   15  C   UNL     1       0.339   7.170 -29.615  1.00  0.00     0.000 C 
HETATM   16  C   UNL     1       0.709   6.297 -30.812  1.00  0.00     0.003 C 
HETATM   17  O   UNL     1      -3.370   4.283 -30.845  1.00  0.00    -0.268 OA
ENDBRANCH   2   5
BRANCH   1  18
HETATM   18  C   UNL     1      -6.563   3.973 -33.741  1.00  0.00     0.121 A 
HETATM   19  C   UNL     1      -6.559   2.603 -33.929  1.00  0.00     0.066 A 
HETATM   20  C   UNL     1      -7.918   2.229 -34.075  1.00  0.00     0.061 A 
HETATM   21  N   UNL     1      -8.714   3.306 -34.049  1.00  0.00    -0.178 NA
HETATM   22  N   UNL     1      -7.878   4.334 -33.844  1.00  0.00    -0.272 N 
HETATM   23  H   UNL     1      -8.261   5.272 -33.766  1.00  0.00     0.189 HD
BRANCH  20  24
HETATM   24  C   UNL     1      -8.541   0.862 -34.226  1.00  0.00     0.039 C 
HETATM   25  C   UNL     1      -7.939   0.061 -35.391  1.00  0.00     0.011 C 
HETATM   26  C   UNL     1      -6.636  -0.648 -35.034  1.00  0.00     0.001 C 
HETATM   27  C   UNL     1      -6.804  -1.531 -33.804  1.00  0.00     0.000 C 
HETATM   28  C   UNL     1      -7.305  -0.733 -32.607  1.00  0.00     0.001 C 
HETATM   29  C   UNL     1      -8.583   0.046 -32.921  1.00  0.00     0.011 C 
ENDBRANCH  20  24
ENDBRANCH   1  18
TORSDOF 3
ENDMDL
MODEL 7
REMARK VINA RESULT:      -8.2      2.829      4.124
REMARK  3 active torsions:
REMARK  status: ('A' for Active; 'I' for Inactive)
REMARK    1  A    between atoms: C_2  and  C_3 
REMARK       I    between atoms: C_3  and  N_4 
REMARK    2  A    between atoms: N_4  and  N_5 
REMARK    3  A    between atoms: C_21  and  C_22 
ROOT
HETATM    1  C   UNL     1      -6.843   3.819 -32.436  1.00  0.00     0.288 C 
HETATM    2  N   UNL     1      -7.437   2.642 -32.025  1.00  0.00    -0.251 N 
HETATM    3  O   UNL     1      -7.484   4.803 -32.799  1.00  0.00    -0.264 OA
HETATM    4  H   UNL     1      -6.882   1.797 -31.970  1.00  0.00     0.191 HD
ENDROOT
BRANCH   2   5
HETATM    5  N   UNL     1      -8.764   2.439 -32.374  1.00  0.00    -0.167 N 
HETATM    6  C   UNL     1      -9.799   2.886 -31.600  1.00  0.00     0.345 C 
HETATM    7  O   UNL     1      -9.725   3.469 -30.531  1.00  0.00    -0.245 OA
HETATM    8  N   UNL     1     -10.972   2.624 -32.273  1.00  0.00    -0.323 N 
HETATM    9  C   UNL     1     -10.740   1.972 -33.553  1.00  0.00     0.117 C 
HETATM   10  H   UNL     1     -11.871   2.865 -31.875  1.00  0.00     0.165 HD
HETATM   11  C   UNL     1     -11.324   2.781 -34.714  1.00  0.00     0.041 C 
HETATM   12  C   UNL     1     -11.256   0.530 -33.534  1.00  0.00     0.041 C 
HETATM   13  C   UNL     1      -9.193   1.991 -33.600  1.00  0.00     0.275 C 
HETATM   14  C   UNL     1     -12.850   2.708 -34.756  1.00  0.00     0.003 C 
HETATM   15  C   UNL     1     -13.347   1.265 -34.755  1.00  0.00     0.000 C 
HETATM   16  C   UNL     1     -12.783   0.470 -33.579  1.00  0.00     0.003 C 
HETATM   17  O   UNL     1      -8.510   1.678 -34.566  1.00  0.00    -0.268 OA
ENDBRANCH   2   5
BRANCH   1  18
HETATM   18  C   UNL     1      -5.403   3.800 -32.446  1.00  0.00     0.121 A 
HETATM   19  C   UNL     1      -4.444   4.456 -33.196  1.00  0.00     0.066 A 
HETATM   20  C   UNL     1      -3.195   4.080 -32.641  1.00  0.00     0.061 A 
HETATM   21  N   UNL     1      -3.362   3.191 -31.652  1.00  0.00    -0.178 NA
HETATM   22  N   UNL     1      -4.692   3.046 -31.554  1.00  0.00    -0.272 N 
HETATM   23  H   UNL     1      -5.068   2.424 -30.844  1.00  0.00     0.189 HD
BRANCH  20  24
HETATM   24  C   UNL     1      -1.798   4.537 -32.986  1.00  0.00     0.039 C 
HETATM   25  C   UNL     1      -1.746   5.354 -34.286  1.00  0.00     0.011 C 
HETATM   26  C   UNL     1      -2.107   6.824 -34.097  1.00  0.00     0.001 C 
HETATM   27  C   UNL     1      -1.246   7.472 -33.019  1.00  0.00     0.000 C 
HETATM   28  C   UNL     1      -1.363   6.734 -31.691  1.00  0.00     0.001 C 
HETATM   29  C   UNL     1      -1.066   5.240 -31.828  1.00  0.00     0.011 C 
ENDBRANCH  20  24
ENDBRANCH   1  18
TORSDOF 3
ENDMDL
MODEL 8
REMARK VINA RESULT:      -8.1      2.619      8.460
REMARK  3 active torsions:
REMARK  status: ('A' for Active; 'I' for Inactive)
REMARK    1  A    between atoms: C_2  and  C_3 
REMARK       I    between atoms: C_3  and  N_4 
REMARK    2  A    between atoms: N_4  and  N_5 
REMARK    3  A    between atoms: C_21  and  C_22 
ROOT
HETATM    1  C   UNL     1      -3.726   4.138 -32.531  1.00  0.00     0.288 C 
HETATM    2  N   UNL     1      -3.020   4.235 -31.349  1.00  0.00    -0.251 N 
HETATM    3  O   UNL     1      -3.719   5.015 -33.392  1.00  0.00    -0.264 OA
HETATM    4  H   UNL     1      -3.244   3.612 -30.583  1.00  0.00     0.191 HD
ENDROOT
BRANCH   2   5
HETATM    5  N   UNL     1      -2.591   5.496 -30.963  1.00  0.00    -0.167 N 
HETATM    6  C   UNL     1      -1.390   6.013 -31.362  1.00  0.00     0.345 C 
HETATM    7  O   UNL     1      -0.544   5.470 -32.053  1.00  0.00    -0.245 OA
HETATM    8  N   UNL     1      -1.316   7.310 -30.903  1.00  0.00    -0.323 N 
HETATM    9  C   UNL     1      -2.503   7.700 -30.158  1.00  0.00     0.117 C 
HETATM   10  H   UNL     1      -0.500   7.883 -31.077  1.00  0.00     0.165 HD
HETATM   11  C   UNL     1      -3.182   8.926 -30.775  1.00  0.00     0.041 C 
HETATM   12  C   UNL     1      -2.176   7.904 -28.675  1.00  0.00     0.041 C 
HETATM   13  C   UNL     1      -3.380   6.439 -30.348  1.00  0.00     0.275 C 
HETATM   14  C   UNL     1      -2.390  10.208 -30.524  1.00  0.00     0.003 C 
HETATM   15  C   UNL     1      -2.088  10.406 -29.041  1.00  0.00     0.000 C 
HETATM   16  C   UNL     1      -1.387   9.191 -28.437  1.00  0.00     0.003 C 
HETATM   17  O   UNL     1      -4.554   6.336 -30.021  1.00  0.00    -0.268 OA
ENDBRANCH   2   5
BRANCH   1  18
HETATM   18  C   UNL     1      -4.510   2.937 -32.672  1.00  0.00     0.121 A 
HETATM   19  C   UNL     1      -4.295   1.611 -32.346  1.00  0.00     0.066 A 
HETATM   20  C   UNL     1      -5.506   0.938 -32.647  1.00  0.00     0.061 A 
HETATM   21  N   UNL     1      -6.395   1.779 -33.192  1.00  0.00    -0.178 NA
HETATM   22  N   UNL     1      -5.775   2.968 -33.191  1.00  0.00    -0.272 N 
HETATM   23  H   UNL     1      -6.270   3.781 -33.545  1.00  0.00     0.189 HD
BRANCH  20  24
HETATM   24  C   UNL     1      -5.899  -0.503 -32.429  1.00  0.00     0.039 C 
HETATM   25  C   UNL     1      -7.070  -0.941 -33.322  1.00  0.00     0.011 C 
HETATM   26  C   UNL     1      -6.644  -1.342 -34.731  1.00  0.00     0.001 C 
HETATM   27  C   UNL     1      -5.561  -2.415 -34.699  1.00  0.00     0.000 C 
HETATM   28  C   UNL     1      -4.347  -1.959 -33.899  1.00  0.00     0.001 C 
HETATM   29  C   UNL     1      -4.719  -1.490 -32.492  1.00  0.00     0.011 C 
ENDBRANCH  20  24
ENDBRANCH   1  18
TORSDOF 3
ENDMDL
MODEL 9
REMARK VINA RESULT:      -8.0      3.260      3.869
REMARK  3 active torsions:
REMARK  status: ('A' for Active; 'I' for Inactive)
REMARK    1  A    between atoms: C_2  and  C_3 
REMARK       I    between atoms: C_3  and  N_4 
REMARK    2  A    between atoms: N_4  and  N_5 
REMARK    3  A    between atoms: C_21  and  C_22 
ROOT
HETATM    1  C   UNL     1      -4.495   2.902 -32.053  1.00  0.00     0.288 C 
HETATM    2  N   UNL     1      -4.047   1.945 -31.165  1.00  0.00    -0.251 N 
HETATM    3  O   UNL     1      -5.269   2.654 -32.974  1.00  0.00    -0.264 OA
HETATM    4  H   UNL     1      -3.240   2.141 -30.585  1.00  0.00     0.191 HD
ENDROOT
BRANCH   2   5
HETATM    5  N   UNL     1      -4.181   0.615 -31.537  1.00  0.00    -0.167 N 
HETATM    6  C   UNL     1      -5.287  -0.124 -31.219  1.00  0.00     0.345 C 
HETATM    7  O   UNL     1      -6.256   0.236 -30.572  1.00  0.00    -0.245 OA
HETATM    8  N   UNL     1      -5.158  -1.356 -31.822  1.00  0.00    -0.323 N 
HETATM    9  C   UNL     1      -3.920  -1.473 -32.578  1.00  0.00     0.117 C 
HETATM   10  H   UNL     1      -5.864  -2.072 -31.711  1.00  0.00     0.165 HD
HETATM   11  C   UNL     1      -4.185  -1.798 -34.051  1.00  0.00     0.041 C 
HETATM   12  C   UNL     1      -2.972  -2.482 -31.923  1.00  0.00     0.041 C 
HETATM   13  C   UNL     1      -3.364  -0.036 -32.430  1.00  0.00     0.275 C 
HETATM   14  C   UNL     1      -4.645  -3.243 -34.246  1.00  0.00     0.003 C 
HETATM   15  C   UNL     1      -3.681  -4.235 -33.604  1.00  0.00     0.000 C 
HETATM   16  C   UNL     1      -3.441  -3.922 -32.128  1.00  0.00     0.003 C 
HETATM   17  O   UNL     1      -2.393   0.413 -33.023  1.00  0.00    -0.268 OA
ENDBRANCH   2   5
BRANCH   1  18
HETATM   18  C   UNL     1      -3.956   4.222 -31.844  1.00  0.00     0.121 A 
HETATM   19  C   UNL     1      -2.683   4.756 -31.912  1.00  0.00     0.066 A 
HETATM   20  C   UNL     1      -2.836   6.149 -31.701  1.00  0.00     0.061 A 
HETATM   21  N   UNL     1      -4.116   6.454 -31.448  1.00  0.00    -0.178 NA
HETATM   22  N   UNL     1      -4.764   5.284 -31.545  1.00  0.00    -0.272 N 
HETATM   23  H   UNL     1      -5.771   5.266 -31.411  1.00  0.00     0.189 HD
BRANCH  20  24
HETATM   24  C   UNL     1      -1.813   7.259 -31.741  1.00  0.00     0.039 C 
HETATM   25  C   UNL     1      -1.809   8.110 -30.461  1.00  0.00     0.011 C 
HETATM   26  C   UNL     1      -0.998   7.496 -29.325  1.00  0.00     0.001 C 
HETATM   27  C   UNL     1       0.426   7.182 -29.766  1.00  0.00     0.000 C 
HETATM   28  C   UNL     1       0.445   6.256 -30.976  1.00  0.00     0.001 C 
HETATM   29  C   UNL     1      -0.399   6.792 -32.132  1.00  0.00     0.011 C 
ENDBRANCH  20  24
ENDBRANCH   1  18
TORSDOF 3
ENDMDL
MODEL 10
REMARK VINA RESULT:      -7.8      2.373      3.399
REMARK  3 active torsions:
REMARK  status: ('A' for Active; 'I' for Inactive)
REMARK    1  A    between atoms: C_2  and  C_3 
REMARK       I    between atoms: C_3  and  N_4 
REMARK    2  A    between atoms: N_4  and  N_5 
REMARK    3  A    between atoms: C_21  and  C_22 
ROOT
HETATM    1  C   UNL     1      -2.054   5.112 -31.791  1.00  0.00     0.288 C 
HETATM    2  N   UNL     1      -3.115   5.915 -32.158  1.00  0.00    -0.251 N 
HETATM    3  O   UNL     1      -1.894   3.972 -32.222  1.00  0.00    -0.264 OA
HETATM    4  H   UNL     1      -3.335   6.734 -31.605  1.00  0.00     0.191 HD
ENDROOT
BRANCH   2   5
HETATM    5  N   UNL     1      -4.214   5.298 -32.738  1.00  0.00    -0.167 N 
HETATM    6  C   UNL     1      -4.388   5.240 -34.093  1.00  0.00     0.345 C 
HETATM    7  O   UNL     1      -3.667   5.719 -34.953  1.00  0.00    -0.245 OA
HETATM    8  N   UNL     1      -5.505   4.473 -34.342  1.00  0.00    -0.323 N 
HETATM    9  C   UNL     1      -6.125   3.989 -33.118  1.00  0.00     0.117 C 
HETATM   10  H   UNL     1      -5.828   4.306 -35.287  1.00  0.00     0.165 HD
HETATM   11  C   UNL     1      -6.205   2.460 -33.091  1.00  0.00     0.041 C 
HETATM   12  C   UNL     1      -7.492   4.645 -32.901  1.00  0.00     0.041 C 
HETATM   13  C   UNL     1      -5.109   4.499 -32.068  1.00  0.00     0.275 C 
HETATM   14  C   UNL     1      -7.269   1.923 -34.049  1.00  0.00     0.003 C 
HETATM   15  C   UNL     1      -8.628   2.574 -33.807  1.00  0.00     0.000 C 
HETATM   16  C   UNL     1      -8.547   4.098 -33.862  1.00  0.00     0.003 C 
HETATM   17  O   UNL     1      -5.115   4.214 -30.879  1.00  0.00    -0.268 OA
ENDBRANCH   2   5
BRANCH   1  18
HETATM   18  C   UNL     1      -1.158   5.695 -30.825  1.00  0.00     0.121 A 
HETATM   19  C   UNL     1      -0.842   6.996 -30.478  1.00  0.00     0.066 A 
HETATM   20  C   UNL     1       0.040   6.897 -29.373  1.00  0.00     0.061 A 
HETATM   21  N   UNL     1       0.311   5.616 -29.093  1.00  0.00    -0.178 NA
HETATM   22  N   UNL     1      -0.421   4.919 -29.974  1.00  0.00    -0.272 N 
HETATM   23  H   UNL     1      -0.395   3.904 -29.943  1.00  0.00     0.189 HD
BRANCH  20  24
HETATM   24  C   UNL     1       0.654   7.979 -28.517  1.00  0.00     0.039 C 
HETATM   25  C   UNL     1      -0.333   9.111 -28.193  1.00  0.00     0.011 C 
HETATM   26  C   UNL     1      -1.254   8.799 -27.018  1.00  0.00     0.001 C 
HETATM   27  C   UNL     1      -0.457   8.408 -25.778  1.00  0.00     0.000 C 
HETATM   28  C   UNL     1       0.456   7.220 -26.052  1.00  0.00     0.001 C 
HETATM   29  C   UNL     1       1.367   7.452 -27.258  1.00  0.00     0.011 C 
ENDBRANCH  20  24
ENDBRANCH   1  18
TORSDOF 3
ENDMDL
