MODEL 1
REMARK VINA RESULT:      -8.8      0.000      0.000
REMARK  9 active torsions:
REMARK  status: ('A' for Active; 'I' for Inactive)
REMARK    1  A    between atoms: C_2  and  C_3 
REMARK    2  A    between atoms: C_6  and  C_7 
REMARK    3  A    between atoms: C_7  and  C_8 
REMARK    4  A    between atoms: C_8  and  N_9 
REMARK    5  A    between atoms: N_9  and  C_11 
REMARK    6  A    between atoms: N_9  and  C_25 
REMARK    7  A    between atoms: C_11  and  C_12 
REMARK       I    between atoms: C_12  and  N_13 
REMARK    8  A    between atoms: N_13  and  C_14 
REMARK    9  A    between atoms: C_17  and  N_18 
REMARK       I    between atoms: N_18  and  C_19 
ROOT
HETATM    1  N   UNL     1      -3.795   3.967 -31.116  1.00  0.00    -0.056 N 
HETATM    2  H   UNL     1      -3.259   3.522 -30.353  1.00  0.00     0.280 HD
ENDROOT
BRANCH   1   3
HETATM    3  C   UNL     1      -3.930   2.871 -32.206  1.00  0.00     0.319 C 
BRANCH   3   4
HETATM    4  C   UNL     1      -3.406   1.539 -31.691  1.00  0.00     0.187 C 
HETATM    5  O   UNL     1      -2.515   1.588 -30.833  1.00  0.00    -0.290 OA
BRANCH   4   6
HETATM    6  C   UNL     1      -3.832   0.278 -32.287  1.00  0.00     0.039 A 
HETATM    7  C   UNL     1      -4.957  -0.062 -33.121  1.00  0.00     0.006 A 
HETATM    8  C   UNL     1      -4.797  -1.399 -33.506  1.00  0.00     0.049 A 
HETATM    9  C   UNL     1      -6.096   0.621 -33.605  1.00  0.00     0.015 A 
HETATM   10  C   UNL     1      -5.670  -2.073 -34.384  1.00  0.00    -0.031 A 
HETATM   11  N   UNL     1      -3.676  -1.876 -32.866  1.00  0.00    -0.364 N 
HETATM   12  C   UNL     1      -6.773  -1.342 -34.853  1.00  0.00     0.009 A 
HETATM   13  C   UNL     1      -6.988  -0.025 -34.469  1.00  0.00     0.002 A 
HETATM   14  C   UNL     1      -3.092  -0.883 -32.137  1.00  0.00     0.104 A 
HETATM   15  H   UNL     1      -3.338  -2.828 -32.937  1.00  0.00     0.165 HD
BRANCH  10  16
HETATM   16  C   UNL     1      -5.490  -3.511 -34.806  1.00  0.00     0.036 C 
HETATM   17  C   UNL     1      -6.820  -4.175 -35.126  1.00  0.00     0.010 C 
ENDBRANCH  10  16
ENDBRANCH   4   6
ENDBRANCH   3   4
ENDBRANCH   1   3
BRANCH   1  18
HETATM   18  C   UNL     1      -2.913   5.141 -31.604  1.00  0.00     0.338 C 
BRANCH  18  19
HETATM   19  C   UNL     1      -1.645   5.352 -30.763  1.00  0.00     0.248 C 
HETATM   20  N   UNL     1      -1.699   6.459 -29.938  1.00  0.00    -0.326 N 
HETATM   21  H   UNL     1      -2.403   7.168 -30.113  1.00  0.00     0.169 HD
HETATM   22  O   UNL     1      -0.731   4.533 -30.825  1.00  0.00    -0.271 OA
BRANCH  20  23
HETATM   23  C   UNL     1      -0.801   6.768 -28.890  1.00  0.00     0.034 A 
HETATM   24  C   UNL     1       0.240   7.656 -29.174  1.00  0.00     0.032 A 
HETATM   25  C   UNL     1       1.165   8.019 -28.185  1.00  0.00     0.032 A 
HETATM   26  C   UNL     1       1.056   7.512 -26.891  1.00  0.00     0.034 A 
HETATM   27  C   UNL     1       0.003   6.639 -26.604  1.00  0.00     0.032 A 
HETATM   28  C   UNL     1      -0.917   6.268 -27.593  1.00  0.00     0.032 A 
BRANCH  26  29
HETATM   29  N   UNL     1       1.950   7.815 -25.845  1.00  0.00    -0.328 N 
HETATM   30  C   UNL     1       1.905   8.900 -24.988  1.00  0.00     0.218 C 
HETATM   31  C   UNL     1       3.051   8.918 -24.007  1.00  0.00     0.117 C 
HETATM   32  O   UNL     1       1.042   9.771 -24.957  1.00  0.00    -0.274 OA
HETATM   33  H   UNL     1       2.714   7.165 -25.710  1.00  0.00     0.169 HD
ENDBRANCH  26  29
ENDBRANCH  20  23
ENDBRANCH  18  19
ENDBRANCH   1  18
BRANCH   1  34
HETATM   34  C   UNL     1      -5.129   4.429 -30.580  1.00  0.00     0.231 C 
HETATM   35  C   UNL     1      -6.105   3.267 -30.541  1.00  0.00     0.034 C 
ENDBRANCH   1  34
TORSDOF 9
ENDMDL
MODEL 2
REMARK VINA RESULT:      -8.7      5.539      7.818
REMARK  9 active torsions:
REMARK  status: ('A' for Active; 'I' for Inactive)
REMARK    1  A    between atoms: C_2  and  C_3 
REMARK    2  A    between atoms: C_6  and  C_7 
REMARK    3  A    between atoms: C_7  and  C_8 
REMARK    4  A    between atoms: C_8  and  N_9 
REMARK    5  A    between atoms: N_9  and  C_11 
REMARK    6  A    between atoms: N_9  and  C_25 
REMARK    7  A    between atoms: C_11  and  C_12 
REMARK       I    between atoms: C_12  and  N_13 
REMARK    8  A    between atoms: N_13  and  C_14 
REMARK    9  A    between atoms: C_17  and  N_18 
REMARK       I    between atoms: N_18  and  C_19 
ROOT
HETATM    1  N   UNL     1     -11.899   2.584 -32.952  1.00  0.00    -0.056 N 
HETATM    2  H   UNL     1     -12.214   1.867 -32.278  1.00  0.00     0.280 HD
ENDROOT
BRANCH   1   3
HETATM    3  C   UNL     1     -10.824   1.877 -33.819  1.00  0.00     0.319 C 
BRANCH   3   4
HETATM    4  C   UNL     1     -10.430   0.545 -33.200  1.00  0.00     0.187 C 
HETATM    5  O   UNL     1     -11.323  -0.305 -33.100  1.00  0.00    -0.290 OA
BRANCH   4   6
HETATM    6  C   UNL     1      -9.106   0.342 -32.624  1.00  0.00     0.039 A 
HETATM    7  C   UNL     1      -7.884  -0.183 -33.180  1.00  0.00     0.006 A 
HETATM    8  C   UNL     1      -6.887  -0.027 -32.208  1.00  0.00     0.049 A 
HETATM    9  C   UNL     1      -7.506  -0.769 -34.410  1.00  0.00     0.015 A 
HETATM   10  C   UNL     1      -5.534  -0.367 -32.411  1.00  0.00    -0.031 A 
HETATM   11  N   UNL     1      -7.491   0.487 -31.084  1.00  0.00    -0.364 N 
HETATM   12  C   UNL     1      -5.208  -0.924 -33.658  1.00  0.00     0.009 A 
HETATM   13  C   UNL     1      -6.173  -1.128 -34.636  1.00  0.00     0.002 A 
HETATM   14  C   UNL     1      -8.815   0.713 -31.323  1.00  0.00     0.104 A 
HETATM   15  H   UNL     1      -7.012   0.674 -30.213  1.00  0.00     0.165 HD
BRANCH  10  16
HETATM   16  C   UNL     1      -4.459  -0.187 -31.367  1.00  0.00     0.036 C 
HETATM   17  C   UNL     1      -3.619   1.052 -31.632  1.00  0.00     0.010 C 
ENDBRANCH  10  16
ENDBRANCH   4   6
ENDBRANCH   3   4
ENDBRANCH   1   3
BRANCH   1  18
HETATM   18  C   UNL     1     -11.278   3.709 -32.090  1.00  0.00     0.338 C 
BRANCH  18  19
HETATM   19  C   UNL     1     -10.090   4.416 -32.760  1.00  0.00     0.248 C 
HETATM   20  N   UNL     1      -8.864   4.085 -32.218  1.00  0.00    -0.326 N 
HETATM   21  H   UNL     1      -8.833   3.638 -31.308  1.00  0.00     0.169 HD
HETATM   22  O   UNL     1     -10.286   5.148 -33.728  1.00  0.00    -0.271 OA
BRANCH  20  23
HETATM   23  C   UNL     1      -7.596   4.381 -32.771  1.00  0.00     0.034 A 
HETATM   24  C   UNL     1      -6.991   3.398 -33.558  1.00  0.00     0.032 A 
HETATM   25  C   UNL     1      -5.739   3.620 -34.149  1.00  0.00     0.032 A 
HETATM   26  C   UNL     1      -5.077   4.834 -33.974  1.00  0.00     0.034 A 
HETATM   27  C   UNL     1      -5.692   5.823 -33.202  1.00  0.00     0.032 A 
HETATM   28  C   UNL     1      -6.940   5.600 -32.604  1.00  0.00     0.032 A 
BRANCH  26  29
HETATM   29  N   UNL     1      -3.813   5.132 -34.520  1.00  0.00    -0.328 N 
HETATM   30  C   UNL     1      -2.574   4.797 -34.005  1.00  0.00     0.218 C 
HETATM   31  C   UNL     1      -1.432   5.314 -34.845  1.00  0.00     0.117 C 
HETATM   32  O   UNL     1      -2.357   4.132 -32.997  1.00  0.00    -0.274 OA
HETATM   33  H   UNL     1      -3.815   5.656 -35.387  1.00  0.00     0.169 HD
ENDBRANCH  26  29
ENDBRANCH  20  23
ENDBRANCH  18  19
ENDBRANCH   1  18
BRANCH   1  34
HETATM   34  C   UNL     1     -13.083   3.060 -33.759  1.00  0.00     0.231 C 
HETATM   35  C   UNL     1     -12.857   2.774 -35.233  1.00  0.00     0.034 C 
ENDBRANCH   1  34
TORSDOF 9
ENDMDL
MODEL 3
REMARK VINA RESULT:      -8.7      4.845      9.440
REMARK  9 active torsions:
REMARK  status: ('A' for Active; 'I' for Inactive)
REMARK    1  A    between atoms: C_2  and  C_3 
REMARK    2  A    between atoms: C_6  and  C_7 
REMARK    3  A    between atoms: C_7  and  C_8 
REMARK    4  A    between atoms: C_8  and  N_9 
REMARK    5  A    between atoms: N_9  and  C_11 
REMARK    6  A    between atoms: N_9  and  C_25 
REMARK    7  A    between atoms: C_11  and  C_12 
REMARK       I    between atoms: C_12  and  N_13 
REMARK    8  A    between atoms: N_13  and  C_14 
REMARK    9  A    between atoms: C_17  and  N_18 
REMARK       I    between atoms: N_18  and  C_19 
ROOT
HETATM    1  N   UNL     1      -3.900   3.111 -32.598  1.00  0.00    -0.056 N 
HETATM    2  H   UNL     1      -3.995   2.317 -33.251  1.00  0.00     0.280 HD
ENDROOT
BRANCH   1   3
HETATM    3  C   UNL     1      -3.773   2.464 -31.193  1.00  0.00     0.319 C 
BRANCH   3   4
HETATM    4  C   UNL     1      -4.718   1.280 -31.063  1.00  0.00     0.187 C 
HETATM    5  O   UNL     1      -5.682   1.423 -30.300  1.00  0.00    -0.290 OA
BRANCH   4   6
HETATM    6  C   UNL     1      -4.419  -0.000 -31.693  1.00  0.00     0.039 A 
HETATM    7  C   UNL     1      -5.116  -0.768 -32.694  1.00  0.00     0.006 A 
HETATM    8  C   UNL     1      -4.302  -1.861 -33.017  1.00  0.00     0.049 A 
HETATM    9  C   UNL     1      -6.351  -0.653 -33.374  1.00  0.00     0.015 A 
HETATM   10  C   UNL     1      -4.620  -2.808 -34.012  1.00  0.00    -0.031 A 
HETATM   11  N   UNL     1      -3.204  -1.810 -32.191  1.00  0.00    -0.364 N 
HETATM   12  C   UNL     1      -5.847  -2.634 -34.673  1.00  0.00     0.009 A 
HETATM   13  C   UNL     1      -6.699  -1.584 -34.358  1.00  0.00     0.002 A 
HETATM   14  C   UNL     1      -3.262  -0.702 -31.398  1.00  0.00     0.104 A 
HETATM   15  H   UNL     1      -2.460  -2.497 -32.185  1.00  0.00     0.165 HD
BRANCH  10  16
HETATM   16  C   UNL     1      -3.736  -3.979 -34.368  1.00  0.00     0.036 C 
HETATM   17  C   UNL     1      -3.921  -5.137 -33.401  1.00  0.00     0.010 C 
ENDBRANCH  10  16
ENDBRANCH   4   6
ENDBRANCH   3   4
ENDBRANCH   1   3
BRANCH   1  18
HETATM   18  C   UNL     1      -5.218   3.909 -32.732  1.00  0.00     0.338 C 
BRANCH  18  19
HETATM   19  C   UNL     1      -6.353   3.120 -33.403  1.00  0.00     0.248 C 
HETATM   20  N   UNL     1      -7.475   2.970 -32.610  1.00  0.00    -0.326 N 
HETATM   21  H   UNL     1      -7.398   3.140 -31.613  1.00  0.00     0.169 HD
HETATM   22  O   UNL     1      -6.226   2.742 -34.565  1.00  0.00    -0.271 OA
BRANCH  20  23
HETATM   23  C   UNL     1      -8.744   2.512 -33.033  1.00  0.00     0.034 A 
HETATM   24  C   UNL     1      -9.152   1.250 -32.593  1.00  0.00     0.032 A 
HETATM   25  C   UNL     1     -10.402   0.730 -32.961  1.00  0.00     0.032 A 
HETATM   26  C   UNL     1     -11.270   1.469 -33.762  1.00  0.00     0.034 A 
HETATM   27  C   UNL     1     -10.868   2.740 -34.185  1.00  0.00     0.032 A 
HETATM   28  C   UNL     1      -9.617   3.258 -33.826  1.00  0.00     0.032 A 
BRANCH  26  29
HETATM   29  N   UNL     1     -12.535   1.015 -34.187  1.00  0.00    -0.328 N 
HETATM   30  C   UNL     1     -13.765   1.310 -33.628  1.00  0.00     0.218 C 
HETATM   31  C   UNL     1     -14.906   0.617 -34.330  1.00  0.00     0.117 C 
HETATM   32  O   UNL     1     -13.977   2.065 -32.686  1.00  0.00    -0.274 OA
HETATM   33  H   UNL     1     -12.539   0.400 -34.991  1.00  0.00     0.169 HD
ENDBRANCH  26  29
ENDBRANCH  20  23
ENDBRANCH  18  19
ENDBRANCH   1  18
BRANCH   1  34
HETATM   34  C   UNL     1      -2.688   3.927 -32.980  1.00  0.00     0.231 C 
HETATM   35  C   UNL     1      -2.596   5.163 -32.103  1.00  0.00     0.034 C 
ENDBRANCH   1  34
TORSDOF 9
ENDMDL
MODEL 4
REMARK VINA RESULT:      -8.7      3.674      6.283
REMARK  9 active torsions:
REMARK  status: ('A' for Active; 'I' for Inactive)
REMARK    1  A    between atoms: C_2  and  C_3 
REMARK    2  A    between atoms: C_6  and  C_7 
REMARK    3  A    between atoms: C_7  and  C_8 
REMARK    4  A    between atoms: C_8  and  N_9 
REMARK    5  A    between atoms: N_9  and  C_11 
REMARK    6  A    between atoms: N_9  and  C_25 
REMARK    7  A    between atoms: C_11  and  C_12 
REMARK       I    between atoms: C_12  and  N_13 
REMARK    8  A    between atoms: N_13  and  C_14 
REMARK    9  A    between atoms: C_17  and  N_18 
REMARK       I    between atoms: N_18  and  C_19 
ROOT
HETATM    1  N   UNL     1     -10.116   2.742 -33.488  1.00  0.00    -0.056 N 
HETATM    2  H   UNL     1      -9.863   2.562 -32.503  1.00  0.00     0.280 HD
ENDROOT
BRANCH   1   3
HETATM    3  C   UNL     1      -9.686   1.463 -34.255  1.00  0.00     0.319 C 
BRANCH   3   4
HETATM    4  C   UNL     1      -9.457   0.312 -33.287  1.00  0.00     0.187 C 
HETATM    5  O   UNL     1     -10.467  -0.201 -32.788  1.00  0.00    -0.290 OA
BRANCH   4   6
HETATM    6  C   UNL     1      -8.114  -0.064 -32.864  1.00  0.00     0.039 A 
HETATM    7  C   UNL     1      -7.116  -0.911 -33.466  1.00  0.00     0.006 A 
HETATM    8  C   UNL     1      -5.959  -0.809 -32.683  1.00  0.00     0.049 A 
HETATM    9  C   UNL     1      -7.059  -1.753 -34.601  1.00  0.00     0.015 A 
HETATM   10  C   UNL     1      -4.742  -1.448 -32.995  1.00  0.00    -0.031 A 
HETATM   11  N   UNL     1      -6.264  -0.008 -31.608  1.00  0.00    -0.364 N 
HETATM   12  C   UNL     1      -4.734  -2.254 -34.145  1.00  0.00     0.009 A 
HETATM   13  C   UNL     1      -5.869  -2.410 -34.930  1.00  0.00     0.002 A 
HETATM   14  C   UNL     1      -7.547   0.444 -31.707  1.00  0.00     0.104 A 
HETATM   15  H   UNL     1      -5.621   0.214 -30.859  1.00  0.00     0.165 HD
BRANCH  10  16
HETATM   16  C   UNL     1      -3.492  -1.328 -32.156  1.00  0.00     0.036 C 
HETATM   17  C   UNL     1      -2.923  -2.691 -31.796  1.00  0.00     0.010 C 
ENDBRANCH  10  16
ENDBRANCH   4   6
ENDBRANCH   3   4
ENDBRANCH   1   3
BRANCH   1  18
HETATM   18  C   UNL     1      -9.266   3.964 -33.911  1.00  0.00     0.338 C 
BRANCH  18  19
HETATM   19  C   UNL     1      -7.950   4.101 -33.130  1.00  0.00     0.248 C 
HETATM   20  N   UNL     1      -6.826   3.788 -33.869  1.00  0.00    -0.326 N 
HETATM   21  H   UNL     1      -6.935   3.268 -34.733  1.00  0.00     0.169 HD
HETATM   22  O   UNL     1      -7.970   4.519 -31.975  1.00  0.00    -0.271 OA
BRANCH  20  23
HETATM   23  C   UNL     1      -5.485   4.048 -33.505  1.00  0.00     0.034 A 
HETATM   24  C   UNL     1      -4.825   3.081 -32.743  1.00  0.00     0.032 A 
HETATM   25  C   UNL     1      -3.490   3.260 -32.352  1.00  0.00     0.032 A 
HETATM   26  C   UNL     1      -2.789   4.405 -32.727  1.00  0.00     0.034 A 
HETATM   27  C   UNL     1      -3.445   5.364 -33.505  1.00  0.00     0.032 A 
HETATM   28  C   UNL     1      -4.781   5.190 -33.891  1.00  0.00     0.032 A 
BRANCH  26  29
HETATM   29  N   UNL     1      -1.453   4.670 -32.364  1.00  0.00    -0.328 N 
HETATM   30  C   UNL     1      -1.006   5.418 -31.290  1.00  0.00     0.218 C 
HETATM   31  C   UNL     1       0.498   5.515 -31.232  1.00  0.00     0.117 C 
HETATM   32  O   UNL     1      -1.700   5.945 -30.427  1.00  0.00    -0.274 OA
HETATM   33  H   UNL     1      -0.742   4.269 -32.963  1.00  0.00     0.169 HD
ENDBRANCH  26  29
ENDBRANCH  20  23
ENDBRANCH  18  19
ENDBRANCH   1  18
BRANCH   1  34
HETATM   34  C   UNL     1     -11.599   3.009 -33.579  1.00  0.00     0.231 C 
HETATM   35  C   UNL     1     -12.042   2.998 -35.031  1.00  0.00     0.034 C 
ENDBRANCH   1  34
TORSDOF 9
ENDMDL
MODEL 5
REMARK VINA RESULT:      -8.5      2.947     10.858
REMARK  9 active torsions:
REMARK  status: ('A' for Active; 'I' for Inactive)
REMARK    1  A    between atoms: C_2  and  C_3 
REMARK    2  A    between atoms: C_6  and  C_7 
REMARK    3  A    between atoms: C_7  and  C_8 
REMARK    4  A    between atoms: C_8  and  N_9 
REMARK    5  A    between atoms: N_9  and  C_11 
REMARK    6  A    between atoms: N_9  and  C_25 
REMARK    7  A    between atoms: C_11  and  C_12 
REMARK       I    between atoms: C_12  and  N_13 
REMARK    8  A    between atoms: N_13  and  C_14 
REMARK    9  A    between atoms: C_17  and  N_18 
REMARK       I    between atoms: N_18  and  C_19 
ROOT
HETATM    1  N   UNL     1      -4.341   6.063 -32.469  1.00  0.00    -0.056 N 
HETATM    2  H   UNL     1      -4.490   7.051 -32.205  1.00  0.00     0.280 HD
ENDROOT
BRANCH   1   3
HETATM    3  C   UNL     1      -3.050   6.067 -33.331  1.00  0.00     0.319 C 
BRANCH   3   4
HETATM    4  C   UNL     1      -2.174   7.258 -32.974  1.00  0.00     0.187 C 
HETATM    5  O   UNL     1      -1.804   7.975 -33.913  1.00  0.00    -0.290 OA
BRANCH   4   6
HETATM    6  C   UNL     1      -1.680   7.453 -31.616  1.00  0.00     0.039 A 
HETATM    7  C   UNL     1      -0.844   6.641 -30.769  1.00  0.00     0.006 A 
HETATM    8  C   UNL     1      -0.585   7.383 -29.609  1.00  0.00     0.049 A 
HETATM    9  C   UNL     1      -0.266   5.354 -30.858  1.00  0.00     0.015 A 
HETATM   10  C   UNL     1       0.256   6.943 -28.568  1.00  0.00    -0.031 A 
HETATM   11  N   UNL     1      -1.300   8.555 -29.708  1.00  0.00    -0.364 N 
HETATM   12  C   UNL     1       0.823   5.667 -28.717  1.00  0.00     0.009 A 
HETATM   13  C   UNL     1       0.564   4.884 -29.835  1.00  0.00     0.002 A 
HETATM   14  C   UNL     1      -1.955   8.608 -30.902  1.00  0.00     0.104 A 
HETATM   15  H   UNL     1      -1.324   9.271 -28.993  1.00  0.00     0.165 HD
BRANCH  10  16
HETATM   16  C   UNL     1       0.543   7.749 -27.324  1.00  0.00     0.036 C 
HETATM   17  C   UNL     1       1.684   8.731 -27.541  1.00  0.00     0.010 C 
ENDBRANCH  10  16
ENDBRANCH   4   6
ENDBRANCH   3   4
ENDBRANCH   1   3
BRANCH   1  18
HETATM   18  C   UNL     1      -5.579   5.675 -33.311  1.00  0.00     0.338 C 
BRANCH  18  19
HETATM   19  C   UNL     1      -5.475   4.286 -33.959  1.00  0.00     0.248 C 
HETATM   20  N   UNL     1      -5.866   3.251 -33.132  1.00  0.00    -0.326 N 
HETATM   21  H   UNL     1      -5.940   3.421 -32.134  1.00  0.00     0.169 HD
HETATM   22  O   UNL     1      -5.126   4.188 -35.134  1.00  0.00    -0.271 OA
BRANCH  20  23
HETATM   23  C   UNL     1      -6.107   1.913 -33.520  1.00  0.00     0.034 A 
HETATM   24  C   UNL     1      -5.509   0.905 -32.760  1.00  0.00     0.032 A 
HETATM   25  C   UNL     1      -5.708  -0.447 -33.075  1.00  0.00     0.032 A 
HETATM   26  C   UNL     1      -6.520  -0.814 -34.147  1.00  0.00     0.034 A 
HETATM   27  C   UNL     1      -7.133   0.196 -34.894  1.00  0.00     0.032 A 
HETATM   28  C   UNL     1      -6.929   1.548 -34.586  1.00  0.00     0.032 A 
BRANCH  26  29
HETATM   29  N   UNL     1      -6.760  -2.146 -34.539  1.00  0.00    -0.328 N 
HETATM   30  C   UNL     1      -5.826  -3.094 -34.913  1.00  0.00     0.218 C 
HETATM   31  C   UNL     1      -6.452  -4.410 -35.303  1.00  0.00     0.117 C 
HETATM   32  O   UNL     1      -4.607  -2.955 -34.922  1.00  0.00    -0.274 OA
HETATM   33  H   UNL     1      -7.730  -2.438 -34.551  1.00  0.00     0.169 HD
ENDBRANCH  26  29
ENDBRANCH  20  23
ENDBRANCH  18  19
ENDBRANCH   1  18
BRANCH   1  34
HETATM   34  C   UNL     1      -4.207   5.230 -31.217  1.00  0.00     0.231 C 
HETATM   35  C   UNL     1      -4.608   6.048 -30.002  1.00  0.00     0.034 C 
ENDBRANCH   1  34
TORSDOF 9
ENDMDL
MODEL 6
REMARK VINA RESULT:      -8.5      5.305      9.248
REMARK  9 active torsions:
REMARK  status: ('A' for Active; 'I' for Inactive)
REMARK    1  A    between atoms: C_2  and  C_3 
REMARK    2  A    between atoms: C_6  and  C_7 
REMARK    3  A    between atoms: C_7  and  C_8 
REMARK    4  A    between atoms: C_8  and  N_9 
REMARK    5  A    between atoms: N_9  and  C_11 
REMARK    6  A    between atoms: N_9  and  C_25 
REMARK    7  A    between atoms: C_11  and  C_12 
REMARK       I    between atoms: C_12  and  N_13 
REMARK    8  A    between atoms: N_13  and  C_14 
REMARK    9  A    between atoms: C_17  and  N_18 
REMARK       I    between atoms: N_18  and  C_19 
ROOT
HETATM    1  N   UNL     1      -4.319   3.512 -32.431  1.00  0.00    -0.056 N 
HETATM    2  H   UNL     1      -5.043   3.044 -33.001  1.00  0.00     0.280 HD
ENDROOT
BRANCH   1   3
HETATM    3  C   UNL     1      -3.571   2.362 -31.707  1.00  0.00     0.319 C 
BRANCH   3   4
HETATM    4  C   UNL     1      -4.505   1.188 -31.462  1.00  0.00     0.187 C 
HETATM    5  O   UNL     1      -4.960   1.072 -30.317  1.00  0.00    -0.290 OA
BRANCH   4   6
HETATM    6  C   UNL     1      -4.731   0.175 -32.486  1.00  0.00     0.039 A 
HETATM    7  C   UNL     1      -4.259  -1.180 -32.622  1.00  0.00     0.006 A 
HETATM    8  C   UNL     1      -4.899  -1.731 -33.739  1.00  0.00     0.049 A 
HETATM    9  C   UNL     1      -3.361  -2.011 -31.912  1.00  0.00     0.015 A 
HETATM   10  C   UNL     1      -4.740  -3.069 -34.154  1.00  0.00    -0.031 A 
HETATM   11  N   UNL     1      -5.657  -0.733 -34.307  1.00  0.00    -0.364 N 
HETATM   12  C   UNL     1      -3.855  -3.857 -33.401  1.00  0.00     0.009 A 
HETATM   13  C   UNL     1      -3.173  -3.340 -32.307  1.00  0.00     0.002 A 
HETATM   14  C   UNL     1      -5.566   0.407 -33.566  1.00  0.00     0.104 A 
HETATM   15  H   UNL     1      -6.206  -0.842 -35.151  1.00  0.00     0.165 HD
BRANCH  10  16
HETATM   16  C   UNL     1      -5.440  -3.664 -35.352  1.00  0.00     0.036 C 
HETATM   17  C   UNL     1      -6.695  -4.424 -34.951  1.00  0.00     0.010 C 
ENDBRANCH  10  16
ENDBRANCH   4   6
ENDBRANCH   3   4
ENDBRANCH   1   3
BRANCH   1  18
HETATM   18  C   UNL     1      -5.099   4.396 -31.429  1.00  0.00     0.338 C 
BRANCH  18  19
HETATM   19  C   UNL     1      -6.600   4.076 -31.361  1.00  0.00     0.248 C 
HETATM   20  N   UNL     1      -7.130   3.622 -32.553  1.00  0.00    -0.326 N 
HETATM   21  H   UNL     1      -6.607   3.766 -33.410  1.00  0.00     0.169 HD
HETATM   22  O   UNL     1      -7.195   4.181 -30.291  1.00  0.00    -0.271 OA
BRANCH  20  23
HETATM   23  C   UNL     1      -8.401   3.029 -32.732  1.00  0.00     0.034 A 
HETATM   24  C   UNL     1      -9.441   3.853 -33.171  1.00  0.00     0.032 A 
HETATM   25  C   UNL     1     -10.727   3.338 -33.382  1.00  0.00     0.032 A 
HETATM   26  C   UNL     1     -10.993   1.986 -33.172  1.00  0.00     0.034 A 
HETATM   27  C   UNL     1      -9.948   1.158 -32.752  1.00  0.00     0.032 A 
HETATM   28  C   UNL     1      -8.663   1.673 -32.532  1.00  0.00     0.032 A 
BRANCH  26  29
HETATM   29  N   UNL     1     -12.259   1.391 -33.347  1.00  0.00    -0.328 N 
HETATM   30  C   UNL     1     -12.961   1.241 -34.530  1.00  0.00     0.218 C 
HETATM   31  C   UNL     1     -14.305   0.585 -34.332  1.00  0.00     0.117 C 
HETATM   32  O   UNL     1     -12.579   1.557 -35.651  1.00  0.00    -0.274 OA
HETATM   33  H   UNL     1     -12.705   1.039 -32.510  1.00  0.00     0.169 HD
ENDBRANCH  26  29
ENDBRANCH  20  23
ENDBRANCH  18  19
ENDBRANCH   1  18
BRANCH   1  34
HETATM   34  C   UNL     1      -3.420   4.319 -33.337  1.00  0.00     0.231 C 
HETATM   35  C   UNL     1      -4.252   5.073 -34.359  1.00  0.00     0.034 C 
ENDBRANCH   1  34
TORSDOF 9
ENDMDL
MODEL 7
REMARK VINA RESULT:      -8.4      5.494      9.627
REMARK  9 active torsions:
REMARK  status: ('A' for Active; 'I' for Inactive)
REMARK    1  A    between atoms: C_2  and  C_3 
REMARK    2  A    between atoms: C_6  and  C_7 
REMARK    3  A    between atoms: C_7  and  C_8 
REMARK    4  A    between atoms: C_8  and  N_9 
REMARK    5  A    between atoms: N_9  and  C_11 
REMARK    6  A    between atoms: N_9  and  C_25 
REMARK    7  A    between atoms: C_11  and  C_12 
REMARK       I    between atoms: C_12  and  N_13 
REMARK    8  A    between atoms: N_13  and  C_14 
REMARK    9  A    between atoms: C_17  and  N_18 
REMARK       I    between atoms: N_18  and  C_19 
ROOT
HETATM    1  N   UNL     1      -5.411   3.753 -31.854  1.00  0.00    -0.056 N 
HETATM    2  H   UNL     1      -4.815   4.239 -31.163  1.00  0.00     0.280 HD
ENDROOT
BRANCH   1   3
HETATM    3  C   UNL     1      -4.419   3.025 -32.800  1.00  0.00     0.319 C 
BRANCH   3   4
HETATM    4  C   UNL     1      -3.790   1.832 -32.098  1.00  0.00     0.187 C 
HETATM    5  O   UNL     1      -2.930   2.081 -31.243  1.00  0.00    -0.290 OA
BRANCH   4   6
HETATM    6  C   UNL     1      -4.083   0.467 -32.519  1.00  0.00     0.039 A 
HETATM    7  C   UNL     1      -5.112  -0.080 -33.368  1.00  0.00     0.006 A 
HETATM    8  C   UNL     1      -4.834  -1.443 -33.528  1.00  0.00     0.049 A 
HETATM    9  C   UNL     1      -6.250   0.434 -34.031  1.00  0.00     0.015 A 
HETATM   10  C   UNL     1      -5.588  -2.306 -34.350  1.00  0.00    -0.031 A 
HETATM   11  N   UNL     1      -3.741  -1.732 -32.745  1.00  0.00    -0.364 N 
HETATM   12  C   UNL     1      -6.694  -1.740 -35.004  1.00  0.00     0.009 A 
HETATM   13  C   UNL     1      -7.025  -0.400 -34.844  1.00  0.00     0.002 A 
HETATM   14  C   UNL     1      -3.284  -0.598 -32.140  1.00  0.00     0.104 A 
HETATM   15  H   UNL     1      -3.338  -2.654 -32.643  1.00  0.00     0.165 HD
BRANCH  10  16
HETATM   16  C   UNL     1      -5.281  -3.773 -34.530  1.00  0.00     0.036 C 
HETATM   17  C   UNL     1      -6.396  -4.494 -35.270  1.00  0.00     0.010 C 
ENDBRANCH  10  16
ENDBRANCH   4   6
ENDBRANCH   3   4
ENDBRANCH   1   3
BRANCH   1  18
HETATM   18  C   UNL     1      -6.175   4.875 -32.595  1.00  0.00     0.338 C 
BRANCH  18  19
HETATM   19  C   UNL     1      -7.682   4.608 -32.735  1.00  0.00     0.248 C 
HETATM   20  N   UNL     1      -8.005   3.757 -33.774  1.00  0.00    -0.326 N 
HETATM   21  H   UNL     1      -7.316   3.581 -34.498  1.00  0.00     0.169 HD
HETATM   22  O   UNL     1      -8.463   5.092 -31.920  1.00  0.00    -0.271 OA
BRANCH  20  23
HETATM   23  C   UNL     1      -9.259   3.144 -33.997  1.00  0.00     0.034 A 
HETATM   24  C   UNL     1     -10.216   3.874 -34.708  1.00  0.00     0.032 A 
HETATM   25  C   UNL     1     -11.480   3.331 -34.978  1.00  0.00     0.032 A 
HETATM   26  C   UNL     1     -11.805   2.044 -34.553  1.00  0.00     0.034 A 
HETATM   27  C   UNL     1     -10.841   1.308 -33.859  1.00  0.00     0.032 A 
HETATM   28  C   UNL     1      -9.579   1.851 -33.581  1.00  0.00     0.032 A 
BRANCH  26  29
HETATM   29  N   UNL     1     -13.055   1.430 -34.770  1.00  0.00    -0.328 N 
HETATM   30  C   UNL     1     -14.135   1.394 -33.907  1.00  0.00     0.218 C 
HETATM   31  C   UNL     1     -15.301   0.615 -34.463  1.00  0.00     0.117 C 
HETATM   32  O   UNL     1     -14.212   1.939 -32.811  1.00  0.00    -0.274 OA
HETATM   33  H   UNL     1     -13.171   0.959 -35.659  1.00  0.00     0.169 HD
ENDBRANCH  26  29
ENDBRANCH  20  23
ENDBRANCH  18  19
ENDBRANCH   1  18
BRANCH   1  34
HETATM   34  C   UNL     1      -6.335   2.802 -31.131  1.00  0.00     0.231 C 
HETATM   35  C   UNL     1      -6.386   3.149 -29.653  1.00  0.00     0.034 C 
ENDBRANCH   1  34
TORSDOF 9
ENDMDL
MODEL 8
REMARK VINA RESULT:      -8.3      1.877      2.436
REMARK  9 active torsions:
REMARK  status: ('A' for Active; 'I' for Inactive)
REMARK    1  A    between atoms: C_2  and  C_3 
REMARK    2  A    between atoms: C_6  and  C_7 
REMARK    3  A    between atoms: C_7  and  C_8 
REMARK    4  A    between atoms: C_8  and  N_9 
REMARK    5  A    between atoms: N_9  and  C_11 
REMARK    6  A    between atoms: N_9  and  C_25 
REMARK    7  A    between atoms: C_11  and  C_12 
REMARK       I    between atoms: C_12  and  N_13 
REMARK    8  A    between atoms: N_13  and  C_14 
REMARK    9  A    between atoms: C_17  and  N_18 
REMARK       I    between atoms: N_18  and  C_19 
ROOT
HETATM    1  N   UNL     1      -5.087   4.302 -33.013  1.00  0.00    -0.056 N 
HETATM    2  H   UNL     1      -4.991   4.164 -31.994  1.00  0.00     0.280 HD
ENDROOT
BRANCH   1   3
HETATM    3  C   UNL     1      -5.813   3.029 -33.524  1.00  0.00     0.319 C 
BRANCH   3   4
HETATM    4  C   UNL     1      -5.770   1.932 -32.473  1.00  0.00     0.187 C 
HETATM    5  O   UNL     1      -6.116   2.247 -31.327  1.00  0.00    -0.290 OA
BRANCH   4   6
HETATM    6  C   UNL     1      -5.210   0.619 -32.773  1.00  0.00     0.039 A 
HETATM    7  C   UNL     1      -5.768  -0.540 -33.425  1.00  0.00     0.006 A 
HETATM    8  C   UNL     1      -4.735  -1.477 -33.556  1.00  0.00     0.049 A 
HETATM    9  C   UNL     1      -7.039  -0.898 -33.930  1.00  0.00     0.015 A 
HETATM   10  C   UNL     1      -4.881  -2.719 -34.207  1.00  0.00    -0.031 A 
HETATM   11  N   UNL     1      -3.625  -0.950 -32.937  1.00  0.00    -0.364 N 
HETATM   12  C   UNL     1      -6.157  -3.016 -34.710  1.00  0.00     0.009 A 
HETATM   13  C   UNL     1      -7.218  -2.129 -34.571  1.00  0.00     0.002 A 
HETATM   14  C   UNL     1      -3.898   0.301 -32.468  1.00  0.00     0.104 A 
HETATM   15  H   UNL     1      -2.737  -1.428 -32.851  1.00  0.00     0.165 HD
BRANCH  10  16
HETATM   16  C   UNL     1      -3.764  -3.723 -34.357  1.00  0.00     0.036 C 
HETATM   17  C   UNL     1      -3.428  -4.394 -33.035  1.00  0.00     0.010 C 
ENDBRANCH  10  16
ENDBRANCH   4   6
ENDBRANCH   3   4
ENDBRANCH   1   3
BRANCH   1  18
HETATM   18  C   UNL     1      -3.639   4.379 -33.553  1.00  0.00     0.338 C 
BRANCH  18  19
HETATM   19  C   UNL     1      -2.584   4.616 -32.461  1.00  0.00     0.248 C 
HETATM   20  N   UNL     1      -2.143   5.922 -32.382  1.00  0.00    -0.326 N 
HETATM   21  H   UNL     1      -2.323   6.549 -33.159  1.00  0.00     0.169 HD
HETATM   22  O   UNL     1      -2.258   3.690 -31.721  1.00  0.00    -0.271 OA
BRANCH  20  23
HETATM   23  C   UNL     1      -1.372   6.485 -31.339  1.00  0.00     0.034 A 
HETATM   24  C   UNL     1      -0.001   6.214 -31.334  1.00  0.00     0.032 A 
HETATM   25  C   UNL     1       0.833   6.744 -30.339  1.00  0.00     0.032 A 
HETATM   26  C   UNL     1       0.312   7.565 -29.340  1.00  0.00     0.034 A 
HETATM   27  C   UNL     1      -1.056   7.851 -29.358  1.00  0.00     0.032 A 
HETATM   28  C   UNL     1      -1.893   7.316 -30.347  1.00  0.00     0.032 A 
BRANCH  26  29
HETATM   29  N   UNL     1       1.077   8.126 -28.297  1.00  0.00    -0.328 N 
HETATM   30  C   UNL     1       1.111   7.729 -26.973  1.00  0.00     0.218 C 
HETATM   31  C   UNL     1       2.023   8.585 -26.130  1.00  0.00     0.117 C 
HETATM   32  O   UNL     1       0.515   6.777 -26.480  1.00  0.00    -0.274 OA
HETATM   33  H   UNL     1       1.662   8.912 -28.549  1.00  0.00     0.169 HD
ENDBRANCH  26  29
ENDBRANCH  20  23
ENDBRANCH  18  19
ENDBRANCH   1  18
BRANCH   1  34
HETATM   34  C   UNL     1      -5.869   5.567 -33.271  1.00  0.00     0.231 C 
HETATM   35  C   UNL     1      -6.128   6.295 -31.964  1.00  0.00     0.034 C 
ENDBRANCH   1  34
TORSDOF 9
ENDMDL
MODEL 9
REMARK VINA RESULT:      -8.3      3.650      6.156
REMARK  9 active torsions:
REMARK  status: ('A' for Active; 'I' for Inactive)
REMARK    1  A    between atoms: C_2  and  C_3 
REMARK    2  A    between atoms: C_6  and  C_7 
REMARK    3  A    between atoms: C_7  and  C_8 
REMARK    4  A    between atoms: C_8  and  N_9 
REMARK    5  A    between atoms: N_9  and  C_11 
REMARK    6  A    between atoms: N_9  and  C_25 
REMARK    7  A    between atoms: C_11  and  C_12 
REMARK       I    between atoms: C_12  and  N_13 
REMARK    8  A    between atoms: N_13  and  C_14 
REMARK    9  A    between atoms: C_17  and  N_18 
REMARK       I    between atoms: N_18  and  C_19 
ROOT
HETATM    1  N   UNL     1     -10.165   3.270 -33.384  1.00  0.00    -0.056 N 
HETATM    2  H   UNL     1      -9.763   2.826 -32.542  1.00  0.00     0.280 HD
ENDROOT
BRANCH   1   3
HETATM    3  C   UNL     1     -10.642   2.091 -34.273  1.00  0.00     0.319 C 
BRANCH   3   4
HETATM    4  C   UNL     1     -10.102   0.771 -33.744  1.00  0.00     0.187 C 
HETATM    5  O   UNL     1     -10.897   0.060 -33.116  1.00  0.00    -0.290 OA
BRANCH   4   6
HETATM    6  C   UNL     1      -8.687   0.437 -33.848  1.00  0.00     0.039 A 
HETATM    7  C   UNL     1      -7.664   0.252 -32.850  1.00  0.00     0.006 A 
HETATM    8  C   UNL     1      -6.512  -0.186 -33.514  1.00  0.00     0.049 A 
HETATM    9  C   UNL     1      -7.588   0.400 -31.446  1.00  0.00     0.015 A 
HETATM   10  C   UNL     1      -5.314  -0.538 -32.859  1.00  0.00    -0.031 A 
HETATM   11  N   UNL     1      -6.793  -0.185 -34.861  1.00  0.00    -0.364 N 
HETATM   12  C   UNL     1      -5.299  -0.395 -31.463  1.00  0.00     0.009 A 
HETATM   13  C   UNL     1      -6.409   0.070 -30.768  1.00  0.00     0.002 A 
HETATM   14  C   UNL     1      -8.089   0.183 -35.071  1.00  0.00     0.104 A 
HETATM   15  H   UNL     1      -6.128  -0.430 -35.584  1.00  0.00     0.165 HD
BRANCH  10  16
HETATM   16  C   UNL     1      -4.077  -1.021 -33.576  1.00  0.00     0.036 C 
HETATM   17  C   UNL     1      -4.226  -2.458 -34.050  1.00  0.00     0.010 C 
ENDBRANCH  10  16
ENDBRANCH   4   6
ENDBRANCH   3   4
ENDBRANCH   1   3
BRANCH   1  18
HETATM   18  C   UNL     1      -8.991   4.033 -34.042  1.00  0.00     0.338 C 
BRANCH  18  19
HETATM   19  C   UNL     1      -7.703   4.028 -33.204  1.00  0.00     0.248 C 
HETATM   20  N   UNL     1      -6.553   3.841 -33.946  1.00  0.00    -0.326 N 
HETATM   21  H   UNL     1      -6.631   3.477 -34.889  1.00  0.00     0.169 HD
HETATM   22  O   UNL     1      -7.765   4.241 -31.995  1.00  0.00    -0.271 OA
BRANCH  20  23
HETATM   23  C   UNL     1      -5.226   4.029 -33.496  1.00  0.00     0.034 A 
HETATM   24  C   UNL     1      -4.605   5.241 -33.808  1.00  0.00     0.032 A 
HETATM   25  C   UNL     1      -3.294   5.507 -33.388  1.00  0.00     0.032 A 
HETATM   26  C   UNL     1      -2.586   4.570 -32.637  1.00  0.00     0.034 A 
HETATM   27  C   UNL     1      -3.215   3.365 -32.310  1.00  0.00     0.032 A 
HETATM   28  C   UNL     1      -4.522   3.094 -32.735  1.00  0.00     0.032 A 
BRANCH  26  29
HETATM   29  N   UNL     1      -1.262   4.752 -32.189  1.00  0.00    -0.328 N 
HETATM   30  C   UNL     1      -0.839   5.479 -31.091  1.00  0.00     0.218 C 
HETATM   31  C   UNL     1       0.662   5.480 -30.935  1.00  0.00     0.117 C 
HETATM   32  O   UNL     1      -1.552   6.058 -30.279  1.00  0.00    -0.274 OA
HETATM   33  H   UNL     1      -0.541   4.301 -32.738  1.00  0.00     0.169 HD
ENDBRANCH  26  29
ENDBRANCH  20  23
ENDBRANCH  18  19
ENDBRANCH   1  18
BRANCH   1  34
HETATM   34  C   UNL     1     -11.292   4.187 -32.971  1.00  0.00     0.231 C 
HETATM   35  C   UNL     1     -11.438   4.184 -31.460  1.00  0.00     0.034 C 
ENDBRANCH   1  34
TORSDOF 9
ENDMDL
MODEL 10
REMARK VINA RESULT:      -8.1      4.412      8.847
REMARK  9 active torsions:
REMARK  status: ('A' for Active; 'I' for Inactive)
REMARK    1  A    between atoms: C_2  and  C_3 
REMARK    2  A    between atoms: C_6  and  C_7 
REMARK    3  A    between atoms: C_7  and  C_8 
REMARK    4  A    between atoms: C_8  and  N_9 
REMARK    5  A    between atoms: N_9  and  C_11 
REMARK    6  A    between atoms: N_9  and  C_25 
REMARK    7  A    between atoms: C_11  and  C_12 
REMARK       I    between atoms: C_12  and  N_13 
REMARK    8  A    between atoms: N_13  and  C_14 
REMARK    9  A    between atoms: C_17  and  N_18 
REMARK       I    between atoms: N_18  and  C_19 
ROOT
HETATM    1  N   UNL     1      -4.562   4.870 -31.138  1.00  0.00    -0.056 N 
HETATM    2  H   UNL     1      -5.076   5.085 -32.008  1.00  0.00     0.280 HD
ENDROOT
BRANCH   1   3
HETATM    3  C   UNL     1      -4.195   3.367 -31.247  1.00  0.00     0.319 C 
BRANCH   3   4
HETATM    4  C   UNL     1      -4.518   2.838 -32.635  1.00  0.00     0.187 C 
HETATM    5  O   UNL     1      -4.737   3.682 -33.513  1.00  0.00    -0.290 OA
BRANCH   4   6
HETATM    6  C   UNL     1      -4.700   1.411 -32.877  1.00  0.00     0.039 A 
HETATM    7  C   UNL     1      -5.661   0.684 -33.669  1.00  0.00     0.006 A 
HETATM    8  C   UNL     1      -5.283  -0.665 -33.640  1.00  0.00     0.049 A 
HETATM    9  C   UNL     1      -6.811   1.020 -34.419  1.00  0.00     0.015 A 
HETATM   10  C   UNL     1      -5.948  -1.681 -34.356  1.00  0.00    -0.031 A 
HETATM   11  N   UNL     1      -4.197  -0.766 -32.801  1.00  0.00    -0.364 N 
HETATM   12  C   UNL     1      -7.069  -1.289 -35.104  1.00  0.00     0.009 A 
HETATM   13  C   UNL     1      -7.499   0.032 -35.131  1.00  0.00     0.002 A 
HETATM   14  C   UNL     1      -3.840   0.467 -32.342  1.00  0.00     0.104 A 
HETATM   15  H   UNL     1      -3.733  -1.635 -32.569  1.00  0.00     0.165 HD
BRANCH  10  16
HETATM   16  C   UNL     1      -5.533  -3.132 -34.334  1.00  0.00     0.036 C 
HETATM   17  C   UNL     1      -6.547  -4.019 -35.039  1.00  0.00     0.010 C 
ENDBRANCH  10  16
ENDBRANCH   4   6
ENDBRANCH   3   4
ENDBRANCH   1   3
BRANCH   1  18
HETATM   18  C   UNL     1      -5.573   5.122 -29.995  1.00  0.00     0.338 C 
BRANCH  18  19
HETATM   19  C   UNL     1      -6.876   4.321 -30.134  1.00  0.00     0.248 C 
HETATM   20  N   UNL     1      -7.309   4.179 -31.439  1.00  0.00    -0.326 N 
HETATM   21  H   UNL     1      -6.924   4.788 -32.153  1.00  0.00     0.169 HD
HETATM   22  O   UNL     1      -7.396   3.828 -29.136  1.00  0.00    -0.271 OA
BRANCH  20  23
HETATM   23  C   UNL     1      -8.323   3.305 -31.894  1.00  0.00     0.034 A 
HETATM   24  C   UNL     1      -9.185   3.781 -32.886  1.00  0.00     0.032 A 
HETATM   25  C   UNL     1     -10.209   2.971 -33.398  1.00  0.00     0.032 A 
HETATM   26  C   UNL     1     -10.380   1.667 -32.936  1.00  0.00     0.034 A 
HETATM   27  C   UNL     1      -9.504   1.186 -31.958  1.00  0.00     0.032 A 
HETATM   28  C   UNL     1      -8.485   1.996 -31.440  1.00  0.00     0.032 A 
BRANCH  26  29
HETATM   29  N   UNL     1     -11.390   0.793 -33.386  1.00  0.00    -0.328 N 
HETATM   30  C   UNL     1     -12.747   1.048 -33.466  1.00  0.00     0.218 C 
HETATM   31  C   UNL     1     -13.536  -0.137 -33.965  1.00  0.00     0.117 C 
HETATM   32  O   UNL     1     -13.308   2.107 -33.205  1.00  0.00    -0.274 OA
HETATM   33  H   UNL     1     -11.085  -0.126 -33.678  1.00  0.00     0.169 HD
ENDBRANCH  26  29
ENDBRANCH  20  23
ENDBRANCH  18  19
ENDBRANCH   1  18
BRANCH   1  34
HETATM   34  C   UNL     1      -3.349   5.765 -31.045  1.00  0.00     0.231 C 
HETATM   35  C   UNL     1      -3.279   6.674 -32.259  1.00  0.00     0.034 C 
ENDBRANCH   1  34
TORSDOF 9
ENDMDL
