MODEL 1
REMARK VINA RESULT:      -8.5      0.000      0.000
REMARK  6 active torsions:
REMARK  status: ('A' for Active; 'I' for Inactive)
REMARK    1  A    between atoms: C_2  and  C_3 
REMARK    2  A    between atoms: C_3  and  C_4 
REMARK    3  A    between atoms: C_3  and  C_10 
REMARK    4  A    between atoms: C_10  and  C_11 
REMARK       I    between atoms: C_11  and  N_12 
REMARK    5  A    between atoms: N_12  and  C_13 
REMARK    6  A    between atoms: C_15  and  C_16 
ROOT
HETATM    1  C   UNL     1      -5.421   0.767 -32.241  1.00  0.00     0.223 C 
HETATM    2  N   UNL     1      -5.827   2.058 -32.504  1.00  0.00    -0.327 N 
HETATM    3  O   UNL     1      -4.456   0.456 -31.545  1.00  0.00    -0.273 OA
HETATM    4  H   UNL     1      -6.583   2.177 -33.164  1.00  0.00     0.169 HD
ENDROOT
BRANCH   2   5
HETATM    5  C   UNL     1      -5.248   3.263 -32.053  1.00  0.00     0.035 A 
HETATM    6  C   UNL     1      -4.272   3.977 -32.755  1.00  0.00     0.042 A 
HETATM    7  C   UNL     1      -3.731   5.166 -32.237  1.00  0.00    -0.021 A 
HETATM    8  C   UNL     1      -4.196   5.639 -31.002  1.00  0.00     0.012 A 
HETATM    9  C   UNL     1      -5.168   4.933 -30.293  1.00  0.00     0.003 A 
HETATM   10  C   UNL     1      -5.685   3.747 -30.814  1.00  0.00     0.029 A 
BRANCH   7  11
HETATM   11  C   UNL     1      -2.708   5.885 -32.979  1.00  0.00     0.010 A 
HETATM   12  C   UNL     1      -2.330   7.251 -32.951  1.00  0.00     0.152 A 
HETATM   13  N   UNL     1      -1.343   7.533 -33.807  1.00  0.00    -0.187 NA
HETATM   14  N   UNL     1      -1.092   6.354 -34.395  1.00  0.00    -0.289 N 
HETATM   15  H   UNL     1      -0.371   6.317 -35.108  1.00  0.00     0.188 HD
HETATM   16  C   UNL     1      -1.879   5.337 -33.936  1.00  0.00     0.123 A 
ENDBRANCH   7  11
ENDBRANCH   2   5
BRANCH   1  17
HETATM   17  C   UNL     1      -6.320  -0.339 -32.794  1.00  0.00     0.116 C 
BRANCH  17  18
HETATM   18  C   UNL     1      -6.067  -0.859 -34.225  1.00  0.00     0.049 C 
BRANCH  18  19
HETATM   19  C   UNL     1      -7.135  -0.294 -35.153  1.00  0.00    -0.027 C 
HETATM   20  C   UNL     1      -8.253   0.366 -34.822  1.00  0.00     0.007 C 
ENDBRANCH  18  19
BRANCH  18  21
HETATM   21  C   UNL     1      -5.732  -2.349 -34.385  1.00  0.00    -0.050 A 
HETATM   22  C   UNL     1      -4.462  -2.841 -34.033  1.00  0.00     0.008 A 
HETATM   23  C   UNL     1      -4.145  -4.198 -34.152  1.00  0.00     0.001 A 
HETATM   24  C   UNL     1      -5.104  -5.102 -34.595  1.00  0.00     0.000 A 
HETATM   25  C   UNL     1      -6.382  -4.651 -34.902  1.00  0.00     0.001 A 
HETATM   26  C   UNL     1      -6.697  -3.293 -34.785  1.00  0.00     0.008 A 
ENDBRANCH  18  21
ENDBRANCH  17  18
ENDBRANCH   1  17
TORSDOF 6
ENDMDL
MODEL 2
REMARK VINA RESULT:      -8.4      4.418      7.234
REMARK  6 active torsions:
REMARK  status: ('A' for Active; 'I' for Inactive)
REMARK    1  A    between atoms: C_2  and  C_3 
REMARK    2  A    between atoms: C_3  and  C_4 
REMARK    3  A    between atoms: C_3  and  C_10 
REMARK    4  A    between atoms: C_10  and  C_11 
REMARK       I    between atoms: C_11  and  N_12 
REMARK    5  A    between atoms: N_12  and  C_13 
REMARK    6  A    between atoms: C_15  and  C_16 
ROOT
HETATM    1  C   UNL     1      -7.124   0.729 -33.420  1.00  0.00     0.223 C 
HETATM    2  N   UNL     1      -7.876   1.550 -34.233  1.00  0.00    -0.327 N 
HETATM    3  O   UNL     1      -7.472   0.313 -32.316  1.00  0.00    -0.273 OA
HETATM    4  H   UNL     1      -7.436   1.892 -35.076  1.00  0.00     0.169 HD
ENDROOT
BRANCH   2   5
HETATM    5  C   UNL     1      -9.162   2.078 -33.988  1.00  0.00     0.035 A 
HETATM    6  C   UNL     1     -10.347   1.346 -34.107  1.00  0.00     0.042 A 
HETATM    7  C   UNL     1     -11.595   1.944 -33.857  1.00  0.00    -0.021 A 
HETATM    8  C   UNL     1     -11.635   3.291 -33.472  1.00  0.00     0.012 A 
HETATM    9  C   UNL     1     -10.458   4.029 -33.353  1.00  0.00     0.003 A 
HETATM   10  C   UNL     1      -9.229   3.426 -33.617  1.00  0.00     0.029 A 
BRANCH   7  11
HETATM   11  C   UNL     1     -12.816   1.167 -33.999  1.00  0.00     0.010 A 
HETATM   12  C   UNL     1     -14.100   1.537 -34.470  1.00  0.00     0.152 A 
HETATM   13  N   UNL     1     -14.977   0.528 -34.430  1.00  0.00    -0.187 NA
HETATM   14  N   UNL     1     -14.263  -0.488 -33.923  1.00  0.00    -0.289 N 
HETATM   15  H   UNL     1     -14.728  -1.379 -33.785  1.00  0.00     0.188 HD
HETATM   16  C   UNL     1     -12.966  -0.159 -33.649  1.00  0.00     0.123 A 
ENDBRANCH   7  11
ENDBRANCH   2   5
BRANCH   1  17
HETATM   17  C   UNL     1      -5.802   0.239 -34.011  1.00  0.00     0.116 C 
BRANCH  17  18
HETATM   18  C   UNL     1      -5.081  -0.952 -33.342  1.00  0.00     0.049 C 
BRANCH  18  19
HETATM   19  C   UNL     1      -3.639  -0.558 -33.052  1.00  0.00    -0.027 C 
HETATM   20  C   UNL     1      -3.036  -0.444 -31.861  1.00  0.00     0.007 C 
ENDBRANCH  18  19
BRANCH  18  21
HETATM   21  C   UNL     1      -5.308  -2.344 -33.947  1.00  0.00    -0.050 A 
HETATM   22  C   UNL     1      -4.322  -3.342 -33.843  1.00  0.00     0.008 A 
HETATM   23  C   UNL     1      -4.519  -4.622 -34.370  1.00  0.00     0.001 A 
HETATM   24  C   UNL     1      -5.723  -4.946 -34.986  1.00  0.00     0.000 A 
HETATM   25  C   UNL     1      -6.733  -3.994 -35.059  1.00  0.00     0.001 A 
HETATM   26  C   UNL     1      -6.533  -2.713 -34.534  1.00  0.00     0.008 A 
ENDBRANCH  18  21
ENDBRANCH  17  18
ENDBRANCH   1  17
TORSDOF 6
ENDMDL
MODEL 3
REMARK VINA RESULT:      -8.2      2.464      8.169
REMARK  6 active torsions:
REMARK  status: ('A' for Active; 'I' for Inactive)
REMARK    1  A    between atoms: C_2  and  C_3 
REMARK    2  A    between atoms: C_3  and  C_4 
REMARK    3  A    between atoms: C_3  and  C_10 
REMARK    4  A    between atoms: C_10  and  C_11 
REMARK       I    between atoms: C_11  and  N_12 
REMARK    5  A    between atoms: N_12  and  C_13 
REMARK    6  A    between atoms: C_15  and  C_16 
ROOT
HETATM    1  C   UNL     1      -5.374   1.989 -31.506  1.00  0.00     0.223 C 
HETATM    2  N   UNL     1      -5.086   1.578 -32.790  1.00  0.00    -0.327 N 
HETATM    3  O   UNL     1      -6.317   1.585 -30.827  1.00  0.00    -0.273 OA
HETATM    4  H   UNL     1      -4.335   2.055 -33.268  1.00  0.00     0.169 HD
ENDROOT
BRANCH   2   5
HETATM    5  C   UNL     1      -5.781   0.638 -33.581  1.00  0.00     0.035 A 
HETATM    6  C   UNL     1      -5.436  -0.713 -33.681  1.00  0.00     0.042 A 
HETATM    7  C   UNL     1      -6.170  -1.588 -34.501  1.00  0.00    -0.021 A 
HETATM    8  C   UNL     1      -7.269  -1.089 -35.211  1.00  0.00     0.012 A 
HETATM    9  C   UNL     1      -7.620   0.258 -35.118  1.00  0.00     0.003 A 
HETATM   10  C   UNL     1      -6.874   1.117 -34.312  1.00  0.00     0.029 A 
BRANCH   7  11
HETATM   11  C   UNL     1      -5.785  -2.987 -34.600  1.00  0.00     0.010 A 
HETATM   12  C   UNL     1      -6.509  -4.118 -35.052  1.00  0.00     0.152 A 
HETATM   13  N   UNL     1      -5.805  -5.251 -34.971  1.00  0.00    -0.187 NA
HETATM   14  N   UNL     1      -4.631  -4.855 -34.456  1.00  0.00    -0.289 N 
HETATM   15  H   UNL     1      -3.919  -5.557 -34.288  1.00  0.00     0.188 HD
HETATM   16  C   UNL     1      -4.567  -3.512 -34.217  1.00  0.00     0.123 A 
ENDBRANCH   7  11
ENDBRANCH   2   5
BRANCH   1  17
HETATM   17  C   UNL     1      -4.368   2.952 -30.875  1.00  0.00     0.116 C 
BRANCH  17  18
HETATM   18  C   UNL     1      -4.338   4.419 -31.355  1.00  0.00     0.049 C 
BRANCH  18  19
HETATM   19  C   UNL     1      -5.762   4.957 -31.393  1.00  0.00    -0.027 C 
HETATM   20  C   UNL     1      -6.215   6.132 -30.934  1.00  0.00     0.007 C 
ENDBRANCH  18  19
BRANCH  18  21
HETATM   21  C   UNL     1      -3.444   4.748 -32.559  1.00  0.00    -0.050 A 
HETATM   22  C   UNL     1      -4.006   4.997 -33.825  1.00  0.00     0.008 A 
HETATM   23  C   UNL     1      -3.209   5.319 -34.928  1.00  0.00     0.001 A 
HETATM   24  C   UNL     1      -1.831   5.432 -34.785  1.00  0.00     0.000 A 
HETATM   25  C   UNL     1      -1.254   5.240 -33.535  1.00  0.00     0.001 A 
HETATM   26  C   UNL     1      -2.052   4.916 -32.433  1.00  0.00     0.008 A 
ENDBRANCH  18  21
ENDBRANCH  17  18
ENDBRANCH   1  17
TORSDOF 6
ENDMDL
MODEL 4
REMARK VINA RESULT:      -8.1      1.476      2.006
REMARK  6 active torsions:
REMARK  status: ('A' for Active; 'I' for Inactive)
REMARK    1  A    between atoms: C_2  and  C_3 
REMARK    2  A    between atoms: C_3  and  C_4 
REMARK    3  A    between atoms: C_3  and  C_10 
REMARK    4  A    between atoms: C_10  and  C_11 
REMARK       I    between atoms: C_11  and  N_12 
REMARK    5  A    between atoms: N_12  and  C_13 
REMARK    6  A    between atoms: C_15  and  C_16 
ROOT
HETATM    1  C   UNL     1      -6.063   1.291 -32.282  1.00  0.00     0.223 C 
HETATM    2  N   UNL     1      -5.163   1.933 -33.106  1.00  0.00    -0.327 N 
HETATM    3  O   UNL     1      -6.668   1.815 -31.348  1.00  0.00    -0.273 OA
HETATM    4  H   UNL     1      -4.669   1.365 -33.779  1.00  0.00     0.169 HD
ENDROOT
BRANCH   2   5
HETATM    5  C   UNL     1      -4.750   3.282 -33.061  1.00  0.00     0.035 A 
HETATM    6  C   UNL     1      -3.508   3.708 -32.580  1.00  0.00     0.042 A 
HETATM    7  C   UNL     1      -3.171   5.072 -32.556  1.00  0.00    -0.021 A 
HETATM    8  C   UNL     1      -4.097   6.007 -33.035  1.00  0.00     0.012 A 
HETATM    9  C   UNL     1      -5.340   5.592 -33.515  1.00  0.00     0.003 A 
HETATM   10  C   UNL     1      -5.665   4.236 -33.520  1.00  0.00     0.029 A 
BRANCH   7  11
HETATM   11  C   UNL     1      -1.878   5.493 -32.039  1.00  0.00     0.010 A 
HETATM   12  C   UNL     1      -1.056   4.933 -31.030  1.00  0.00     0.152 A 
HETATM   13  N   UNL     1       0.066   5.632 -30.828  1.00  0.00    -0.187 NA
HETATM   14  N   UNL     1      -0.037   6.648 -31.698  1.00  0.00    -0.289 N 
HETATM   15  H   UNL     1       0.709   7.334 -31.723  1.00  0.00     0.188 HD
HETATM   16  C   UNL     1      -1.179   6.611 -32.446  1.00  0.00     0.123 A 
ENDBRANCH   7  11
ENDBRANCH   2   5
BRANCH   1  17
HETATM   17  C   UNL     1      -6.381  -0.159 -32.648  1.00  0.00     0.116 C 
BRANCH  17  18
HETATM   18  C   UNL     1      -6.023  -0.667 -34.062  1.00  0.00     0.049 C 
BRANCH  18  19
HETATM   19  C   UNL     1      -6.985  -0.049 -35.068  1.00  0.00    -0.027 C 
HETATM   20  C   UNL     1      -8.263   0.308 -34.879  1.00  0.00     0.007 C 
ENDBRANCH  18  19
BRANCH  18  21
HETATM   21  C   UNL     1      -5.728  -2.165 -34.219  1.00  0.00    -0.050 A 
HETATM   22  C   UNL     1      -6.715  -3.044 -34.704  1.00  0.00     0.008 A 
HETATM   23  C   UNL     1      -6.458  -4.409 -34.873  1.00  0.00     0.001 A 
HETATM   24  C   UNL     1      -5.197  -4.922 -34.593  1.00  0.00     0.000 A 
HETATM   25  C   UNL     1      -4.190  -4.068 -34.160  1.00  0.00     0.001 A 
HETATM   26  C   UNL     1      -4.448  -2.704 -33.988  1.00  0.00     0.008 A 
ENDBRANCH  18  21
ENDBRANCH  17  18
ENDBRANCH   1  17
TORSDOF 6
ENDMDL
MODEL 5
REMARK VINA RESULT:      -8.1      2.339      3.152
REMARK  6 active torsions:
REMARK  status: ('A' for Active; 'I' for Inactive)
REMARK    1  A    between atoms: C_2  and  C_3 
REMARK    2  A    between atoms: C_3  and  C_4 
REMARK    3  A    between atoms: C_3  and  C_10 
REMARK    4  A    between atoms: C_10  and  C_11 
REMARK       I    between atoms: C_11  and  N_12 
REMARK    5  A    between atoms: N_12  and  C_13 
REMARK    6  A    between atoms: C_15  and  C_16 
ROOT
HETATM    1  C   UNL     1      -4.725   2.221 -32.636  1.00  0.00     0.223 C 
HETATM    2  N   UNL     1      -3.413   2.476 -32.299  1.00  0.00    -0.327 N 
HETATM    3  O   UNL     1      -5.485   3.021 -33.179  1.00  0.00    -0.273 OA
HETATM    4  H   UNL     1      -2.925   1.762 -31.776  1.00  0.00     0.169 HD
ENDROOT
BRANCH   2   5
HETATM    5  C   UNL     1      -2.679   3.666 -32.491  1.00  0.00     0.035 A 
HETATM    6  C   UNL     1      -2.169   4.451 -31.453  1.00  0.00     0.042 A 
HETATM    7  C   UNL     1      -1.456   5.633 -31.722  1.00  0.00    -0.021 A 
HETATM    8  C   UNL     1      -1.250   6.010 -33.055  1.00  0.00     0.012 A 
HETATM    9  C   UNL     1      -1.757   5.234 -34.098  1.00  0.00     0.003 A 
HETATM   10  C   UNL     1      -2.474   4.072 -33.815  1.00  0.00     0.029 A 
BRANCH   7  11
HETATM   11  C   UNL     1      -0.945   6.440 -30.625  1.00  0.00     0.010 A 
HETATM   12  C   UNL     1       0.377   6.833 -30.301  1.00  0.00     0.152 A 
HETATM   13  N   UNL     1       0.441   7.570 -29.188  1.00  0.00    -0.187 NA
HETATM   14  N   UNL     1      -0.837   7.643 -28.787  1.00  0.00    -0.289 N 
HETATM   15  H   UNL     1      -1.045   8.156 -27.937  1.00  0.00     0.188 HD
HETATM   16  C   UNL     1      -1.705   6.986 -29.611  1.00  0.00     0.123 A 
ENDBRANCH   7  11
ENDBRANCH   2   5
BRANCH   1  17
HETATM   17  C   UNL     1      -5.209   0.792 -32.390  1.00  0.00     0.116 C 
BRANCH  17  18
HETATM   18  C   UNL     1      -5.248  -0.197 -33.576  1.00  0.00     0.049 C 
BRANCH  18  19
HETATM   19  C   UNL     1      -6.655  -0.214 -34.158  1.00  0.00    -0.027 C 
HETATM   20  C   UNL     1      -7.066   0.261 -35.342  1.00  0.00     0.007 C 
ENDBRANCH  18  19
BRANCH  18  21
HETATM   21  C   UNL     1      -4.564  -1.558 -33.382  1.00  0.00    -0.050 A 
HETATM   22  C   UNL     1      -3.781  -1.812 -32.241  1.00  0.00     0.008 A 
HETATM   23  C   UNL     1      -3.167  -3.052 -32.037  1.00  0.00     0.001 A 
HETATM   24  C   UNL     1      -3.349  -4.080 -32.955  1.00  0.00     0.000 A 
HETATM   25  C   UNL     1      -4.158  -3.872 -34.066  1.00  0.00     0.001 A 
HETATM   26  C   UNL     1      -4.769  -2.630 -34.270  1.00  0.00     0.008 A 
ENDBRANCH  18  21
ENDBRANCH  17  18
ENDBRANCH   1  17
TORSDOF 6
ENDMDL
MODEL 6
REMARK VINA RESULT:      -7.9      2.894      8.873
REMARK  6 active torsions:
REMARK  status: ('A' for Active; 'I' for Inactive)
REMARK    1  A    between atoms: C_2  and  C_3 
REMARK    2  A    between atoms: C_3  and  C_4 
REMARK    3  A    between atoms: C_3  and  C_10 
REMARK    4  A    between atoms: C_10  and  C_11 
REMARK       I    between atoms: C_11  and  N_12 
REMARK    5  A    between atoms: N_12  and  C_13 
REMARK    6  A    between atoms: C_15  and  C_16 
ROOT
HETATM    1  C   UNL     1      -4.549   3.050 -32.784  1.00  0.00     0.223 C 
HETATM    2  N   UNL     1      -4.559   1.671 -32.755  1.00  0.00    -0.327 N 
HETATM    3  O   UNL     1      -5.320   3.750 -33.439  1.00  0.00    -0.273 OA
HETATM    4  H   UNL     1      -3.814   1.216 -32.245  1.00  0.00     0.169 HD
ENDROOT
BRANCH   2   5
HETATM    5  C   UNL     1      -5.420   0.791 -33.444  1.00  0.00     0.035 A 
HETATM    6  C   UNL     1      -5.174  -0.575 -33.616  1.00  0.00     0.042 A 
HETATM    7  C   UNL     1      -6.074  -1.389 -34.326  1.00  0.00    -0.021 A 
HETATM    8  C   UNL     1      -7.238  -0.812 -34.852  1.00  0.00     0.012 A 
HETATM    9  C   UNL     1      -7.491   0.550 -34.687  1.00  0.00     0.003 A 
HETATM   10  C   UNL     1      -6.582   1.347 -33.992  1.00  0.00     0.029 A 
BRANCH   7  11
HETATM   11  C   UNL     1      -5.791  -2.804 -34.503  1.00  0.00     0.010 A 
HETATM   12  C   UNL     1      -6.622  -3.868 -34.935  1.00  0.00     0.152 A 
HETATM   13  N   UNL     1      -5.990  -5.046 -34.949  1.00  0.00    -0.187 NA
HETATM   14  N   UNL     1      -4.756  -4.745 -34.516  1.00  0.00    -0.289 N 
HETATM   15  H   UNL     1      -4.081  -5.497 -34.430  1.00  0.00     0.188 HD
HETATM   16  C   UNL     1      -4.585  -3.419 -34.237  1.00  0.00     0.123 A 
ENDBRANCH   7  11
ENDBRANCH   2   5
BRANCH   1  17
HETATM   17  C   UNL     1      -3.552   3.727 -31.844  1.00  0.00     0.116 C 
BRANCH  17  18
HETATM   18  C   UNL     1      -2.659   4.860 -32.395  1.00  0.00     0.049 C 
BRANCH  18  19
HETATM   19  C   UNL     1      -2.077   4.424 -33.733  1.00  0.00    -0.027 C 
HETATM   20  C   UNL     1      -2.029   5.117 -34.879  1.00  0.00     0.007 C 
ENDBRANCH  18  19
BRANCH  18  21
HETATM   21  C   UNL     1      -1.695   5.540 -31.412  1.00  0.00    -0.050 A 
HETATM   22  C   UNL     1      -0.302   5.439 -31.585  1.00  0.00     0.008 A 
HETATM   23  C   UNL     1       0.590   6.068 -30.712  1.00  0.00     0.001 A 
HETATM   24  C   UNL     1       0.111   6.843 -29.662  1.00  0.00     0.000 A 
HETATM   25  C   UNL     1      -1.261   7.000 -29.497  1.00  0.00     0.001 A 
HETATM   26  C   UNL     1      -2.153   6.368 -30.369  1.00  0.00     0.008 A 
ENDBRANCH  18  21
ENDBRANCH  17  18
ENDBRANCH   1  17
TORSDOF 6
ENDMDL
MODEL 7
REMARK VINA RESULT:      -7.9      4.477      7.057
REMARK  6 active torsions:
REMARK  status: ('A' for Active; 'I' for Inactive)
REMARK    1  A    between atoms: C_2  and  C_3 
REMARK    2  A    between atoms: C_3  and  C_4 
REMARK    3  A    between atoms: C_3  and  C_10 
REMARK    4  A    between atoms: C_10  and  C_11 
REMARK       I    between atoms: C_11  and  N_12 
REMARK    5  A    between atoms: N_12  and  C_13 
REMARK    6  A    between atoms: C_15  and  C_16 
ROOT
HETATM    1  C   UNL     1      -9.075   0.363 -33.942  1.00  0.00     0.223 C 
HETATM    2  N   UNL     1      -9.764   1.402 -34.531  1.00  0.00    -0.327 N 
HETATM    3  O   UNL     1      -9.458  -0.278 -32.965  1.00  0.00    -0.273 OA
HETATM    4  H   UNL     1      -9.296   1.902 -35.274  1.00  0.00     0.169 HD
ENDROOT
BRANCH   2   5
HETATM    5  C   UNL     1     -11.012   1.942 -34.156  1.00  0.00     0.035 A 
HETATM    6  C   UNL     1     -11.190   2.866 -33.121  1.00  0.00     0.042 A 
HETATM    7  C   UNL     1     -12.468   3.352 -32.796  1.00  0.00    -0.021 A 
HETATM    8  C   UNL     1     -13.570   2.906 -33.537  1.00  0.00     0.012 A 
HETATM    9  C   UNL     1     -13.403   1.983 -34.570  1.00  0.00     0.003 A 
HETATM   10  C   UNL     1     -12.131   1.499 -34.871  1.00  0.00     0.029 A 
BRANCH   7  11
HETATM   11  C   UNL     1     -12.631   4.303 -31.708  1.00  0.00     0.010 A 
HETATM   12  C   UNL     1     -12.118   5.613 -31.538  1.00  0.00     0.152 A 
HETATM   13  N   UNL     1     -12.482   6.165 -30.376  1.00  0.00    -0.187 NA
HETATM   14  N   UNL     1     -13.219   5.208 -29.792  1.00  0.00    -0.289 N 
HETATM   15  H   UNL     1     -13.606   5.395 -28.873  1.00  0.00     0.188 HD
HETATM   16  C   UNL     1     -13.340   4.077 -30.546  1.00  0.00     0.123 A 
ENDBRANCH   7  11
ENDBRANCH   2   5
BRANCH   1  17
HETATM   17  C   UNL     1      -7.785  -0.062 -34.645  1.00  0.00     0.116 C 
BRANCH  17  18
HETATM   18  C   UNL     1      -6.618  -0.611 -33.794  1.00  0.00     0.049 C 
BRANCH  18  19
HETATM   19  C   UNL     1      -5.548   0.466 -33.669  1.00  0.00    -0.027 C 
HETATM   20  C   UNL     1      -5.600   1.607 -32.968  1.00  0.00     0.007 C 
ENDBRANCH  18  19
BRANCH  18  21
HETATM   21  C   UNL     1      -6.133  -2.035 -34.099  1.00  0.00    -0.050 A 
HETATM   22  C   UNL     1      -7.015  -2.998 -34.624  1.00  0.00     0.008 A 
HETATM   23  C   UNL     1      -6.586  -4.294 -34.928  1.00  0.00     0.001 A 
HETATM   24  C   UNL     1      -5.255  -4.649 -34.744  1.00  0.00     0.000 A 
HETATM   25  C   UNL     1      -4.351  -3.703 -34.274  1.00  0.00     0.001 A 
HETATM   26  C   UNL     1      -4.782  -2.408 -33.968  1.00  0.00     0.008 A 
ENDBRANCH  18  21
ENDBRANCH  17  18
ENDBRANCH   1  17
TORSDOF 6
ENDMDL
MODEL 8
REMARK VINA RESULT:      -7.8      1.452      2.169
REMARK  6 active torsions:
REMARK  status: ('A' for Active; 'I' for Inactive)
REMARK    1  A    between atoms: C_2  and  C_3 
REMARK    2  A    between atoms: C_3  and  C_4 
REMARK    3  A    between atoms: C_3  and  C_10 
REMARK    4  A    between atoms: C_10  and  C_11 
REMARK       I    between atoms: C_11  and  N_12 
REMARK    5  A    between atoms: N_12  and  C_13 
REMARK    6  A    between atoms: C_15  and  C_16 
ROOT
HETATM    1  C   UNL     1      -3.644   1.156 -32.114  1.00  0.00     0.223 C 
HETATM    2  N   UNL     1      -4.405   2.275 -32.378  1.00  0.00    -0.327 N 
HETATM    3  O   UNL     1      -2.867   1.035 -31.168  1.00  0.00    -0.273 OA
HETATM    4  H   UNL     1      -4.936   2.278 -33.237  1.00  0.00     0.169 HD
ENDROOT
BRANCH   2   5
HETATM    5  C   UNL     1      -4.458   3.484 -31.652  1.00  0.00     0.035 A 
HETATM    6  C   UNL     1      -3.740   4.635 -31.989  1.00  0.00     0.042 A 
HETATM    7  C   UNL     1      -3.835   5.801 -31.210  1.00  0.00    -0.021 A 
HETATM    8  C   UNL     1      -4.675   5.800 -30.089  1.00  0.00     0.012 A 
HETATM    9  C   UNL     1      -5.394   4.656 -29.743  1.00  0.00     0.003 A 
HETATM   10  C   UNL     1      -5.279   3.502 -30.518  1.00  0.00     0.029 A 
BRANCH   7  11
HETATM   11  C   UNL     1      -3.068   6.983 -31.572  1.00  0.00     0.010 A 
HETATM   12  C   UNL     1      -2.288   7.265 -32.721  1.00  0.00     0.152 A 
HETATM   13  N   UNL     1      -1.716   8.473 -32.675  1.00  0.00    -0.187 NA
HETATM   14  N   UNL     1      -2.117   8.965 -31.493  1.00  0.00    -0.289 N 
HETATM   15  H   UNL     1      -1.794   9.887 -31.224  1.00  0.00     0.188 HD
HETATM   16  C   UNL     1      -2.927   8.115 -30.796  1.00  0.00     0.123 A 
ENDBRANCH   7  11
ENDBRANCH   2   5
BRANCH   1  17
HETATM   17  C   UNL     1      -3.882  -0.042 -33.032  1.00  0.00     0.116 C 
BRANCH  17  18
HETATM   18  C   UNL     1      -5.288  -0.680 -33.076  1.00  0.00     0.049 C 
BRANCH  18  19
HETATM   19  C   UNL     1      -5.965  -0.478 -31.727  1.00  0.00    -0.027 C 
HETATM   20  C   UNL     1      -7.121   0.149 -31.467  1.00  0.00     0.007 C 
ENDBRANCH  18  19
BRANCH  18  21
HETATM   21  C   UNL     1      -5.411  -2.074 -33.708  1.00  0.00    -0.050 A 
HETATM   22  C   UNL     1      -6.607  -2.477 -34.331  1.00  0.00     0.008 A 
HETATM   23  C   UNL     1      -6.731  -3.735 -34.930  1.00  0.00     0.001 A 
HETATM   24  C   UNL     1      -5.649  -4.608 -34.950  1.00  0.00     0.000 A 
HETATM   25  C   UNL     1      -4.441  -4.215 -34.386  1.00  0.00     0.001 A 
HETATM   26  C   UNL     1      -4.319  -2.958 -33.785  1.00  0.00     0.008 A 
ENDBRANCH  18  21
ENDBRANCH  17  18
ENDBRANCH   1  17
TORSDOF 6
ENDMDL
MODEL 9
REMARK VINA RESULT:      -7.6      2.135      2.753
REMARK  6 active torsions:
REMARK  status: ('A' for Active; 'I' for Inactive)
REMARK    1  A    between atoms: C_2  and  C_3 
REMARK    2  A    between atoms: C_3  and  C_4 
REMARK    3  A    between atoms: C_3  and  C_10 
REMARK    4  A    between atoms: C_10  and  C_11 
REMARK       I    between atoms: C_11  and  N_12 
REMARK    5  A    between atoms: N_12  and  C_13 
REMARK    6  A    between atoms: C_15  and  C_16 
ROOT
HETATM    1  C   UNL     1      -6.037   0.733 -31.912  1.00  0.00     0.223 C 
HETATM    2  N   UNL     1      -5.325   1.650 -32.655  1.00  0.00    -0.327 N 
HETATM    3  O   UNL     1      -6.229   0.799 -30.699  1.00  0.00    -0.273 OA
HETATM    4  H   UNL     1      -5.166   1.431 -33.628  1.00  0.00     0.169 HD
ENDROOT
BRANCH   2   5
HETATM    5  C   UNL     1      -4.681   2.823 -32.206  1.00  0.00     0.035 A 
HETATM    6  C   UNL     1      -5.350   3.944 -31.705  1.00  0.00     0.042 A 
HETATM    7  C   UNL     1      -4.641   5.084 -31.287  1.00  0.00    -0.021 A 
HETATM    8  C   UNL     1      -3.242   5.077 -31.368  1.00  0.00     0.012 A 
HETATM    9  C   UNL     1      -2.566   3.965 -31.868  1.00  0.00     0.003 A 
HETATM   10  C   UNL     1      -3.284   2.847 -32.291  1.00  0.00     0.029 A 
BRANCH   7  11
HETATM   11  C   UNL     1      -5.359   6.243 -30.782  1.00  0.00     0.010 A 
HETATM   12  C   UNL     1      -4.884   7.465 -30.244  1.00  0.00     0.152 A 
HETATM   13  N   UNL     1      -5.871   8.284 -29.868  1.00  0.00    -0.187 NA
HETATM   14  N   UNL     1      -6.981   7.587 -30.151  1.00  0.00    -0.289 N 
HETATM   15  H   UNL     1      -7.879   8.008 -29.938  1.00  0.00     0.188 HD
HETATM   16  C   UNL     1      -6.731   6.362 -30.699  1.00  0.00     0.123 A 
ENDBRANCH   7  11
ENDBRANCH   2   5
BRANCH   1  17
HETATM   17  C   UNL     1      -6.707  -0.389 -32.706  1.00  0.00     0.116 C 
BRANCH  17  18
HETATM   18  C   UNL     1      -6.119  -0.784 -34.079  1.00  0.00     0.049 C 
BRANCH  18  19
HETATM   19  C   UNL     1      -6.938  -0.118 -35.177  1.00  0.00    -0.027 C 
HETATM   20  C   UNL     1      -8.180   0.378 -35.098  1.00  0.00     0.007 C 
ENDBRANCH  18  19
BRANCH  18  21
HETATM   21  C   UNL     1      -5.752  -2.260 -34.290  1.00  0.00    -0.050 A 
HETATM   22  C   UNL     1      -4.475  -2.739 -33.945  1.00  0.00     0.008 A 
HETATM   23  C   UNL     1      -4.129  -4.083 -34.111  1.00  0.00     0.001 A 
HETATM   24  C   UNL     1      -5.065  -4.990 -34.596  1.00  0.00     0.000 A 
HETATM   25  C   UNL     1      -6.349  -4.554 -34.898  1.00  0.00     0.001 A 
HETATM   26  C   UNL     1      -6.693  -3.208 -34.734  1.00  0.00     0.008 A 
ENDBRANCH  18  21
ENDBRANCH  17  18
ENDBRANCH   1  17
TORSDOF 6
ENDMDL
MODEL 10
REMARK VINA RESULT:      -7.6      4.131      5.860
REMARK  6 active torsions:
REMARK  status: ('A' for Active; 'I' for Inactive)
REMARK    1  A    between atoms: C_2  and  C_3 
REMARK    2  A    between atoms: C_3  and  C_4 
REMARK    3  A    between atoms: C_3  and  C_10 
REMARK    4  A    between atoms: C_10  and  C_11 
REMARK       I    between atoms: C_11  and  N_12 
REMARK    5  A    between atoms: N_12  and  C_13 
REMARK    6  A    between atoms: C_15  and  C_16 
ROOT
HETATM    1  C   UNL     1      -7.974  -0.461 -34.237  1.00  0.00     0.223 C 
HETATM    2  N   UNL     1      -8.922  -0.233 -33.262  1.00  0.00    -0.327 N 
HETATM    3  O   UNL     1      -7.598   0.366 -35.067  1.00  0.00    -0.273 OA
HETATM    4  H   UNL     1      -9.203  -1.024 -32.700  1.00  0.00     0.169 HD
ENDROOT
BRANCH   2   5
HETATM    5  C   UNL     1      -9.647   0.952 -33.011  1.00  0.00     0.035 A 
HETATM    6  C   UNL     1      -9.252   1.936 -32.099  1.00  0.00     0.042 A 
HETATM    7  C   UNL     1     -10.033   3.086 -31.893  1.00  0.00    -0.021 A 
HETATM    8  C   UNL     1     -11.216   3.242 -32.628  1.00  0.00     0.012 A 
HETATM    9  C   UNL     1     -11.619   2.264 -33.538  1.00  0.00     0.003 A 
HETATM   10  C   UNL     1     -10.840   1.122 -33.722  1.00  0.00     0.029 A 
BRANCH   7  11
HETATM   11  C   UNL     1      -9.609   4.091 -30.931  1.00  0.00     0.010 A 
HETATM   12  C   UNL     1      -8.416   4.205 -30.175  1.00  0.00     0.152 A 
HETATM   13  N   UNL     1      -8.410   5.276 -29.375  1.00  0.00    -0.187 NA
HETATM   14  N   UNL     1      -9.602   5.846 -29.605  1.00  0.00    -0.289 N 
HETATM   15  H   UNL     1      -9.838   6.689 -29.093  1.00  0.00     0.188 HD
HETATM   16  C   UNL     1     -10.356   5.178 -30.527  1.00  0.00     0.123 A 
ENDBRANCH   7  11
ENDBRANCH   2   5
BRANCH   1  17
HETATM   17  C   UNL     1      -7.287  -1.826 -34.190  1.00  0.00     0.116 C 
BRANCH  17  18
HETATM   18  C   UNL     1      -5.782  -1.916 -34.527  1.00  0.00     0.049 C 
BRANCH  18  19
HETATM   19  C   UNL     1      -5.494  -3.278 -35.144  1.00  0.00    -0.027 C 
HETATM   20  C   UNL     1      -6.240  -4.390 -35.080  1.00  0.00     0.007 C 
ENDBRANCH  18  19
BRANCH  18  21
HETATM   21  C   UNL     1      -4.791  -1.414 -33.467  1.00  0.00    -0.050 A 
HETATM   22  C   UNL     1      -3.883  -2.299 -32.857  1.00  0.00     0.008 A 
HETATM   23  C   UNL     1      -2.960  -1.857 -31.905  1.00  0.00     0.001 A 
HETATM   24  C   UNL     1      -2.899  -0.511 -31.564  1.00  0.00     0.000 A 
HETATM   25  C   UNL     1      -3.751   0.394 -32.188  1.00  0.00     0.001 A 
HETATM   26  C   UNL     1      -4.676  -0.050 -33.138  1.00  0.00     0.008 A 
ENDBRANCH  18  21
ENDBRANCH  17  18
ENDBRANCH   1  17
TORSDOF 6
ENDMDL
