MODEL 1
REMARK VINA RESULT:      -9.0      0.000      0.000
REMARK  10 active torsions:
REMARK  status: ('A' for Active; 'I' for Inactive)
REMARK    1  A    between atoms: C_2  and  N_3 
REMARK    2  A    between atoms: N_3  and  C_4 
REMARK    3  A    between atoms: N_3  and  C_37 
REMARK    4  A    between atoms: C_7  and  C_8 
REMARK    5  A    between atoms: N_9  and  C_11 
REMARK    6  A    between atoms: C_11  and  C_12 
REMARK       I    between atoms: C_12  and  N_13 
REMARK    7  A    between atoms: N_13  and  C_14 
REMARK    8  A    between atoms: C_20  and  C_21 
REMARK    9  A    between atoms: C_21  and  O_22 
REMARK   10  A    between atoms: C_28  and  O_29 
ROOT
HETATM    1  C   UNL     1      -9.614   2.037 -32.944  1.00  0.00     0.228 C 
HETATM    2  N   UNL     1      -8.919   3.398 -33.037  1.00  0.00    -0.054 N 
HETATM    3  H   UNL     1      -8.277   3.343 -32.238  1.00  0.00     0.281 HD
HETATM    4  C   UNL     1      -9.820   4.552 -32.675  1.00  0.00     0.239 C 
HETATM    5  C   UNL     1     -11.179   4.521 -33.355  1.00  0.00     0.066 C 
HETATM    6  C   UNL     1     -11.867   3.164 -33.218  1.00  0.00     0.065 C 
HETATM    7  C   UNL     1     -10.953   2.024 -33.716  1.00  0.00     0.055 C 
HETATM    8  C   UNL     1     -13.210   3.156 -33.972  1.00  0.00     0.038 C 
HETATM    9  C   UNL     1     -13.919   1.806 -33.866  1.00  0.00     0.003 C 
HETATM   10  C   UNL     1     -13.019   0.664 -34.315  1.00  0.00     0.001 C 
HETATM   11  C   UNL     1     -11.685   0.667 -33.575  1.00  0.00     0.010 C 
ENDROOT
BRANCH   2  12
HETATM   12  C   UNL     1      -7.944   3.673 -34.187  1.00  0.00     0.338 C 
BRANCH  12  13
HETATM   13  C   UNL     1      -6.439   3.507 -33.958  1.00  0.00     0.248 C 
HETATM   14  N   UNL     1      -5.766   4.715 -33.991  1.00  0.00    -0.319 N 
HETATM   15  H   UNL     1      -6.159   5.502 -34.497  1.00  0.00     0.169 HD
HETATM   16  O   UNL     1      -5.913   2.407 -33.837  1.00  0.00    -0.271 OA
BRANCH  14  17
HETATM   17  C   UNL     1      -4.437   4.874 -33.653  1.00  0.00     0.094 A 
HETATM   18  S   UNL     1      -3.527   5.342 -35.009  1.00  0.00    -0.076 SA
HETATM   19  C   UNL     1      -2.068   5.319 -34.130  1.00  0.00    -0.012 A 
HETATM   20  C   UNL     1      -0.785   5.633 -34.834  1.00  0.00     0.057 C 
HETATM   21  C   UNL     1      -2.276   5.051 -32.786  1.00  0.00    -0.030 A 
HETATM   22  C   UNL     1      -1.195   5.090 -31.746  1.00  0.00     0.050 C 
HETATM   23  C   UNL     1      -3.684   4.776 -32.499  1.00  0.00     0.080 A 
BRANCH  23  24
HETATM   24  C   UNL     1      -4.234   4.548 -31.161  1.00  0.00     0.296 C 
HETATM   25  O   UNL     1      -4.581   5.458 -30.416  1.00  0.00    -0.259 OA
BRANCH  24  26
HETATM   26  O   UNL     1      -4.261   3.229 -30.819  1.00  0.00    -0.322 OA
HETATM   27  C   UNL     1      -5.519   2.786 -30.312  1.00  0.00     0.213 C 
ENDBRANCH  24  26
ENDBRANCH  23  24
ENDBRANCH  14  17
ENDBRANCH  12  13
ENDBRANCH   2  12
BRANCH   1  28
HETATM   28  C   UNL     1      -8.699   0.851 -33.202  1.00  0.00    -0.027 A 
HETATM   29  C   UNL     1      -8.522   0.367 -34.502  1.00  0.00     0.011 A 
HETATM   30  C   UNL     1      -7.542  -0.599 -34.787  1.00  0.00     0.030 A 
HETATM   31  C   UNL     1      -6.698  -1.135 -33.802  1.00  0.00     0.030 A 
HETATM   32  C   UNL     1      -6.968  -0.714 -32.492  1.00  0.00     0.030 A 
HETATM   33  C   UNL     1      -7.923   0.268 -32.199  1.00  0.00     0.011 A 
BRANCH  31  34
HETATM   34  N   UNL     1      -5.657  -2.014 -34.091  1.00  0.00    -0.382 N 
BRANCH  34  35
HETATM   35  C   UNL     1      -4.287  -1.726 -33.628  1.00  0.00     0.118 C 
HETATM   36  C   UNL     1      -3.697  -2.938 -32.927  1.00  0.00     0.026 C 
ENDBRANCH  34  35
BRANCH  34  37
HETATM   37  C   UNL     1      -5.758  -3.016 -35.165  1.00  0.00     0.118 C 
HETATM   38  C   UNL     1      -6.699  -4.148 -34.779  1.00  0.00     0.026 C 
ENDBRANCH  34  37
ENDBRANCH  31  34
ENDBRANCH   1  28
BRANCH   6  39
HETATM   39  O   UNL     1     -12.103   2.972 -31.815  1.00  0.00    -0.389 OA
HETATM   40  H   UNL     1     -13.017   3.246 -31.608  1.00  0.00     0.210 HD
ENDBRANCH   6  39
TORSDOF 10
ENDMDL
MODEL 2
REMARK VINA RESULT:      -8.8      1.927      2.595
REMARK  10 active torsions:
REMARK  status: ('A' for Active; 'I' for Inactive)
REMARK    1  A    between atoms: C_2  and  N_3 
REMARK    2  A    between atoms: N_3  and  C_4 
REMARK    3  A    between atoms: N_3  and  C_37 
REMARK    4  A    between atoms: C_7  and  C_8 
REMARK    5  A    between atoms: N_9  and  C_11 
REMARK    6  A    between atoms: C_11  and  C_12 
REMARK       I    between atoms: C_12  and  N_13 
REMARK    7  A    between atoms: N_13  and  C_14 
REMARK    8  A    between atoms: C_20  and  C_21 
REMARK    9  A    between atoms: C_21  and  O_22 
REMARK   10  A    between atoms: C_28  and  O_29 
ROOT
HETATM    1  C   UNL     1      -8.081   2.039 -32.702  1.00  0.00     0.228 C 
HETATM    2  N   UNL     1      -7.411   3.414 -32.751  1.00  0.00    -0.054 N 
HETATM    3  H   UNL     1      -6.707   3.314 -32.010  1.00  0.00     0.281 HD
HETATM    4  C   UNL     1      -8.293   4.526 -32.239  1.00  0.00     0.239 C 
HETATM    5  C   UNL     1      -9.700   4.520 -32.812  1.00  0.00     0.066 C 
HETATM    6  C   UNL     1     -10.361   3.146 -32.719  1.00  0.00     0.065 C 
HETATM    7  C   UNL     1      -9.477   2.058 -33.366  1.00  0.00     0.055 C 
HETATM    8  C   UNL     1     -11.759   3.169 -33.365  1.00  0.00     0.038 C 
HETATM    9  C   UNL     1     -12.443   1.804 -33.300  1.00  0.00     0.003 C 
HETATM   10  C   UNL     1     -11.569   0.711 -33.898  1.00  0.00     0.001 C 
HETATM   11  C   UNL     1     -10.181   0.683 -33.265  1.00  0.00     0.010 C 
ENDROOT
BRANCH   2  12
HETATM   12  C   UNL     1      -6.532   3.785 -33.951  1.00  0.00     0.338 C 
BRANCH  12  13
HETATM   13  C   UNL     1      -5.460   4.868 -33.797  1.00  0.00     0.248 C 
HETATM   14  N   UNL     1      -5.205   5.171 -32.473  1.00  0.00    -0.319 N 
HETATM   15  H   UNL     1      -5.912   4.998 -31.766  1.00  0.00     0.169 HD
HETATM   16  O   UNL     1      -4.960   5.434 -34.762  1.00  0.00    -0.271 OA
BRANCH  14  17
HETATM   17  C   UNL     1      -4.175   5.986 -32.046  1.00  0.00     0.094 A 
HETATM   18  S   UNL     1      -4.784   7.458 -31.455  1.00  0.00    -0.076 SA
HETATM   19  C   UNL     1      -3.222   8.072 -31.163  1.00  0.00    -0.012 A 
HETATM   20  C   UNL     1      -3.070   9.461 -30.629  1.00  0.00     0.057 C 
HETATM   21  C   UNL     1      -2.237   7.130 -31.422  1.00  0.00    -0.030 A 
HETATM   22  C   UNL     1      -0.779   7.341 -31.138  1.00  0.00     0.050 C 
HETATM   23  C   UNL     1      -2.800   5.890 -31.956  1.00  0.00     0.080 A 
BRANCH  23  24
HETATM   24  C   UNL     1      -2.029   4.678 -32.242  1.00  0.00     0.296 C 
HETATM   25  O   UNL     1      -1.366   4.090 -31.395  1.00  0.00    -0.259 OA
BRANCH  24  26
HETATM   26  O   UNL     1      -2.082   4.317 -33.555  1.00  0.00    -0.322 OA
HETATM   27  C   UNL     1      -1.469   5.254 -34.441  1.00  0.00     0.213 C 
ENDBRANCH  24  26
ENDBRANCH  23  24
ENDBRANCH  14  17
ENDBRANCH  12  13
ENDBRANCH   2  12
BRANCH   1  28
HETATM   28  C   UNL     1      -7.177   0.889 -33.112  1.00  0.00    -0.027 A 
HETATM   29  C   UNL     1      -6.399   0.229 -32.155  1.00  0.00     0.011 A 
HETATM   30  C   UNL     1      -5.706  -0.951 -32.477  1.00  0.00     0.030 A 
HETATM   31  C   UNL     1      -5.743  -1.527 -33.755  1.00  0.00     0.030 A 
HETATM   32  C   UNL     1      -6.440  -0.789 -34.722  1.00  0.00     0.030 A 
HETATM   33  C   UNL     1      -7.158   0.373 -34.408  1.00  0.00     0.011 A 
BRANCH  31  34
HETATM   34  N   UNL     1      -5.144  -2.748 -34.055  1.00  0.00    -0.382 N 
BRANCH  34  35
HETATM   35  C   UNL     1      -3.808  -3.074 -33.520  1.00  0.00     0.118 C 
HETATM   36  C   UNL     1      -3.593  -4.579 -33.511  1.00  0.00     0.026 C 
ENDBRANCH  34  35
BRANCH  34  37
HETATM   37  C   UNL     1      -5.583  -3.575 -35.191  1.00  0.00     0.118 C 
HETATM   38  C   UNL     1      -6.869  -4.320 -34.869  1.00  0.00     0.026 C 
ENDBRANCH  34  37
ENDBRANCH  31  34
ENDBRANCH   1  28
BRANCH   6  39
HETATM   39  O   UNL     1     -10.484   2.852 -31.318  1.00  0.00    -0.389 OA
HETATM   40  H   UNL     1     -11.155   3.446 -30.929  1.00  0.00     0.210 HD
ENDBRANCH   6  39
TORSDOF 10
ENDMDL
MODEL 3
REMARK VINA RESULT:      -8.7      2.343      6.546
REMARK  10 active torsions:
REMARK  status: ('A' for Active; 'I' for Inactive)
REMARK    1  A    between atoms: C_2  and  N_3 
REMARK    2  A    between atoms: N_3  and  C_4 
REMARK    3  A    between atoms: N_3  and  C_37 
REMARK    4  A    between atoms: C_7  and  C_8 
REMARK    5  A    between atoms: N_9  and  C_11 
REMARK    6  A    between atoms: C_11  and  C_12 
REMARK       I    between atoms: C_12  and  N_13 
REMARK    7  A    between atoms: N_13  and  C_14 
REMARK    8  A    between atoms: C_20  and  C_21 
REMARK    9  A    between atoms: C_21  and  O_22 
REMARK   10  A    between atoms: C_28  and  O_29 
ROOT
HETATM    1  C   UNL     1      -5.999  -0.655 -33.795  1.00  0.00     0.228 C 
HETATM    2  N   UNL     1      -5.056   0.000 -32.783  1.00  0.00    -0.054 N 
HETATM    3  H   UNL     1      -4.966   0.942 -33.182  1.00  0.00     0.281 HD
HETATM    4  C   UNL     1      -3.648  -0.535 -32.846  1.00  0.00     0.239 C 
HETATM    5  C   UNL     1      -3.557  -2.053 -32.861  1.00  0.00     0.066 C 
HETATM    6  C   UNL     1      -4.479  -2.681 -33.903  1.00  0.00     0.065 C 
HETATM    7  C   UNL     1      -5.934  -2.198 -33.721  1.00  0.00     0.055 C 
HETATM    8  C   UNL     1      -4.403  -4.218 -33.842  1.00  0.00     0.038 C 
HETATM    9  C   UNL     1      -5.326  -4.879 -34.865  1.00  0.00     0.003 C 
HETATM   10  C   UNL     1      -6.759  -4.385 -34.727  1.00  0.00     0.001 C 
HETATM   11  C   UNL     1      -6.843  -2.863 -34.784  1.00  0.00     0.010 C 
ENDROOT
BRANCH   2  12
HETATM   12  C   UNL     1      -5.565   0.320 -31.373  1.00  0.00     0.338 C 
BRANCH  12  13
HETATM   13  C   UNL     1      -6.252   1.662 -31.103  1.00  0.00     0.248 C 
HETATM   14  N   UNL     1      -5.396   2.735 -31.272  1.00  0.00    -0.319 N 
HETATM   15  H   UNL     1      -4.394   2.605 -31.178  1.00  0.00     0.169 HD
HETATM   16  O   UNL     1      -7.410   1.736 -30.711  1.00  0.00    -0.271 OA
BRANCH  14  17
HETATM   17  C   UNL     1      -5.793   4.057 -31.255  1.00  0.00     0.094 A 
HETATM   18  S   UNL     1      -5.545   4.736 -29.717  1.00  0.00    -0.076 SA
HETATM   19  C   UNL     1      -6.224   6.227 -30.185  1.00  0.00    -0.012 A 
HETATM   20  C   UNL     1      -6.337   7.327 -29.177  1.00  0.00     0.057 C 
HETATM   21  C   UNL     1      -6.552   6.248 -31.532  1.00  0.00    -0.030 A 
HETATM   22  C   UNL     1      -7.050   7.464 -32.255  1.00  0.00     0.050 C 
HETATM   23  C   UNL     1      -6.306   4.955 -32.171  1.00  0.00     0.080 A 
BRANCH  23  24
HETATM   24  C   UNL     1      -6.468   4.687 -33.601  1.00  0.00     0.296 C 
HETATM   25  O   UNL     1      -7.507   4.912 -34.212  1.00  0.00    -0.259 OA
BRANCH  24  26
HETATM   26  O   UNL     1      -5.365   4.109 -34.157  1.00  0.00    -0.322 OA
HETATM   27  C   UNL     1      -4.393   5.044 -34.623  1.00  0.00     0.213 C 
ENDBRANCH  24  26
ENDBRANCH  23  24
ENDBRANCH  14  17
ENDBRANCH  12  13
ENDBRANCH   2  12
BRANCH   1  28
HETATM   28  C   UNL     1      -7.396  -0.059 -33.823  1.00  0.00    -0.027 A 
HETATM   29  C   UNL     1      -8.418  -0.625 -33.054  1.00  0.00     0.011 A 
HETATM   30  C   UNL     1      -9.661   0.018 -32.917  1.00  0.00     0.030 A 
HETATM   31  C   UNL     1      -9.952   1.243 -33.537  1.00  0.00     0.030 A 
HETATM   32  C   UNL     1      -8.951   1.733 -34.388  1.00  0.00     0.030 A 
HETATM   33  C   UNL     1      -7.699   1.116 -34.511  1.00  0.00     0.011 A 
BRANCH  31  34
HETATM   34  N   UNL     1     -11.141   1.937 -33.326  1.00  0.00    -0.382 N 
BRANCH  34  35
HETATM   35  C   UNL     1     -12.436   1.318 -33.668  1.00  0.00     0.118 C 
HETATM   36  C   UNL     1     -12.764   1.549 -35.134  1.00  0.00     0.026 C 
ENDBRANCH  34  35
BRANCH  34  37
HETATM   37  C   UNL     1     -11.171   3.398 -33.151  1.00  0.00     0.118 C 
HETATM   38  C   UNL     1     -10.614   3.804 -31.795  1.00  0.00     0.026 C 
ENDBRANCH  34  37
ENDBRANCH  31  34
ENDBRANCH   1  28
BRANCH   6  39
HETATM   39  O   UNL     1      -4.011  -2.227 -35.182  1.00  0.00    -0.389 OA
HETATM   40  H   UNL     1      -3.144  -2.638 -35.366  1.00  0.00     0.210 HD
ENDBRANCH   6  39
TORSDOF 10
ENDMDL
MODEL 4
REMARK VINA RESULT:      -8.4      2.151      6.331
REMARK  10 active torsions:
REMARK  status: ('A' for Active; 'I' for Inactive)
REMARK    1  A    between atoms: C_2  and  N_3 
REMARK    2  A    between atoms: N_3  and  C_4 
REMARK    3  A    between atoms: N_3  and  C_37 
REMARK    4  A    between atoms: C_7  and  C_8 
REMARK    5  A    between atoms: N_9  and  C_11 
REMARK    6  A    between atoms: C_11  and  C_12 
REMARK       I    between atoms: C_12  and  N_13 
REMARK    7  A    between atoms: N_13  and  C_14 
REMARK    8  A    between atoms: C_20  and  C_21 
REMARK    9  A    between atoms: C_21  and  O_22 
REMARK   10  A    between atoms: C_28  and  O_29 
ROOT
HETATM    1  C   UNL     1      -5.668  -0.866 -33.841  1.00  0.00     0.228 C 
HETATM    2  N   UNL     1      -4.753  -0.339 -32.733  1.00  0.00    -0.054 N 
HETATM    3  H   UNL     1      -4.520   0.591 -33.099  1.00  0.00     0.281 HD
HETATM    4  C   UNL     1      -3.416  -1.034 -32.682  1.00  0.00     0.239 C 
HETATM    5  C   UNL     1      -3.499  -2.551 -32.725  1.00  0.00     0.066 C 
HETATM    6  C   UNL     1      -4.388  -3.053 -33.861  1.00  0.00     0.065 C 
HETATM    7  C   UNL     1      -5.788  -2.406 -33.799  1.00  0.00     0.055 C 
HETATM    8  C   UNL     1      -4.494  -4.590 -33.831  1.00  0.00     0.038 C 
HETATM    9  C   UNL     1      -5.389  -5.125 -34.948  1.00  0.00     0.003 C 
HETATM   10  C   UNL     1      -6.762  -4.469 -34.928  1.00  0.00     0.001 C 
HETATM   11  C   UNL     1      -6.666  -2.946 -34.955  1.00  0.00     0.010 C 
ENDROOT
BRANCH   2  12
HETATM   12  C   UNL     1      -5.350   0.019 -31.367  1.00  0.00     0.338 C 
BRANCH  12  13
HETATM   13  C   UNL     1      -5.232   1.453 -30.842  1.00  0.00     0.248 C 
HETATM   14  N   UNL     1      -4.672   2.309 -31.773  1.00  0.00    -0.319 N 
HETATM   15  H   UNL     1      -4.070   1.942 -32.502  1.00  0.00     0.169 HD
HETATM   16  O   UNL     1      -5.540   1.758 -29.696  1.00  0.00    -0.271 OA
BRANCH  14  17
HETATM   17  C   UNL     1      -4.602   3.680 -31.626  1.00  0.00     0.094 A 
HETATM   18  S   UNL     1      -2.983   4.195 -31.578  1.00  0.00    -0.076 SA
HETATM   19  C   UNL     1      -3.430   5.819 -31.321  1.00  0.00    -0.012 A 
HETATM   20  C   UNL     1      -2.362   6.851 -31.144  1.00  0.00     0.057 C 
HETATM   21  C   UNL     1      -4.805   5.992 -31.366  1.00  0.00    -0.030 A 
HETATM   22  C   UNL     1      -5.484   7.328 -31.299  1.00  0.00     0.050 C 
HETATM   23  C   UNL     1      -5.507   4.720 -31.538  1.00  0.00     0.080 A 
BRANCH  23  24
HETATM   24  C   UNL     1      -6.955   4.583 -31.712  1.00  0.00     0.296 C 
HETATM   25  O   UNL     1      -7.523   4.790 -32.779  1.00  0.00    -0.259 OA
BRANCH  24  26
HETATM   26  O   UNL     1      -7.597   4.260 -30.555  1.00  0.00    -0.322 OA
HETATM   27  C   UNL     1      -8.585   3.240 -30.704  1.00  0.00     0.213 C 
ENDBRANCH  24  26
ENDBRANCH  23  24
ENDBRANCH  14  17
ENDBRANCH  12  13
ENDBRANCH   2  12
BRANCH   1  28
HETATM   28  C   UNL     1      -6.979  -0.111 -33.980  1.00  0.00    -0.027 A 
HETATM   29  C   UNL     1      -8.133  -0.581 -33.345  1.00  0.00     0.011 A 
HETATM   30  C   UNL     1      -9.303   0.197 -33.303  1.00  0.00     0.030 A 
HETATM   31  C   UNL     1      -9.389   1.469 -33.890  1.00  0.00     0.030 A 
HETATM   32  C   UNL     1      -8.255   1.870 -34.612  1.00  0.00     0.030 A 
HETATM   33  C   UNL     1      -7.074   1.116 -34.638  1.00  0.00     0.011 A 
BRANCH  31  34
HETATM   34  N   UNL     1     -10.508   2.288 -33.766  1.00  0.00    -0.382 N 
BRANCH  34  35
HETATM   35  C   UNL     1     -11.858   1.699 -33.687  1.00  0.00     0.118 C 
HETATM   36  C   UNL     1     -12.439   1.514 -35.079  1.00  0.00     0.026 C 
ENDBRANCH  34  35
BRANCH  34  37
HETATM   37  C   UNL     1     -10.467   3.720 -34.104  1.00  0.00     0.118 C 
HETATM   38  C   UNL     1     -11.246   4.549 -33.093  1.00  0.00     0.026 C 
ENDBRANCH  34  37
ENDBRANCH  31  34
ENDBRANCH   1  28
BRANCH   6  39
HETATM   39  O   UNL     1      -3.754  -2.640 -35.081  1.00  0.00    -0.389 OA
HETATM   40  H   UNL     1      -3.285  -3.404 -35.468  1.00  0.00     0.210 HD
ENDBRANCH   6  39
TORSDOF 10
ENDMDL
MODEL 5
REMARK VINA RESULT:      -8.3      1.836      2.616
REMARK  10 active torsions:
REMARK  status: ('A' for Active; 'I' for Inactive)
REMARK    1  A    between atoms: C_2  and  N_3 
REMARK    2  A    between atoms: N_3  and  C_4 
REMARK    3  A    between atoms: N_3  and  C_37 
REMARK    4  A    between atoms: C_7  and  C_8 
REMARK    5  A    between atoms: N_9  and  C_11 
REMARK    6  A    between atoms: C_11  and  C_12 
REMARK       I    between atoms: C_12  and  N_13 
REMARK    7  A    between atoms: N_13  and  C_14 
REMARK    8  A    between atoms: C_20  and  C_21 
REMARK    9  A    between atoms: C_21  and  O_22 
REMARK   10  A    between atoms: C_28  and  O_29 
ROOT
HETATM    1  C   UNL     1      -7.990   1.925 -32.688  1.00  0.00     0.228 C 
HETATM    2  N   UNL     1      -7.308   3.292 -32.594  1.00  0.00    -0.054 N 
HETATM    3  H   UNL     1      -6.635   3.123 -31.839  1.00  0.00     0.281 HD
HETATM    4  C   UNL     1      -8.201   4.366 -32.024  1.00  0.00     0.239 C 
HETATM    5  C   UNL     1      -9.585   4.423 -32.649  1.00  0.00     0.066 C 
HETATM    6  C   UNL     1     -10.259   3.054 -32.698  1.00  0.00     0.065 C 
HETATM    7  C   UNL     1      -9.358   2.015 -33.401  1.00  0.00     0.055 C 
HETATM    8  C   UNL     1     -11.631   3.146 -33.393  1.00  0.00     0.038 C 
HETATM    9  C   UNL     1     -12.327   1.788 -33.471  1.00  0.00     0.003 C 
HETATM   10  C   UNL     1     -11.438   0.740 -34.125  1.00  0.00     0.001 C 
HETATM   11  C   UNL     1     -10.076   0.644 -33.445  1.00  0.00     0.010 C 
ENDROOT
BRANCH   2  12
HETATM   12  C   UNL     1      -6.381   3.753 -33.724  1.00  0.00     0.338 C 
BRANCH  12  13
HETATM   13  C   UNL     1      -5.244   4.733 -33.416  1.00  0.00     0.248 C 
HETATM   14  N   UNL     1      -4.765   4.594 -32.127  1.00  0.00    -0.319 N 
HETATM   15  H   UNL     1      -5.358   4.201 -31.404  1.00  0.00     0.169 HD
HETATM   16  O   UNL     1      -4.875   5.580 -34.221  1.00  0.00    -0.271 OA
BRANCH  14  17
HETATM   17  C   UNL     1      -3.640   5.231 -31.642  1.00  0.00     0.094 A 
HETATM   18  S   UNL     1      -2.234   4.392 -32.098  1.00  0.00    -0.076 SA
HETATM   19  C   UNL     1      -1.226   5.467 -31.242  1.00  0.00    -0.012 A 
HETATM   20  C   UNL     1       0.250   5.225 -31.222  1.00  0.00     0.057 C 
HETATM   21  C   UNL     1      -1.941   6.519 -30.689  1.00  0.00    -0.030 A 
HETATM   22  C   UNL     1      -1.308   7.684 -29.987  1.00  0.00     0.050 C 
HETATM   23  C   UNL     1      -3.379   6.378 -30.916  1.00  0.00     0.080 A 
BRANCH  23  24
HETATM   24  C   UNL     1      -4.386   7.370 -30.534  1.00  0.00     0.296 C 
HETATM   25  O   UNL     1      -4.584   7.709 -29.373  1.00  0.00    -0.259 OA
BRANCH  24  26
HETATM   26  O   UNL     1      -5.109   7.823 -31.596  1.00  0.00    -0.322 OA
HETATM   27  C   UNL     1      -6.522   7.731 -31.419  1.00  0.00     0.213 C 
ENDBRANCH  24  26
ENDBRANCH  23  24
ENDBRANCH  14  17
ENDBRANCH  12  13
ENDBRANCH   2  12
BRANCH   1  28
HETATM   28  C   UNL     1      -7.079   0.804 -33.160  1.00  0.00    -0.027 A 
HETATM   29  C   UNL     1      -6.257   0.134 -32.248  1.00  0.00     0.011 A 
HETATM   30  C   UNL     1      -5.553  -1.023 -32.624  1.00  0.00     0.030 A 
HETATM   31  C   UNL     1      -5.623  -1.566 -33.916  1.00  0.00     0.030 A 
HETATM   32  C   UNL     1      -6.366  -0.816 -34.838  1.00  0.00     0.030 A 
HETATM   33  C   UNL     1      -7.095   0.323 -34.469  1.00  0.00     0.011 A 
BRANCH  31  34
HETATM   34  N   UNL     1      -5.012  -2.766 -34.268  1.00  0.00    -0.382 N 
BRANCH  34  35
HETATM   35  C   UNL     1      -5.685  -3.704 -35.187  1.00  0.00     0.118 C 
HETATM   36  C   UNL     1      -7.006  -4.169 -34.596  1.00  0.00     0.026 C 
ENDBRANCH  34  35
BRANCH  34  37
HETATM   37  C   UNL     1      -3.912  -3.344 -33.478  1.00  0.00     0.118 C 
HETATM   38  C   UNL     1      -3.671  -4.800 -33.846  1.00  0.00     0.026 C 
ENDBRANCH  34  37
ENDBRANCH  31  34
ENDBRANCH   1  28
BRANCH   6  39
HETATM   39  O   UNL     1     -10.439   2.644 -31.334  1.00  0.00    -0.389 OA
HETATM   40  H   UNL     1     -10.638   1.688 -31.315  1.00  0.00     0.210 HD
ENDBRANCH   6  39
TORSDOF 10
ENDMDL
MODEL 6
REMARK VINA RESULT:      -8.3      2.006      2.902
REMARK  10 active torsions:
REMARK  status: ('A' for Active; 'I' for Inactive)
REMARK    1  A    between atoms: C_2  and  N_3 
REMARK    2  A    between atoms: N_3  and  C_4 
REMARK    3  A    between atoms: N_3  and  C_37 
REMARK    4  A    between atoms: C_7  and  C_8 
REMARK    5  A    between atoms: N_9  and  C_11 
REMARK    6  A    between atoms: C_11  and  C_12 
REMARK       I    between atoms: C_12  and  N_13 
REMARK    7  A    between atoms: N_13  and  C_14 
REMARK    8  A    between atoms: C_20  and  C_21 
REMARK    9  A    between atoms: C_21  and  O_22 
REMARK   10  A    between atoms: C_28  and  O_29 
ROOT
HETATM    1  C   UNL     1      -9.032   2.735 -32.963  1.00  0.00     0.228 C 
HETATM    2  N   UNL     1      -8.368   4.080 -32.659  1.00  0.00    -0.054 N 
HETATM    3  H   UNL     1      -7.885   3.864 -31.779  1.00  0.00     0.281 HD
HETATM    4  C   UNL     1      -9.349   5.153 -32.258  1.00  0.00     0.239 C 
HETATM    5  C   UNL     1     -10.555   5.270 -33.176  1.00  0.00     0.066 C 
HETATM    6  C   UNL     1     -11.222   3.920 -33.435  1.00  0.00     0.065 C 
HETATM    7  C   UNL     1     -10.202   2.888 -33.961  1.00  0.00     0.055 C 
HETATM    8  C   UNL     1     -12.399   4.074 -34.416  1.00  0.00     0.038 C 
HETATM    9  C   UNL     1     -13.081   2.738 -34.707  1.00  0.00     0.003 C 
HETATM   10  C   UNL     1     -12.084   1.695 -35.190  1.00  0.00     0.001 C 
HETATM   11  C   UNL     1     -10.913   1.538 -34.225  1.00  0.00     0.010 C 
ENDROOT
BRANCH   2  12
HETATM   12  C   UNL     1      -7.202   4.561 -33.529  1.00  0.00     0.338 C 
BRANCH  12  13
HETATM   13  C   UNL     1      -5.805   4.700 -32.914  1.00  0.00     0.248 C 
HETATM   14  N   UNL     1      -5.436   6.021 -32.740  1.00  0.00    -0.319 N 
HETATM   15  H   UNL     1      -5.855   6.745 -33.314  1.00  0.00     0.169 HD
HETATM   16  O   UNL     1      -5.093   3.730 -32.684  1.00  0.00    -0.271 OA
BRANCH  14  17
HETATM   17  C   UNL     1      -4.307   6.429 -32.059  1.00  0.00     0.094 A 
HETATM   18  S   UNL     1      -4.574   6.395 -30.382  1.00  0.00    -0.076 SA
HETATM   19  C   UNL     1      -3.025   7.019 -30.047  1.00  0.00    -0.012 A 
HETATM   20  C   UNL     1      -2.632   7.276 -28.627  1.00  0.00     0.057 C 
HETATM   21  C   UNL     1      -2.265   7.165 -31.198  1.00  0.00    -0.030 A 
HETATM   22  C   UNL     1      -0.822   7.574 -31.202  1.00  0.00     0.050 C 
HETATM   23  C   UNL     1      -3.027   6.825 -32.399  1.00  0.00     0.080 A 
BRANCH  23  24
HETATM   24  C   UNL     1      -2.476   6.792 -33.755  1.00  0.00     0.296 C 
HETATM   25  O   UNL     1      -1.772   7.684 -34.214  1.00  0.00    -0.259 OA
BRANCH  24  26
HETATM   26  O   UNL     1      -2.879   5.698 -34.462  1.00  0.00    -0.322 OA
HETATM   27  C   UNL     1      -1.806   4.910 -34.976  1.00  0.00     0.213 C 
ENDBRANCH  24  26
ENDBRANCH  23  24
ENDBRANCH  14  17
ENDBRANCH  12  13
ENDBRANCH   2  12
BRANCH   1  28
HETATM   28  C   UNL     1      -8.056   1.611 -33.266  1.00  0.00    -0.027 A 
HETATM   29  C   UNL     1      -7.640   0.746 -32.248  1.00  0.00     0.011 A 
HETATM   30  C   UNL     1      -6.892  -0.407 -32.541  1.00  0.00     0.030 A 
HETATM   31  C   UNL     1      -6.516  -0.756 -33.847  1.00  0.00     0.030 A 
HETATM   32  C   UNL     1      -6.852   0.182 -34.834  1.00  0.00     0.030 A 
HETATM   33  C   UNL     1      -7.620   1.322 -34.559  1.00  0.00     0.011 A 
BRANCH  31  34
HETATM   34  N   UNL     1      -5.865  -1.947 -34.158  1.00  0.00    -0.382 N 
BRANCH  34  35
HETATM   35  C   UNL     1      -6.625  -3.097 -34.682  1.00  0.00     0.118 C 
HETATM   36  C   UNL     1      -5.682  -4.222 -35.076  1.00  0.00     0.026 C 
ENDBRANCH  34  35
BRANCH  34  37
HETATM   37  C   UNL     1      -4.530  -2.267 -33.627  1.00  0.00     0.118 C 
HETATM   38  C   UNL     1      -3.673  -1.018 -33.493  1.00  0.00     0.026 C 
ENDBRANCH  34  37
ENDBRANCH  31  34
ENDBRANCH   1  28
BRANCH   6  39
HETATM   39  O   UNL     1     -11.712   3.462 -32.165  1.00  0.00    -0.389 OA
HETATM   40  H   UNL     1     -12.086   4.222 -31.678  1.00  0.00     0.210 HD
ENDBRANCH   6  39
TORSDOF 10
ENDMDL
MODEL 7
REMARK VINA RESULT:      -7.9      3.354      7.452
REMARK  10 active torsions:
REMARK  status: ('A' for Active; 'I' for Inactive)
REMARK    1  A    between atoms: C_2  and  N_3 
REMARK    2  A    between atoms: N_3  and  C_4 
REMARK    3  A    between atoms: N_3  and  C_37 
REMARK    4  A    between atoms: C_7  and  C_8 
REMARK    5  A    between atoms: N_9  and  C_11 
REMARK    6  A    between atoms: C_11  and  C_12 
REMARK       I    between atoms: C_12  and  N_13 
REMARK    7  A    between atoms: N_13  and  C_14 
REMARK    8  A    between atoms: C_20  and  C_21 
REMARK    9  A    between atoms: C_21  and  O_22 
REMARK   10  A    between atoms: C_28  and  O_29 
ROOT
HETATM    1  C   UNL     1      -8.214   2.594 -34.103  1.00  0.00     0.228 C 
HETATM    2  N   UNL     1      -9.667   2.671 -34.578  1.00  0.00    -0.054 N 
HETATM    3  H   UNL     1      -9.569   2.368 -35.553  1.00  0.00     0.281 HD
HETATM    4  C   UNL     1     -10.179   4.083 -34.707  1.00  0.00     0.239 C 
HETATM    5  C   UNL     1      -9.891   4.964 -33.501  1.00  0.00     0.066 C 
HETATM    6  C   UNL     1      -8.428   4.899 -33.069  1.00  0.00     0.065 C 
HETATM    7  C   UNL     1      -7.984   3.440 -32.830  1.00  0.00     0.055 C 
HETATM    8  C   UNL     1      -8.193   5.755 -31.811  1.00  0.00     0.038 C 
HETATM    9  C   UNL     1      -6.739   5.700 -31.343  1.00  0.00     0.003 C 
HETATM   10  C   UNL     1      -6.271   4.267 -31.139  1.00  0.00     0.001 C 
HETATM   11  C   UNL     1      -6.502   3.411 -32.381  1.00  0.00     0.010 C 
ENDROOT
BRANCH   2  12
HETATM   12  C   UNL     1     -10.689   1.657 -34.051  1.00  0.00     0.338 C 
BRANCH  12  13
HETATM   13  C   UNL     1     -12.168   2.047 -33.970  1.00  0.00     0.248 C 
HETATM   14  N   UNL     1     -12.518   2.525 -32.721  1.00  0.00    -0.319 N 
HETATM   15  H   UNL     1     -11.978   2.258 -31.905  1.00  0.00     0.169 HD
HETATM   16  O   UNL     1     -12.943   1.872 -34.903  1.00  0.00    -0.271 OA
BRANCH  14  17
HETATM   17  C   UNL     1     -13.738   3.098 -32.421  1.00  0.00     0.094 A 
HETATM   18  S   UNL     1     -14.960   1.917 -32.381  1.00  0.00    -0.076 SA
HETATM   19  C   UNL     1     -16.172   3.076 -32.077  1.00  0.00    -0.012 A 
HETATM   20  C   UNL     1     -17.596   2.631 -31.964  1.00  0.00     0.057 C 
HETATM   21  C   UNL     1     -15.644   4.347 -31.910  1.00  0.00    -0.030 A 
HETATM   22  C   UNL     1     -16.454   5.545 -31.509  1.00  0.00     0.050 C 
HETATM   23  C   UNL     1     -14.197   4.367 -32.123  1.00  0.00     0.080 A 
BRANCH  23  24
HETATM   24  C   UNL     1     -13.341   5.539 -31.931  1.00  0.00     0.296 C 
HETATM   25  O   UNL     1     -12.894   5.870 -30.838  1.00  0.00    -0.259 OA
BRANCH  24  26
HETATM   26  O   UNL     1     -13.148   6.246 -33.080  1.00  0.00    -0.322 OA
HETATM   27  C   UNL     1     -13.312   7.655 -32.930  1.00  0.00     0.213 C 
ENDBRANCH  24  26
ENDBRANCH  23  24
ENDBRANCH  14  17
ENDBRANCH  12  13
ENDBRANCH   2  12
BRANCH   1  28
HETATM   28  C   UNL     1      -7.643   1.187 -34.066  1.00  0.00    -0.027 A 
HETATM   29  C   UNL     1      -7.313   0.530 -35.256  1.00  0.00     0.011 A 
HETATM   30  C   UNL     1      -6.611  -0.688 -35.239  1.00  0.00     0.030 A 
HETATM   31  C   UNL     1      -6.210  -1.314 -34.049  1.00  0.00     0.030 A 
HETATM   32  C   UNL     1      -6.647  -0.692 -32.871  1.00  0.00     0.030 A 
HETATM   33  C   UNL     1      -7.323   0.536 -32.875  1.00  0.00     0.011 A 
BRANCH  31  34
HETATM   34  N   UNL     1      -5.427  -2.465 -34.025  1.00  0.00    -0.382 N 
BRANCH  34  35
HETATM   35  C   UNL     1      -4.178  -2.501 -33.240  1.00  0.00     0.118 C 
HETATM   36  C   UNL     1      -3.602  -3.907 -33.223  1.00  0.00     0.026 C 
ENDBRANCH  34  35
BRANCH  34  37
HETATM   37  C   UNL     1      -5.557  -3.519 -35.044  1.00  0.00     0.118 C 
HETATM   38  C   UNL     1      -6.836  -4.320 -34.852  1.00  0.00     0.026 C 
ENDBRANCH  34  37
ENDBRANCH  31  34
ENDBRANCH   1  28
BRANCH   6  39
HETATM   39  O   UNL     1      -7.661   5.429 -34.161  1.00  0.00    -0.389 OA
HETATM   40  H   UNL     1      -7.449   4.704 -34.780  1.00  0.00     0.210 HD
ENDBRANCH   6  39
TORSDOF 10
ENDMDL
MODEL 8
REMARK VINA RESULT:      -7.6      2.248      3.010
REMARK  10 active torsions:
REMARK  status: ('A' for Active; 'I' for Inactive)
REMARK    1  A    between atoms: C_2  and  N_3 
REMARK    2  A    between atoms: N_3  and  C_4 
REMARK    3  A    between atoms: N_3  and  C_37 
REMARK    4  A    between atoms: C_7  and  C_8 
REMARK    5  A    between atoms: N_9  and  C_11 
REMARK    6  A    between atoms: C_11  and  C_12 
REMARK       I    between atoms: C_12  and  N_13 
REMARK    7  A    between atoms: N_13  and  C_14 
REMARK    8  A    between atoms: C_20  and  C_21 
REMARK    9  A    between atoms: C_21  and  O_22 
REMARK   10  A    between atoms: C_28  and  O_29 
ROOT
HETATM    1  C   UNL     1      -8.165   2.526 -31.787  1.00  0.00     0.228 C 
HETATM    2  N   UNL     1      -7.623   3.901 -31.386  1.00  0.00    -0.054 N 
HETATM    3  H   UNL     1      -7.186   3.682 -30.483  1.00  0.00     0.281 HD
HETATM    4  C   UNL     1      -8.705   4.883 -31.015  1.00  0.00     0.239 C 
HETATM    5  C   UNL     1      -9.852   4.954 -32.010  1.00  0.00     0.066 C 
HETATM    6  C   UNL     1     -10.399   3.573 -32.366  1.00  0.00     0.065 C 
HETATM    7  C   UNL     1      -9.273   2.639 -32.858  1.00  0.00     0.055 C 
HETATM    8  C   UNL     1     -11.516   3.685 -33.420  1.00  0.00     0.038 C 
HETATM    9  C   UNL     1     -12.077   2.318 -33.810  1.00  0.00     0.003 C 
HETATM   10  C   UNL     1     -10.975   1.369 -34.260  1.00  0.00     0.001 C 
HETATM   11  C   UNL     1      -9.863   1.255 -33.222  1.00  0.00     0.010 C 
ENDROOT
BRANCH   2  12
HETATM   12  C   UNL     1      -6.440   4.500 -32.153  1.00  0.00     0.338 C 
BRANCH  12  13
HETATM   13  C   UNL     1      -5.079   4.634 -31.462  1.00  0.00     0.248 C 
HETATM   14  N   UNL     1      -4.478   5.853 -31.715  1.00  0.00    -0.319 N 
HETATM   15  H   UNL     1      -4.721   6.375 -32.551  1.00  0.00     0.169 HD
HETATM   16  O   UNL     1      -4.576   3.716 -30.825  1.00  0.00    -0.271 OA
BRANCH  14  17
HETATM   17  C   UNL     1      -3.333   6.301 -31.089  1.00  0.00     0.094 A 
HETATM   18  S   UNL     1      -1.981   6.101 -32.099  1.00  0.00    -0.076 SA
HETATM   19  C   UNL     1      -0.912   6.684 -30.908  1.00  0.00    -0.012 A 
HETATM   20  C   UNL     1       0.555   6.725 -31.199  1.00  0.00     0.057 C 
HETATM   21  C   UNL     1      -1.584   7.121 -29.776  1.00  0.00    -0.030 A 
HETATM   22  C   UNL     1      -0.918   7.799 -28.615  1.00  0.00     0.050 C 
HETATM   23  C   UNL     1      -3.024   6.886 -29.875  1.00  0.00     0.080 A 
BRANCH  23  24
HETATM   24  C   UNL     1      -4.011   7.319 -28.884  1.00  0.00     0.296 C 
HETATM   25  O   UNL     1      -4.524   6.555 -28.073  1.00  0.00    -0.259 OA
BRANCH  24  26
HETATM   26  O   UNL     1      -4.334   8.637 -29.001  1.00  0.00    -0.322 OA
HETATM   27  C   UNL     1      -4.273   9.362 -27.773  1.00  0.00     0.213 C 
ENDBRANCH  24  26
ENDBRANCH  23  24
ENDBRANCH  14  17
ENDBRANCH  12  13
ENDBRANCH   2  12
BRANCH   1  28
HETATM   28  C   UNL     1      -7.090   1.488 -32.063  1.00  0.00    -0.027 A 
HETATM   29  C   UNL     1      -6.798   0.506 -31.110  1.00  0.00     0.011 A 
HETATM   30  C   UNL     1      -5.949  -0.570 -31.419  1.00  0.00     0.030 A 
HETATM   31  C   UNL     1      -5.346  -0.723 -32.677  1.00  0.00     0.030 A 
HETATM   32  C   UNL     1      -5.568   0.330 -33.576  1.00  0.00     0.030 A 
HETATM   33  C   UNL     1      -6.434   1.394 -33.290  1.00  0.00     0.011 A 
BRANCH  31  34
HETATM   34  N   UNL     1      -4.587  -1.838 -33.024  1.00  0.00    -0.382 N 
BRANCH  34  35
HETATM   35  C   UNL     1      -3.429  -2.237 -32.201  1.00  0.00     0.118 C 
HETATM   36  C   UNL     1      -2.600  -1.020 -31.825  1.00  0.00     0.026 C 
ENDBRANCH  34  35
BRANCH  34  37
HETATM   37  C   UNL     1      -4.623  -2.415 -34.377  1.00  0.00     0.118 C 
HETATM   38  C   UNL     1      -5.960  -3.084 -34.658  1.00  0.00     0.026 C 
ENDBRANCH  34  37
ENDBRANCH  31  34
ENDBRANCH   1  28
BRANCH   6  39
HETATM   39  O   UNL     1     -10.938   3.027 -31.152  1.00  0.00    -0.389 OA
HETATM   40  H   UNL     1     -11.630   2.376 -31.378  1.00  0.00     0.210 HD
ENDBRANCH   6  39
TORSDOF 10
ENDMDL
MODEL 9
REMARK VINA RESULT:      -7.5      4.377     10.037
REMARK  10 active torsions:
REMARK  status: ('A' for Active; 'I' for Inactive)
REMARK    1  A    between atoms: C_2  and  N_3 
REMARK    2  A    between atoms: N_3  and  C_4 
REMARK    3  A    between atoms: N_3  and  C_37 
REMARK    4  A    between atoms: C_7  and  C_8 
REMARK    5  A    between atoms: N_9  and  C_11 
REMARK    6  A    between atoms: C_11  and  C_12 
REMARK       I    between atoms: C_12  and  N_13 
REMARK    7  A    between atoms: N_13  and  C_14 
REMARK    8  A    between atoms: C_20  and  C_21 
REMARK    9  A    between atoms: C_21  and  O_22 
REMARK   10  A    between atoms: C_28  and  O_29 
ROOT
HETATM    1  C   UNL     1      -2.129   7.113 -28.059  1.00  0.00     0.228 C 
HETATM    2  N   UNL     1      -1.427   6.234 -29.098  1.00  0.00    -0.054 N 
HETATM    3  H   UNL     1      -1.797   5.309 -28.854  1.00  0.00     0.281 HD
HETATM    4  C   UNL     1       0.054   6.088 -28.852  1.00  0.00     0.239 C 
HETATM    5  C   UNL     1       0.775   7.398 -28.584  1.00  0.00     0.066 C 
HETATM    6  C   UNL     1       0.076   8.239 -27.518  1.00  0.00     0.065 C 
HETATM    7  C   UNL     1      -1.409   8.468 -27.875  1.00  0.00     0.055 C 
HETATM    8  C   UNL     1       0.803   9.583 -27.321  1.00  0.00     0.038 C 
HETATM    9  C   UNL     1       0.120  10.456 -26.270  1.00  0.00     0.003 C 
HETATM   10  C   UNL     1      -1.355  10.659 -26.584  1.00  0.00     0.001 C 
HETATM   11  C   UNL     1      -2.083   9.333 -26.783  1.00  0.00     0.010 C 
ENDROOT
BRANCH   2  12
HETATM   12  C   UNL     1      -1.831   6.338 -30.573  1.00  0.00     0.338 C 
BRANCH  12  13
HETATM   13  C   UNL     1      -2.321   5.089 -31.313  1.00  0.00     0.248 C 
HETATM   14  N   UNL     1      -3.655   4.821 -31.065  1.00  0.00    -0.319 N 
HETATM   15  H   UNL     1      -4.092   5.159 -30.214  1.00  0.00     0.169 HD
HETATM   16  O   UNL     1      -1.571   4.389 -31.981  1.00  0.00    -0.271 OA
BRANCH  14  17
HETATM   17  C   UNL     1      -4.391   3.859 -31.728  1.00  0.00     0.094 A 
HETATM   18  S   UNL     1      -4.411   2.408 -30.845  1.00  0.00    -0.076 SA
HETATM   19  C   UNL     1      -5.306   1.601 -32.049  1.00  0.00    -0.012 A 
HETATM   20  C   UNL     1      -5.643   0.155 -31.865  1.00  0.00     0.057 C 
HETATM   21  C   UNL     1      -5.676   2.453 -33.079  1.00  0.00    -0.030 A 
HETATM   22  C   UNL     1      -6.573   2.057 -34.214  1.00  0.00     0.050 C 
HETATM   23  C   UNL     1      -5.125   3.796 -32.897  1.00  0.00     0.080 A 
BRANCH  23  24
HETATM   24  C   UNL     1      -5.410   4.940 -33.765  1.00  0.00     0.296 C 
HETATM   25  O   UNL     1      -6.168   5.850 -33.448  1.00  0.00    -0.259 OA
BRANCH  24  26
HETATM   26  O   UNL     1      -4.790   4.851 -34.976  1.00  0.00    -0.322 OA
HETATM   27  C   UNL     1      -3.450   5.342 -34.979  1.00  0.00     0.213 C 
ENDBRANCH  24  26
ENDBRANCH  23  24
ENDBRANCH  14  17
ENDBRANCH  12  13
ENDBRANCH   2  12
BRANCH   1  28
HETATM   28  C   UNL     1      -3.637   7.190 -28.224  1.00  0.00    -0.027 A 
HETATM   29  C   UNL     1      -4.195   7.969 -29.244  1.00  0.00     0.011 A 
HETATM   30  C   UNL     1      -5.569   7.905 -29.533  1.00  0.00     0.030 A 
HETATM   31  C   UNL     1      -6.454   7.077 -28.826  1.00  0.00     0.030 A 
HETATM   32  C   UNL     1      -5.890   6.390 -27.742  1.00  0.00     0.030 A 
HETATM   33  C   UNL     1      -4.518   6.424 -27.461  1.00  0.00     0.011 A 
BRANCH  31  34
HETATM   34  N   UNL     1      -7.795   6.931 -29.171  1.00  0.00    -0.382 N 
BRANCH  34  35
HETATM   35  C   UNL     1      -8.733   8.058 -29.012  1.00  0.00     0.118 C 
HETATM   36  C   UNL     1      -9.218   8.146 -27.574  1.00  0.00     0.026 C 
ENDBRANCH  34  35
BRANCH  34  37
HETATM   37  C   UNL     1      -8.424   5.607 -29.315  1.00  0.00     0.118 C 
HETATM   38  C   UNL     1      -7.815   4.828 -30.471  1.00  0.00     0.026 C 
ENDBRANCH  34  37
ENDBRANCH  31  34
ENDBRANCH   1  28
BRANCH   6  39
HETATM   39  O   UNL     1       0.135   7.479 -26.302  1.00  0.00    -0.389 OA
HETATM   40  H   UNL     1       1.069   7.278 -26.099  1.00  0.00     0.210 HD
ENDBRANCH   6  39
TORSDOF 10
ENDMDL
MODEL 10
REMARK VINA RESULT:      -7.5      2.868      7.991
REMARK  10 active torsions:
REMARK  status: ('A' for Active; 'I' for Inactive)
REMARK    1  A    between atoms: C_2  and  N_3 
REMARK    2  A    between atoms: N_3  and  C_4 
REMARK    3  A    between atoms: N_3  and  C_37 
REMARK    4  A    between atoms: C_7  and  C_8 
REMARK    5  A    between atoms: N_9  and  C_11 
REMARK    6  A    between atoms: C_11  and  C_12 
REMARK       I    between atoms: C_12  and  N_13 
REMARK    7  A    between atoms: N_13  and  C_14 
REMARK    8  A    between atoms: C_20  and  C_21 
REMARK    9  A    between atoms: C_21  and  O_22 
REMARK   10  A    between atoms: C_28  and  O_29 
ROOT
HETATM    1  C   UNL     1      -6.469   4.260 -31.793  1.00  0.00     0.228 C 
HETATM    2  N   UNL     1      -6.675   3.006 -30.939  1.00  0.00    -0.054 N 
HETATM    3  H   UNL     1      -7.248   3.382 -30.176  1.00  0.00     0.281 HD
HETATM    4  C   UNL     1      -5.421   2.553 -30.235  1.00  0.00     0.239 C 
HETATM    5  C   UNL     1      -4.194   2.480 -31.129  1.00  0.00     0.066 C 
HETATM    6  C   UNL     1      -3.990   3.756 -31.943  1.00  0.00     0.065 C 
HETATM    7  C   UNL     1      -5.260   4.113 -32.745  1.00  0.00     0.055 C 
HETATM    8  C   UNL     1      -2.775   3.617 -32.879  1.00  0.00     0.038 C 
HETATM    9  C   UNL     1      -2.551   4.874 -33.719  1.00  0.00     0.003 C 
HETATM   10  C   UNL     1      -3.806   5.265 -34.486  1.00  0.00     0.001 C 
HETATM   11  C   UNL     1      -5.015   5.402 -33.567  1.00  0.00     0.010 C 
ENDROOT
BRANCH   2  12
HETATM   12  C   UNL     1      -7.570   1.876 -31.459  1.00  0.00     0.338 C 
BRANCH  12  13
HETATM   13  C   UNL     1      -6.982   0.476 -31.659  1.00  0.00     0.248 C 
HETATM   14  N   UNL     1      -6.917   0.120 -32.994  1.00  0.00    -0.319 N 
HETATM   15  H   UNL     1      -7.541   0.552 -33.666  1.00  0.00     0.169 HD
HETATM   16  O   UNL     1      -6.683  -0.248 -30.718  1.00  0.00    -0.271 OA
BRANCH  14  17
HETATM   17  C   UNL     1      -6.281  -1.012 -33.466  1.00  0.00     0.094 A 
HETATM   18  S   UNL     1      -7.369  -1.996 -34.322  1.00  0.00    -0.076 SA
HETATM   19  C   UNL     1      -6.189  -3.195 -34.591  1.00  0.00    -0.012 A 
HETATM   20  C   UNL     1      -6.569  -4.443 -35.323  1.00  0.00     0.057 C 
HETATM   21  C   UNL     1      -4.943  -2.811 -34.118  1.00  0.00    -0.030 A 
HETATM   22  C   UNL     1      -3.688  -3.606 -34.323  1.00  0.00     0.050 C 
HETATM   23  C   UNL     1      -4.995  -1.517 -33.438  1.00  0.00     0.080 A 
BRANCH  23  24
HETATM   24  C   UNL     1      -3.830  -0.803 -32.911  1.00  0.00     0.296 C 
HETATM   25  O   UNL     1      -3.252   0.084 -33.529  1.00  0.00    -0.259 OA
BRANCH  24  26
HETATM   26  O   UNL     1      -3.429  -1.273 -31.696  1.00  0.00    -0.322 OA
HETATM   27  C   UNL     1      -2.026  -1.157 -31.463  1.00  0.00     0.213 C 
ENDBRANCH  24  26
ENDBRANCH  23  24
ENDBRANCH  14  17
ENDBRANCH  12  13
ENDBRANCH   2  12
BRANCH   1  28
HETATM   28  C   UNL     1      -7.741   4.798 -32.428  1.00  0.00    -0.027 A 
HETATM   29  C   UNL     1      -8.502   5.768 -31.768  1.00  0.00     0.011 A 
HETATM   30  C   UNL     1      -9.570   6.413 -32.416  1.00  0.00     0.030 A 
HETATM   31  C   UNL     1      -9.937   6.126 -33.739  1.00  0.00     0.030 A 
HETATM   32  C   UNL     1      -9.229   5.076 -34.340  1.00  0.00     0.030 A 
HETATM   33  C   UNL     1      -8.146   4.444 -33.715  1.00  0.00     0.011 A 
BRANCH  31  34
HETATM   34  N   UNL     1     -10.926   6.831 -34.422  1.00  0.00    -0.382 N 
BRANCH  34  35
HETATM   35  C   UNL     1     -10.643   8.172 -34.967  1.00  0.00     0.118 C 
HETATM   36  C   UNL     1     -10.664   8.143 -36.486  1.00  0.00     0.026 C 
ENDBRANCH  34  35
BRANCH  34  37
HETATM   37  C   UNL     1     -12.353   6.494 -34.295  1.00  0.00     0.118 C 
HETATM   38  C   UNL     1     -12.730   5.333 -35.203  1.00  0.00     0.026 C 
ENDBRANCH  34  37
ENDBRANCH  31  34
ENDBRANCH   1  28
BRANCH   6  39
HETATM   39  O   UNL     1      -3.747   4.805 -30.994  1.00  0.00    -0.389 OA
HETATM   40  H   UNL     1      -4.066   4.518 -30.116  1.00  0.00     0.210 HD
ENDBRANCH   6  39
TORSDOF 10
ENDMDL
