MODEL 1
REMARK VINA RESULT:      -8.4      0.000      0.000
REMARK  7 active torsions:
REMARK  status: ('A' for Active; 'I' for Inactive)
REMARK    1  A    between atoms: C_5  and  O_6 
REMARK    2  A    between atoms: O_6  and  C_7 
REMARK    3  A    between atoms: C_7  and  C_8 
REMARK       I    between atoms: C_8  and  N_9 
REMARK    4  A    between atoms: N_9  and  C_10 
REMARK    5  A    between atoms: C_13  and  N_14 
REMARK    6  A    between atoms: N_14  and  C_15 
REMARK    7  A    between atoms: C_15  and  C_16 
ROOT
HETATM    1  C   UNL     1      -8.383   1.374 -31.928  1.00  0.00     0.034 A 
HETATM    2  C   UNL     1      -8.450   2.499 -32.746  1.00  0.00     0.031 A 
HETATM    3  C   UNL     1      -9.399   2.573 -33.775  1.00  0.00     0.026 A 
HETATM    4  C   UNL     1     -10.305   1.534 -33.999  1.00  0.00     0.008 A 
HETATM    5  C   UNL     1     -10.246   0.415 -33.165  1.00  0.00     0.026 A 
HETATM    6  C   UNL     1      -9.279   0.325 -32.157  1.00  0.00     0.031 A 
ENDROOT
BRANCH   1   7
HETATM    7  N   UNL     1      -7.419   1.176 -30.928  1.00  0.00    -0.325 N 
HETATM    8  C   UNL     1      -6.090   0.866 -30.976  1.00  0.00     0.246 C 
HETATM    9  O   UNL     1      -5.547   0.496 -29.927  1.00  0.00    -0.271 OA
HETATM   10  H   UNL     1      -7.735   1.283 -29.971  1.00  0.00     0.169 HD
BRANCH   8  11
HETATM   11  C   UNL     1      -5.268   1.024 -32.251  1.00  0.00     0.278 C 
BRANCH  11  12
HETATM   12  O   UNL     1      -4.493  -0.147 -32.473  1.00  0.00    -0.342 OA
BRANCH  12  13
HETATM   13  C   UNL     1      -5.059  -1.134 -33.227  1.00  0.00     0.069 A 
HETATM   14  C   UNL     1      -4.254  -2.257 -33.423  1.00  0.00     0.037 A 
HETATM   15  C   UNL     1      -4.717  -3.345 -34.164  1.00  0.00     0.009 A 
HETATM   16  C   UNL     1      -5.996  -3.319 -34.729  1.00  0.00    -0.062 A 
HETATM   17  C   UNL     1      -6.508  -4.477 -35.532  1.00  0.00     0.048 C 
HETATM   18  C   UNL     1      -6.791  -2.179 -34.553  1.00  0.00     0.009 A 
HETATM   19  C   UNL     1      -6.326  -1.090 -33.807  1.00  0.00     0.037 A 
ENDBRANCH  12  13
ENDBRANCH  11  12
ENDBRANCH   8  11
ENDBRANCH   1   7
BRANCH   4  20
HETATM   20  N   UNL     1     -11.252   1.588 -35.035  1.00  0.00    -0.289 NA
HETATM   21  H   UNL     1     -10.809   1.497 -35.947  1.00  0.00     0.128 HD
BRANCH  20  22
HETATM   22  C   UNL     1     -12.128   2.759 -34.994  1.00  0.00     0.132 C 
BRANCH  22  23
HETATM   23  C   UNL     1     -13.264   2.497 -34.044  1.00  0.00    -0.027 A 
HETATM   24  C   UNL     1     -14.176   1.472 -34.276  1.00  0.00     0.124 A 
HETATM   25  N   UNL     1     -15.213   1.178 -33.458  1.00  0.00    -0.273 NA
HETATM   26  C   UNL     1     -15.347   1.939 -32.351  1.00  0.00     0.116 A 
HETATM   27  C   UNL     1     -14.493   2.979 -32.024  1.00  0.00     0.020 A 
HETATM   28  C   UNL     1     -13.435   3.258 -32.884  1.00  0.00     0.011 A 
ENDBRANCH  22  23
ENDBRANCH  20  22
ENDBRANCH   4  20
TORSDOF 7
ENDMDL
MODEL 2
REMARK VINA RESULT:      -8.3      4.109      7.179
REMARK  7 active torsions:
REMARK  status: ('A' for Active; 'I' for Inactive)
REMARK    1  A    between atoms: C_5  and  O_6 
REMARK    2  A    between atoms: O_6  and  C_7 
REMARK    3  A    between atoms: C_7  and  C_8 
REMARK       I    between atoms: C_8  and  N_9 
REMARK    4  A    between atoms: N_9  and  C_10 
REMARK    5  A    between atoms: C_13  and  N_14 
REMARK    6  A    between atoms: N_14  and  C_15 
REMARK    7  A    between atoms: C_15  and  C_16 
ROOT
HETATM    1  C   UNL     1      -4.962   2.044 -30.369  1.00  0.00     0.034 A 
HETATM    2  C   UNL     1      -5.507   0.762 -30.380  1.00  0.00     0.031 A 
HETATM    3  C   UNL     1      -5.142  -0.156 -31.374  1.00  0.00     0.026 A 
HETATM    4  C   UNL     1      -4.219   0.182 -32.367  1.00  0.00     0.008 A 
HETATM    5  C   UNL     1      -3.662   1.463 -32.341  1.00  0.00     0.026 A 
HETATM    6  C   UNL     1      -4.049   2.392 -31.369  1.00  0.00     0.031 A 
ENDROOT
BRANCH   1   7
HETATM    7  N   UNL     1      -5.327   3.053 -29.465  1.00  0.00    -0.325 N 
HETATM    8  C   UNL     1      -6.024   4.218 -29.613  1.00  0.00     0.246 C 
HETATM    9  O   UNL     1      -5.970   5.042 -28.692  1.00  0.00    -0.271 OA
HETATM   10  H   UNL     1      -5.036   2.920 -28.503  1.00  0.00     0.169 HD
BRANCH   8  11
HETATM   11  C   UNL     1      -6.899   4.487 -30.833  1.00  0.00     0.278 C 
BRANCH  11  12
HETATM   12  O   UNL     1      -7.991   3.577 -30.854  1.00  0.00    -0.342 OA
BRANCH  12  13
HETATM   13  C   UNL     1      -8.031   2.677 -31.879  1.00  0.00     0.069 A 
HETATM   14  C   UNL     1      -7.229   3.001 -32.974  1.00  0.00     0.037 A 
HETATM   15  C   UNL     1      -7.167   2.158 -34.085  1.00  0.00     0.009 A 
HETATM   16  C   UNL     1      -7.919   0.980 -34.118  1.00  0.00    -0.062 A 
HETATM   17  C   UNL     1      -7.869   0.066 -35.306  1.00  0.00     0.048 C 
HETATM   18  C   UNL     1      -8.745   0.672 -33.029  1.00  0.00     0.009 A 
HETATM   19  C   UNL     1      -8.803   1.517 -31.915  1.00  0.00     0.037 A 
ENDBRANCH  12  13
ENDBRANCH  11  12
ENDBRANCH   8  11
ENDBRANCH   1   7
BRANCH   4  20
HETATM   20  N   UNL     1      -3.854  -0.722 -33.377  1.00  0.00    -0.289 NA
HETATM   21  H   UNL     1      -4.500  -0.681 -34.162  1.00  0.00     0.128 HD
BRANCH  20  22
HETATM   22  C   UNL     1      -3.672  -2.100 -32.920  1.00  0.00     0.132 C 
BRANCH  22  23
HETATM   23  C   UNL     1      -4.561  -3.012 -33.720  1.00  0.00    -0.027 A 
HETATM   24  C   UNL     1      -4.236  -4.351 -33.911  1.00  0.00     0.124 A 
HETATM   25  N   UNL     1      -4.995  -5.225 -34.611  1.00  0.00    -0.273 NA
HETATM   26  C   UNL     1      -6.137  -4.743 -35.146  1.00  0.00     0.116 A 
HETATM   27  C   UNL     1      -6.556  -3.430 -35.011  1.00  0.00     0.020 A 
HETATM   28  C   UNL     1      -5.755  -2.554 -34.285  1.00  0.00     0.011 A 
ENDBRANCH  22  23
ENDBRANCH  20  22
ENDBRANCH   4  20
TORSDOF 7
ENDMDL
MODEL 3
REMARK VINA RESULT:      -8.2      1.406      1.900
REMARK  7 active torsions:
REMARK  status: ('A' for Active; 'I' for Inactive)
REMARK    1  A    between atoms: C_5  and  O_6 
REMARK    2  A    between atoms: O_6  and  C_7 
REMARK    3  A    between atoms: C_7  and  C_8 
REMARK       I    between atoms: C_8  and  N_9 
REMARK    4  A    between atoms: N_9  and  C_10 
REMARK    5  A    between atoms: C_13  and  N_14 
REMARK    6  A    between atoms: N_14  and  C_15 
REMARK    7  A    between atoms: C_15  and  C_16 
ROOT
HETATM    1  C   UNL     1      -6.407   2.027 -32.182  1.00  0.00     0.034 A 
HETATM    2  C   UNL     1      -7.092   2.406 -33.335  1.00  0.00     0.031 A 
HETATM    3  C   UNL     1      -8.412   1.984 -33.547  1.00  0.00     0.026 A 
HETATM    4  C   UNL     1      -9.076   1.188 -32.610  1.00  0.00     0.008 A 
HETATM    5  C   UNL     1      -8.391   0.825 -31.448  1.00  0.00     0.026 A 
HETATM    6  C   UNL     1      -7.063   1.219 -31.249  1.00  0.00     0.031 A 
ENDROOT
BRANCH   1   7
HETATM    7  N   UNL     1      -5.063   2.334 -31.922  1.00  0.00    -0.325 N 
HETATM    8  C   UNL     1      -3.985   1.559 -31.601  1.00  0.00     0.246 C 
HETATM    9  O   UNL     1      -2.975   2.130 -31.171  1.00  0.00    -0.271 OA
HETATM   10  H   UNL     1      -4.806   3.312 -31.980  1.00  0.00     0.169 HD
BRANCH   8  11
HETATM   11  C   UNL     1      -3.980   0.049 -31.819  1.00  0.00     0.278 C 
BRANCH  11  12
HETATM   12  O   UNL     1      -3.833  -0.237 -33.203  1.00  0.00    -0.342 OA
BRANCH  12  13
HETATM   13  C   UNL     1      -4.631  -1.215 -33.724  1.00  0.00     0.069 A 
HETATM   14  C   UNL     1      -3.998  -2.443 -33.924  1.00  0.00     0.037 A 
HETATM   15  C   UNL     1      -4.703  -3.532 -34.437  1.00  0.00     0.009 A 
HETATM   16  C   UNL     1      -6.055  -3.403 -34.769  1.00  0.00    -0.062 A 
HETATM   17  C   UNL     1      -6.826  -4.562 -35.327  1.00  0.00     0.048 C 
HETATM   18  C   UNL     1      -6.680  -2.162 -34.593  1.00  0.00     0.009 A 
HETATM   19  C   UNL     1      -5.972  -1.071 -34.075  1.00  0.00     0.037 A 
ENDBRANCH  12  13
ENDBRANCH  11  12
ENDBRANCH   8  11
ENDBRANCH   1   7
BRANCH   4  20
HETATM   20  N   UNL     1     -10.393   0.745 -32.816  1.00  0.00    -0.289 NA
HETATM   21  H   UNL     1     -10.443  -0.271 -32.839  1.00  0.00     0.128 HD
BRANCH  20  22
HETATM   22  C   UNL     1     -11.052   1.328 -33.985  1.00  0.00     0.132 C 
BRANCH  22  23
HETATM   23  C   UNL     1     -12.534   1.390 -33.741  1.00  0.00    -0.027 A 
HETATM   24  C   UNL     1     -13.093   2.380 -32.939  1.00  0.00     0.124 A 
HETATM   25  N   UNL     1     -14.417   2.496 -32.687  1.00  0.00    -0.273 NA
HETATM   26  C   UNL     1     -15.227   1.585 -33.266  1.00  0.00     0.116 A 
HETATM   27  C   UNL     1     -14.775   0.564 -34.086  1.00  0.00     0.020 A 
HETATM   28  C   UNL     1     -13.408   0.469 -34.327  1.00  0.00     0.011 A 
ENDBRANCH  22  23
ENDBRANCH  20  22
ENDBRANCH   4  20
TORSDOF 7
ENDMDL
MODEL 4
REMARK VINA RESULT:      -8.1      5.088      8.603
REMARK  7 active torsions:
REMARK  status: ('A' for Active; 'I' for Inactive)
REMARK    1  A    between atoms: C_5  and  O_6 
REMARK    2  A    between atoms: O_6  and  C_7 
REMARK    3  A    between atoms: C_7  and  C_8 
REMARK       I    between atoms: C_8  and  N_9 
REMARK    4  A    between atoms: N_9  and  C_10 
REMARK    5  A    between atoms: C_13  and  N_14 
REMARK    6  A    between atoms: N_14  and  C_15 
REMARK    7  A    between atoms: C_15  and  C_16 
ROOT
HETATM    1  C   UNL     1      -4.977   3.914 -32.681  1.00  0.00     0.034 A 
HETATM    2  C   UNL     1      -3.789   3.447 -32.123  1.00  0.00     0.031 A 
HETATM    3  C   UNL     1      -2.559   3.998 -32.508  1.00  0.00     0.026 A 
HETATM    4  C   UNL     1      -2.492   5.032 -33.446  1.00  0.00     0.008 A 
HETATM    5  C   UNL     1      -3.687   5.508 -33.990  1.00  0.00     0.026 A 
HETATM    6  C   UNL     1      -4.913   4.938 -33.631  1.00  0.00     0.031 A 
ENDROOT
BRANCH   1   7
HETATM    7  N   UNL     1      -6.243   3.371 -32.418  1.00  0.00    -0.325 N 
HETATM    8  C   UNL     1      -7.001   2.437 -33.066  1.00  0.00     0.246 C 
HETATM    9  O   UNL     1      -8.193   2.343 -32.750  1.00  0.00    -0.271 OA
HETATM   10  H   UNL     1      -6.715   3.712 -31.588  1.00  0.00     0.169 HD
BRANCH   8  11
HETATM   11  C   UNL     1      -6.404   1.488 -34.101  1.00  0.00     0.278 C 
BRANCH  11  12
HETATM   12  O   UNL     1      -5.511   0.583 -33.466  1.00  0.00    -0.342 OA
BRANCH  12  13
HETATM   13  C   UNL     1      -5.568  -0.724 -33.857  1.00  0.00     0.069 A 
HETATM   14  C   UNL     1      -6.834  -1.165 -34.244  1.00  0.00     0.037 A 
HETATM   15  C   UNL     1      -7.030  -2.477 -34.679  1.00  0.00     0.009 A 
HETATM   16  C   UNL     1      -5.956  -3.371 -34.724  1.00  0.00    -0.062 A 
HETATM   17  C   UNL     1      -6.149  -4.785 -35.184  1.00  0.00     0.048 C 
HETATM   18  C   UNL     1      -4.692  -2.933 -34.309  1.00  0.00     0.009 A 
HETATM   19  C   UNL     1      -4.497  -1.616 -33.875  1.00  0.00     0.037 A 
ENDBRANCH  12  13
ENDBRANCH  11  12
ENDBRANCH   8  11
ENDBRANCH   1   7
BRANCH   4  20
HETATM   20  N   UNL     1      -1.266   5.584 -33.852  1.00  0.00    -0.289 NA
HETATM   21  H   UNL     1      -0.481   5.084 -33.443  1.00  0.00     0.128 HD
BRANCH  20  22
HETATM   22  C   UNL     1      -1.146   7.024 -33.625  1.00  0.00     0.132 C 
BRANCH  22  23
HETATM   23  C   UNL     1      -0.940   7.281 -32.157  1.00  0.00    -0.027 A 
HETATM   24  C   UNL     1      -1.827   8.070 -31.431  1.00  0.00     0.124 A 
HETATM   25  N   UNL     1      -1.705   8.331 -30.110  1.00  0.00    -0.273 NA
HETATM   26  C   UNL     1      -0.649   7.777 -29.477  1.00  0.00     0.116 A 
HETATM   27  C   UNL     1       0.288   6.972 -30.104  1.00  0.00     0.020 A 
HETATM   28  C   UNL     1       0.136   6.720 -31.463  1.00  0.00     0.011 A 
ENDBRANCH  22  23
ENDBRANCH  20  22
ENDBRANCH   4  20
TORSDOF 7
ENDMDL
MODEL 5
REMARK VINA RESULT:      -8.0      3.104      6.663
REMARK  7 active torsions:
REMARK  status: ('A' for Active; 'I' for Inactive)
REMARK    1  A    between atoms: C_5  and  O_6 
REMARK    2  A    between atoms: O_6  and  C_7 
REMARK    3  A    between atoms: C_7  and  C_8 
REMARK       I    between atoms: C_8  and  N_9 
REMARK    4  A    between atoms: N_9  and  C_10 
REMARK    5  A    between atoms: C_13  and  N_14 
REMARK    6  A    between atoms: N_14  and  C_15 
REMARK    7  A    between atoms: C_15  and  C_16 
ROOT
HETATM    1  C   UNL     1      -9.190   2.020 -32.726  1.00  0.00     0.034 A 
HETATM    2  C   UNL     1      -8.232   2.281 -33.703  1.00  0.00     0.031 A 
HETATM    3  C   UNL     1      -7.622   1.229 -34.399  1.00  0.00     0.026 A 
HETATM    4  C   UNL     1      -7.963  -0.102 -34.142  1.00  0.00     0.008 A 
HETATM    5  C   UNL     1      -8.937  -0.358 -33.174  1.00  0.00     0.026 A 
HETATM    6  C   UNL     1      -9.525   0.689 -32.456  1.00  0.00     0.031 A 
ENDROOT
BRANCH   1   7
HETATM    7  N   UNL     1      -9.795   3.001 -31.925  1.00  0.00    -0.325 N 
HETATM    8  C   UNL     1      -9.342   3.736 -30.867  1.00  0.00     0.246 C 
HETATM    9  O   UNL     1     -10.180   4.342 -30.188  1.00  0.00    -0.271 OA
HETATM   10  H   UNL     1     -10.753   3.239 -32.154  1.00  0.00     0.169 HD
BRANCH   8  11
HETATM   11  C   UNL     1      -7.856   3.873 -30.554  1.00  0.00     0.278 C 
BRANCH  11  12
HETATM   12  O   UNL     1      -7.398   2.712 -29.873  1.00  0.00    -0.342 OA
BRANCH  12  13
HETATM   13  C   UNL     1      -6.433   1.969 -30.490  1.00  0.00     0.069 A 
HETATM   14  C   UNL     1      -5.449   2.712 -31.142  1.00  0.00     0.037 A 
HETATM   15  C   UNL     1      -4.396   2.076 -31.802  1.00  0.00     0.009 A 
HETATM   16  C   UNL     1      -4.320   0.680 -31.825  1.00  0.00    -0.062 A 
HETATM   17  C   UNL     1      -3.199  -0.019 -32.533  1.00  0.00     0.048 C 
HETATM   18  C   UNL     1      -5.325  -0.063 -31.192  1.00  0.00     0.009 A 
HETATM   19  C   UNL     1      -6.378   0.577 -30.529  1.00  0.00     0.037 A 
ENDBRANCH  12  13
ENDBRANCH  11  12
ENDBRANCH   8  11
ENDBRANCH   1   7
BRANCH   4  20
HETATM   20  N   UNL     1      -7.350  -1.168 -34.820  1.00  0.00    -0.289 NA
HETATM   21  H   UNL     1      -7.759  -2.060 -34.554  1.00  0.00     0.128 HD
BRANCH  20  22
HETATM   22  C   UNL     1      -5.892  -1.203 -34.701  1.00  0.00     0.132 C 
BRANCH  22  23
HETATM   23  C   UNL     1      -5.442  -2.626 -34.521  1.00  0.00    -0.027 A 
HETATM   24  C   UNL     1      -6.192  -3.688 -35.017  1.00  0.00     0.124 A 
HETATM   25  N   UNL     1      -5.840  -4.989 -34.898  1.00  0.00    -0.273 NA
HETATM   26  C   UNL     1      -4.680  -5.246 -34.256  1.00  0.00     0.116 A 
HETATM   27  C   UNL     1      -3.856  -4.264 -33.731  1.00  0.00     0.020 A 
HETATM   28  C   UNL     1      -4.245  -2.936 -33.869  1.00  0.00     0.011 A 
ENDBRANCH  22  23
ENDBRANCH  20  22
ENDBRANCH   4  20
TORSDOF 7
ENDMDL
MODEL 6
REMARK VINA RESULT:      -7.8      3.940      7.581
REMARK  7 active torsions:
REMARK  status: ('A' for Active; 'I' for Inactive)
REMARK    1  A    between atoms: C_5  and  O_6 
REMARK    2  A    between atoms: O_6  and  C_7 
REMARK    3  A    between atoms: C_7  and  C_8 
REMARK       I    between atoms: C_8  and  N_9 
REMARK    4  A    between atoms: N_9  and  C_10 
REMARK    5  A    between atoms: C_13  and  N_14 
REMARK    6  A    between atoms: N_14  and  C_15 
REMARK    7  A    between atoms: C_15  and  C_16 
ROOT
HETATM    1  C   UNL     1      -7.879   3.784 -32.854  1.00  0.00     0.034 A 
HETATM    2  C   UNL     1      -7.358   3.550 -31.583  1.00  0.00     0.031 A 
HETATM    3  C   UNL     1      -6.025   3.148 -31.425  1.00  0.00     0.026 A 
HETATM    4  C   UNL     1      -5.184   2.983 -32.528  1.00  0.00     0.008 A 
HETATM    5  C   UNL     1      -5.705   3.235 -33.799  1.00  0.00     0.026 A 
HETATM    6  C   UNL     1      -7.045   3.607 -33.961  1.00  0.00     0.031 A 
ENDROOT
BRANCH   1   7
HETATM    7  N   UNL     1      -9.218   4.111 -33.114  1.00  0.00    -0.325 N 
HETATM    8  C   UNL     1     -10.326   3.348 -33.349  1.00  0.00     0.246 C 
HETATM    9  O   UNL     1     -11.327   3.913 -33.807  1.00  0.00    -0.271 OA
HETATM   10  H   UNL     1      -9.444   5.099 -33.132  1.00  0.00     0.169 HD
BRANCH   8  11
HETATM   11  C   UNL     1     -10.372   1.862 -33.006  1.00  0.00     0.278 C 
BRANCH  11  12
HETATM   12  O   UNL     1      -9.856   1.101 -34.090  1.00  0.00    -0.342 OA
BRANCH  12  13
HETATM   13  C   UNL     1      -8.646   0.496 -33.906  1.00  0.00     0.069 A 
HETATM   14  C   UNL     1      -7.956   0.197 -35.081  1.00  0.00     0.037 A 
HETATM   15  C   UNL     1      -6.700  -0.410 -35.034  1.00  0.00     0.009 A 
HETATM   16  C   UNL     1      -6.121  -0.736 -33.804  1.00  0.00    -0.062 A 
HETATM   17  C   UNL     1      -4.775  -1.393 -33.735  1.00  0.00     0.048 C 
HETATM   18  C   UNL     1      -6.829  -0.460 -32.627  1.00  0.00     0.009 A 
HETATM   19  C   UNL     1      -8.087   0.152 -32.676  1.00  0.00     0.037 A 
ENDBRANCH  12  13
ENDBRANCH  11  12
ENDBRANCH   8  11
ENDBRANCH   1   7
BRANCH   4  20
HETATM   20  N   UNL     1      -3.850   2.566 -32.386  1.00  0.00    -0.289 NA
HETATM   21  H   UNL     1      -3.794   1.628 -31.997  1.00  0.00     0.128 HD
BRANCH  20  22
HETATM   22  C   UNL     1      -3.002   3.495 -31.639  1.00  0.00     0.132 C 
BRANCH  22  23
HETATM   23  C   UNL     1      -2.664   4.672 -32.511  1.00  0.00    -0.027 A 
HETATM   24  C   UNL     1      -2.905   5.976 -32.089  1.00  0.00     0.124 A 
HETATM   25  N   UNL     1      -2.616   7.077 -32.820  1.00  0.00    -0.273 NA
HETATM   26  C   UNL     1      -2.056   6.872 -34.031  1.00  0.00     0.116 A 
HETATM   27  C   UNL     1      -1.769   5.617 -34.543  1.00  0.00     0.020 A 
HETATM   28  C   UNL     1      -2.077   4.503 -33.769  1.00  0.00     0.011 A 
ENDBRANCH  22  23
ENDBRANCH  20  22
ENDBRANCH   4  20
TORSDOF 7
ENDMDL
MODEL 7
REMARK VINA RESULT:      -7.8      3.132      7.519
REMARK  7 active torsions:
REMARK  status: ('A' for Active; 'I' for Inactive)
REMARK    1  A    between atoms: C_5  and  O_6 
REMARK    2  A    between atoms: O_6  and  C_7 
REMARK    3  A    between atoms: C_7  and  C_8 
REMARK       I    between atoms: C_8  and  N_9 
REMARK    4  A    between atoms: N_9  and  C_10 
REMARK    5  A    between atoms: C_13  and  N_14 
REMARK    6  A    between atoms: N_14  and  C_15 
REMARK    7  A    between atoms: C_15  and  C_16 
ROOT
HETATM    1  C   UNL     1      -9.832   1.379 -32.947  1.00  0.00     0.034 A 
HETATM    2  C   UNL     1      -8.960   0.923 -31.961  1.00  0.00     0.031 A 
HETATM    3  C   UNL     1      -7.784   0.247 -32.311  1.00  0.00     0.026 A 
HETATM    4  C   UNL     1      -7.449   0.023 -33.649  1.00  0.00     0.008 A 
HETATM    5  C   UNL     1      -8.318   0.497 -34.634  1.00  0.00     0.026 A 
HETATM    6  C   UNL     1      -9.508   1.144 -34.287  1.00  0.00     0.031 A 
ENDROOT
BRANCH   1   7
HETATM    7  N   UNL     1     -11.068   1.993 -32.691  1.00  0.00    -0.325 N 
HETATM    8  C   UNL     1     -11.462   3.300 -32.671  1.00  0.00     0.246 C 
HETATM    9  O   UNL     1     -12.556   3.563 -32.157  1.00  0.00    -0.271 OA
HETATM   10  H   UNL     1     -11.842   1.374 -32.482  1.00  0.00     0.169 HD
BRANCH   8  11
HETATM   11  C   UNL     1     -10.630   4.406 -33.313  1.00  0.00     0.278 C 
BRANCH  11  12
HETATM   12  O   UNL     1      -9.669   4.888 -32.383  1.00  0.00    -0.342 OA
BRANCH  12  13
HETATM   13  C   UNL     1      -8.385   4.450 -32.533  1.00  0.00     0.069 A 
HETATM   14  C   UNL     1      -7.710   4.193 -31.339  1.00  0.00     0.037 A 
HETATM   15  C   UNL     1      -6.394   3.727 -31.350  1.00  0.00     0.009 A 
HETATM   16  C   UNL     1      -5.731   3.520 -32.563  1.00  0.00    -0.062 A 
HETATM   17  C   UNL     1      -4.316   3.024 -32.593  1.00  0.00     0.048 C 
HETATM   18  C   UNL     1      -6.402   3.805 -33.759  1.00  0.00     0.009 A 
HETATM   19  C   UNL     1      -7.722   4.269 -33.746  1.00  0.00     0.037 A 
ENDBRANCH  12  13
ENDBRANCH  11  12
ENDBRANCH   8  11
ENDBRANCH   1   7
BRANCH   4  20
HETATM   20  N   UNL     1      -6.281  -0.666 -34.014  1.00  0.00    -0.289 NA
HETATM   21  H   UNL     1      -5.545  -0.024 -34.297  1.00  0.00     0.128 HD
BRANCH  20  22
HETATM   22  C   UNL     1      -6.483  -1.708 -35.022  1.00  0.00     0.132 C 
BRANCH  22  23
HETATM   23  C   UNL     1      -5.673  -2.920 -34.653  1.00  0.00    -0.027 A 
HETATM   24  C   UNL     1      -6.065  -4.196 -35.044  1.00  0.00     0.124 A 
HETATM   25  N   UNL     1      -5.378  -5.325 -34.754  1.00  0.00    -0.273 NA
HETATM   26  C   UNL     1      -4.241  -5.177 -34.041  1.00  0.00     0.116 A 
HETATM   27  C   UNL     1      -3.759  -3.953 -33.608  1.00  0.00     0.020 A 
HETATM   28  C   UNL     1      -4.486  -2.810 -33.921  1.00  0.00     0.011 A 
ENDBRANCH  22  23
ENDBRANCH  20  22
ENDBRANCH   4  20
TORSDOF 7
ENDMDL
MODEL 8
REMARK VINA RESULT:      -7.7      3.816      6.912
REMARK  7 active torsions:
REMARK  status: ('A' for Active; 'I' for Inactive)
REMARK    1  A    between atoms: C_5  and  O_6 
REMARK    2  A    between atoms: O_6  and  C_7 
REMARK    3  A    between atoms: C_7  and  C_8 
REMARK       I    between atoms: C_8  and  N_9 
REMARK    4  A    between atoms: N_9  and  C_10 
REMARK    5  A    between atoms: C_13  and  N_14 
REMARK    6  A    between atoms: N_14  and  C_15 
REMARK    7  A    between atoms: C_15  and  C_16 
ROOT
HETATM    1  C   UNL     1      -7.311   3.377 -33.403  1.00  0.00     0.034 A 
HETATM    2  C   UNL     1      -6.293   2.694 -34.066  1.00  0.00     0.031 A 
HETATM    3  C   UNL     1      -6.282   1.293 -34.097  1.00  0.00     0.026 A 
HETATM    4  C   UNL     1      -7.288   0.548 -33.477  1.00  0.00     0.008 A 
HETATM    5  C   UNL     1      -8.315   1.237 -32.828  1.00  0.00     0.026 A 
HETATM    6  C   UNL     1      -8.312   2.635 -32.769  1.00  0.00     0.031 A 
ENDROOT
BRANCH   1   7
HETATM    7  N   UNL     1      -7.362   4.771 -33.251  1.00  0.00    -0.325 N 
HETATM    8  C   UNL     1      -7.388   5.580 -32.151  1.00  0.00     0.246 C 
HETATM    9  O   UNL     1      -7.697   6.766 -32.317  1.00  0.00    -0.271 OA
HETATM   10  H   UNL     1      -7.379   5.315 -34.106  1.00  0.00     0.169 HD
BRANCH   8  11
HETATM   11  C   UNL     1      -6.990   5.076 -30.767  1.00  0.00     0.278 C 
BRANCH  11  12
HETATM   12  O   UNL     1      -5.574   4.993 -30.674  1.00  0.00    -0.342 OA
BRANCH  12  13
HETATM   13  C   UNL     1      -5.011   3.760 -30.845  1.00  0.00     0.069 A 
HETATM   14  C   UNL     1      -5.724   2.707 -30.273  1.00  0.00     0.037 A 
HETATM   15  C   UNL     1      -5.266   1.393 -30.386  1.00  0.00     0.009 A 
HETATM   16  C   UNL     1      -4.078   1.117 -31.069  1.00  0.00    -0.062 A 
HETATM   17  C   UNL     1      -3.569  -0.287 -31.195  1.00  0.00     0.048 C 
HETATM   18  C   UNL     1      -3.351   2.181 -31.618  1.00  0.00     0.009 A 
HETATM   19  C   UNL     1      -3.813   3.497 -31.507  1.00  0.00     0.037 A 
ENDBRANCH  12  13
ENDBRANCH  11  12
ENDBRANCH   8  11
ENDBRANCH   1   7
BRANCH   4  20
HETATM   20  N   UNL     1      -7.282  -0.857 -33.487  1.00  0.00    -0.289 NA
HETATM   21  H   UNL     1      -6.654  -1.229 -32.778  1.00  0.00     0.128 HD
BRANCH  20  22
HETATM   22  C   UNL     1      -7.008  -1.452 -34.795  1.00  0.00     0.132 C 
BRANCH  22  23
HETATM   23  C   UNL     1      -6.156  -2.678 -34.615  1.00  0.00    -0.027 A 
HETATM   24  C   UNL     1      -6.636  -3.944 -34.936  1.00  0.00     0.124 A 
HETATM   25  N   UNL     1      -5.919  -5.084 -34.807  1.00  0.00    -0.273 NA
HETATM   26  C   UNL     1      -4.659  -4.958 -34.339  1.00  0.00     0.116 A 
HETATM   27  C   UNL     1      -4.083  -3.746 -33.996  1.00  0.00     0.020 A 
HETATM   28  C   UNL     1      -4.844  -2.591 -34.139  1.00  0.00     0.011 A 
ENDBRANCH  22  23
ENDBRANCH  20  22
ENDBRANCH   4  20
TORSDOF 7
ENDMDL
MODEL 9
REMARK VINA RESULT:      -7.6      4.035      7.709
REMARK  7 active torsions:
REMARK  status: ('A' for Active; 'I' for Inactive)
REMARK    1  A    between atoms: C_5  and  O_6 
REMARK    2  A    between atoms: O_6  and  C_7 
REMARK    3  A    between atoms: C_7  and  C_8 
REMARK       I    between atoms: C_8  and  N_9 
REMARK    4  A    between atoms: N_9  and  C_10 
REMARK    5  A    between atoms: C_13  and  N_14 
REMARK    6  A    between atoms: N_14  and  C_15 
REMARK    7  A    between atoms: C_15  and  C_16 
ROOT
HETATM    1  C   UNL     1      -6.438   1.879 -32.510  1.00  0.00     0.034 A 
HETATM    2  C   UNL     1      -5.865   2.944 -33.201  1.00  0.00     0.031 A 
HETATM    3  C   UNL     1      -4.605   3.434 -32.831  1.00  0.00     0.026 A 
HETATM    4  C   UNL     1      -3.889   2.864 -31.775  1.00  0.00     0.008 A 
HETATM    5  C   UNL     1      -4.461   1.785 -31.097  1.00  0.00     0.026 A 
HETATM    6  C   UNL     1      -5.732   1.314 -31.444  1.00  0.00     0.031 A 
ENDROOT
BRANCH   1   7
HETATM    7  N   UNL     1      -7.725   1.375 -32.757  1.00  0.00    -0.325 N 
HETATM    8  C   UNL     1      -8.274   0.730 -33.828  1.00  0.00     0.246 C 
HETATM    9  O   UNL     1      -9.507   0.634 -33.870  1.00  0.00    -0.271 OA
HETATM   10  H   UNL     1      -8.402   1.490 -32.012  1.00  0.00     0.169 HD
BRANCH   8  11
HETATM   11  C   UNL     1      -7.416   0.087 -34.913  1.00  0.00     0.278 C 
BRANCH  11  12
HETATM   12  O   UNL     1      -7.614  -1.321 -34.913  1.00  0.00    -0.342 OA
BRANCH  12  13
HETATM   13  C   UNL     1      -6.533  -2.101 -34.621  1.00  0.00     0.069 A 
HETATM   14  C   UNL     1      -6.680  -3.451 -34.945  1.00  0.00     0.037 A 
HETATM   15  C   UNL     1      -5.644  -4.356 -34.712  1.00  0.00     0.009 A 
HETATM   16  C   UNL     1      -4.445  -3.922 -34.139  1.00  0.00    -0.062 A 
HETATM   17  C   UNL     1      -3.324  -4.883 -33.877  1.00  0.00     0.048 C 
HETATM   18  C   UNL     1      -4.311  -2.572 -33.790  1.00  0.00     0.009 A 
HETATM   19  C   UNL     1      -5.350  -1.665 -34.028  1.00  0.00     0.037 A 
ENDBRANCH  12  13
ENDBRANCH  11  12
ENDBRANCH   8  11
ENDBRANCH   1   7
BRANCH   4  20
HETATM   20  N   UNL     1      -2.632   3.353 -31.384  1.00  0.00    -0.289 NA
HETATM   21  H   UNL     1      -2.196   2.745 -30.695  1.00  0.00     0.128 HD
BRANCH  20  22
HETATM   22  C   UNL     1      -2.639   4.743 -30.926  1.00  0.00     0.132 C 
BRANCH  22  23
HETATM   23  C   UNL     1      -2.217   5.641 -32.056  1.00  0.00    -0.027 A 
HETATM   24  C   UNL     1      -2.444   7.013 -32.010  1.00  0.00     0.124 A 
HETATM   25  N   UNL     1      -2.081   7.876 -32.987  1.00  0.00    -0.273 NA
HETATM   26  C   UNL     1      -1.459   7.348 -34.062  1.00  0.00     0.116 A 
HETATM   27  C   UNL     1      -1.179   5.999 -34.205  1.00  0.00     0.020 A 
HETATM   28  C   UNL     1      -1.564   5.135 -33.184  1.00  0.00     0.011 A 
ENDBRANCH  22  23
ENDBRANCH  20  22
ENDBRANCH   4  20
TORSDOF 7
ENDMDL
MODEL 10
REMARK VINA RESULT:      -7.5      4.095      6.990
REMARK  7 active torsions:
REMARK  status: ('A' for Active; 'I' for Inactive)
REMARK    1  A    between atoms: C_5  and  O_6 
REMARK    2  A    between atoms: O_6  and  C_7 
REMARK    3  A    between atoms: C_7  and  C_8 
REMARK       I    between atoms: C_8  and  N_9 
REMARK    4  A    between atoms: N_9  and  C_10 
REMARK    5  A    between atoms: C_13  and  N_14 
REMARK    6  A    between atoms: N_14  and  C_15 
REMARK    7  A    between atoms: C_15  and  C_16 
ROOT
HETATM    1  C   UNL     1      -4.019   0.165 -31.106  1.00  0.00     0.034 A 
HETATM    2  C   UNL     1      -5.265   0.427 -30.540  1.00  0.00     0.031 A 
HETATM    3  C   UNL     1      -5.708   1.748 -30.382  1.00  0.00     0.026 A 
HETATM    4  C   UNL     1      -4.925   2.828 -30.794  1.00  0.00     0.008 A 
HETATM    5  C   UNL     1      -3.684   2.559 -31.377  1.00  0.00     0.026 A 
HETATM    6  C   UNL     1      -3.226   1.244 -31.508  1.00  0.00     0.031 A 
ENDROOT
BRANCH   1   7
HETATM    7  N   UNL     1      -3.459  -1.115 -31.232  1.00  0.00    -0.325 N 
HETATM    8  C   UNL     1      -3.542  -2.068 -32.207  1.00  0.00     0.246 C 
HETATM    9  O   UNL     1      -3.154  -3.209 -31.930  1.00  0.00    -0.271 OA
HETATM   10  H   UNL     1      -2.867  -1.423 -30.469  1.00  0.00     0.169 HD
BRANCH   8  11
HETATM   11  C   UNL     1      -4.032  -1.743 -33.615  1.00  0.00     0.278 C 
BRANCH  11  12
HETATM   12  O   UNL     1      -5.418  -2.036 -33.722  1.00  0.00    -0.342 OA
BRANCH  12  13
HETATM   13  C   UNL     1      -6.281  -0.979 -33.690  1.00  0.00     0.069 A 
HETATM   14  C   UNL     1      -5.746   0.229 -34.138  1.00  0.00     0.037 A 
HETATM   15  C   UNL     1      -6.525   1.386 -34.170  1.00  0.00     0.009 A 
HETATM   16  C   UNL     1      -7.856   1.351 -33.741  1.00  0.00    -0.062 A 
HETATM   17  C   UNL     1      -8.706   2.586 -33.764  1.00  0.00     0.048 C 
HETATM   18  C   UNL     1      -8.382   0.143 -33.265  1.00  0.00     0.009 A 
HETATM   19  C   UNL     1      -7.599  -1.017 -33.237  1.00  0.00     0.037 A 
ENDBRANCH  12  13
ENDBRANCH  11  12
ENDBRANCH   8  11
ENDBRANCH   1   7
BRANCH   4  20
HETATM   20  N   UNL     1      -5.350   4.157 -30.628  1.00  0.00    -0.289 NA
HETATM   21  H   UNL     1      -5.920   4.261 -29.792  1.00  0.00     0.128 HD
BRANCH  20  22
HETATM   22  C   UNL     1      -6.021   4.728 -31.796  1.00  0.00     0.132 C 
BRANCH  22  23
HETATM   23  C   UNL     1      -4.990   5.157 -32.803  1.00  0.00    -0.027 A 
HETATM   24  C   UNL     1      -3.976   6.046 -32.462  1.00  0.00     0.124 A 
HETATM   25  N   UNL     1      -3.013   6.465 -33.315  1.00  0.00    -0.273 NA
HETATM   26  C   UNL     1      -3.060   5.971 -34.571  1.00  0.00     0.116 A 
HETATM   27  C   UNL     1      -4.022   5.077 -35.011  1.00  0.00     0.020 A 
HETATM   28  C   UNL     1      -4.999   4.665 -34.111  1.00  0.00     0.011 A 
ENDBRANCH  22  23
ENDBRANCH  20  22
ENDBRANCH   4  20
TORSDOF 7
ENDMDL
