MODEL 1
REMARK VINA RESULT:     -10.5      0.000      0.000
REMARK  8 active torsions:
REMARK  status: ('A' for Active; 'I' for Inactive)
REMARK    1  A    between atoms: O_2  and  C_3 
REMARK    2  A    between atoms: C_5  and  N_6 
REMARK       I    between atoms: N_6  and  C_7 
REMARK    3  A    between atoms: C_7  and  C_8 
REMARK    4  A    between atoms: C_8  and  N_9 
REMARK       I    between atoms: N_15  and  C_16 
REMARK    5  A    between atoms: C_16  and  C_17 
REMARK    6  A    between atoms: C_17  and  C_18 
REMARK    7  A    between atoms: C_18  and  C_19 
REMARK    8  A    between atoms: N_28  and  C_29 
ROOT
HETATM    1  N   UNL     1      -4.804   5.864 -29.279  1.00  0.00    -0.325 N 
HETATM    2  C   UNL     1      -5.714   4.927 -29.697  1.00  0.00     0.250 C 
HETATM    3  O   UNL     1      -6.715   4.608 -29.072  1.00  0.00    -0.270 OA
HETATM    4  C   UNL     1      -5.226   4.358 -31.045  1.00  0.00     0.118 C 
HETATM    5  C   UNL     1      -6.394   4.395 -32.041  1.00  0.00     0.061 C 
HETATM    6  C   UNL     1      -7.394   3.265 -31.813  1.00  0.00     0.129 C 
HETATM    7  N   UNL     1      -6.719   1.980 -31.654  1.00  0.00    -0.352 N 
HETATM    8  C   UNL     1      -7.024   0.946 -32.528  1.00  0.00     0.220 C 
HETATM    9  O   UNL     1      -7.762   1.111 -33.503  1.00  0.00    -0.273 OA
HETATM   10  C   UNL     1      -5.769   1.922 -30.548  1.00  0.00     0.129 C 
HETATM   11  C   UNL     1      -4.662   2.955 -30.746  1.00  0.00     0.061 C 
HETATM   12  N   UNL     1      -4.142   5.323 -31.397  1.00  0.00    -0.346 N 
HETATM   13  C   UNL     1      -3.863   6.232 -30.290  1.00  0.00     0.254 C 
ENDROOT
BRANCH  12  14
HETATM   14  C   UNL     1      -3.367   5.364 -32.543  1.00  0.00     0.032 A 
HETATM   15  C   UNL     1      -1.959   5.356 -32.482  1.00  0.00     0.029 A 
HETATM   16  C   UNL     1      -1.150   5.405 -33.627  1.00  0.00     0.002 A 
HETATM   17  C   UNL     1      -1.728   5.460 -34.885  1.00  0.00     0.000 A 
HETATM   18  C   UNL     1      -3.110   5.470 -34.990  1.00  0.00     0.002 A 
HETATM   19  C   UNL     1      -3.908   5.425 -33.836  1.00  0.00     0.029 A 
ENDBRANCH  12  14
BRANCH   1  20
HETATM   20  C   UNL     1      -4.811   6.509 -27.976  1.00  0.00     0.230 C 
BRANCH  20  21
HETATM   21  C   UNL     1      -3.615   7.419 -27.682  1.00  0.00     0.240 C 
HETATM   22  N   UNL     1      -2.422   6.738 -27.537  1.00  0.00    -0.326 N 
HETATM   23  H   UNL     1      -2.481   5.726 -27.563  1.00  0.00     0.169 HD
HETATM   24  O   UNL     1      -3.759   8.638 -27.708  1.00  0.00    -0.271 OA
BRANCH  22  25
HETATM   25  C   UNL     1      -1.125   7.283 -27.431  1.00  0.00     0.037 A 
HETATM   26  C   UNL     1      -0.574   7.769 -26.244  1.00  0.00     0.066 A 
HETATM   27  C   UNL     1       0.698   8.356 -26.227  1.00  0.00     0.070 A 
HETATM   28  C   UNL     1       1.447   8.412 -27.402  1.00  0.00     0.037 A 
HETATM   29  C   UNL     1       0.913   7.914 -28.590  1.00  0.00     0.005 A 
HETATM   30  C   UNL     1      -0.370   7.363 -28.607  1.00  0.00     0.029 A 
BRANCH  27  31
HETATM   31  O   UNL     1       1.101   8.825 -25.006  1.00  0.00    -0.356 OA
HETATM   32  C   UNL     1       2.483   9.132 -24.869  1.00  0.00     0.210 C 
ENDBRANCH  27  31
ENDBRANCH  22  25
ENDBRANCH  20  21
ENDBRANCH   1  20
BRANCH   8  33
HETATM   33  C   UNL     1      -6.482  -0.439 -32.243  1.00  0.00     0.107 C 
BRANCH  33  34
HETATM   34  C   UNL     1      -5.331  -0.751 -33.195  1.00  0.00     0.047 C 
BRANCH  34  35
HETATM   35  C   UNL     1      -5.457  -2.124 -33.808  1.00  0.00    -0.058 A 
HETATM   36  C   UNL     1      -6.667  -2.546 -34.374  1.00  0.00     0.007 A 
HETATM   37  C   UNL     1      -6.775  -3.816 -34.942  1.00  0.00     0.001 A 
HETATM   38  C   UNL     1      -5.680  -4.679 -34.941  1.00  0.00     0.000 A 
HETATM   39  C   UNL     1      -4.474  -4.271 -34.371  1.00  0.00     0.001 A 
HETATM   40  C   UNL     1      -4.364  -3.001 -33.805  1.00  0.00     0.007 A 
ENDBRANCH  34  35
ENDBRANCH  33  34
ENDBRANCH   8  33
TORSDOF 8
ENDMDL
MODEL 2
REMARK VINA RESULT:     -10.2      1.242      1.895
REMARK  8 active torsions:
REMARK  status: ('A' for Active; 'I' for Inactive)
REMARK    1  A    between atoms: O_2  and  C_3 
REMARK    2  A    between atoms: C_5  and  N_6 
REMARK       I    between atoms: N_6  and  C_7 
REMARK    3  A    between atoms: C_7  and  C_8 
REMARK    4  A    between atoms: C_8  and  N_9 
REMARK       I    between atoms: N_15  and  C_16 
REMARK    5  A    between atoms: C_16  and  C_17 
REMARK    6  A    between atoms: C_17  and  C_18 
REMARK    7  A    between atoms: C_18  and  C_19 
REMARK    8  A    between atoms: N_28  and  C_29 
ROOT
HETATM    1  N   UNL     1      -5.672   5.092 -29.441  1.00  0.00    -0.325 N 
HETATM    2  C   UNL     1      -6.589   4.298 -30.082  1.00  0.00     0.250 C 
HETATM    3  O   UNL     1      -7.665   3.965 -29.610  1.00  0.00    -0.270 OA
HETATM    4  C   UNL     1      -5.999   3.903 -31.451  1.00  0.00     0.118 C 
HETATM    5  C   UNL     1      -7.054   4.174 -32.534  1.00  0.00     0.061 C 
HETATM    6  C   UNL     1      -8.138   3.101 -32.578  1.00  0.00     0.129 C 
HETATM    7  N   UNL     1      -7.561   1.760 -32.560  1.00  0.00    -0.352 N 
HETATM    8  C   UNL     1      -7.836   0.894 -33.608  1.00  0.00     0.220 C 
HETATM    9  O   UNL     1      -8.458   1.258 -34.609  1.00  0.00    -0.273 OA
HETATM   10  C   UNL     1      -6.735   1.467 -31.393  1.00  0.00     0.129 C 
HETATM   11  C   UNL     1      -5.554   2.432 -31.324  1.00  0.00     0.061 C 
HETATM   12  N   UNL     1      -4.829   4.826 -31.547  1.00  0.00    -0.346 N 
HETATM   13  C   UNL     1      -4.612   5.535 -30.291  1.00  0.00     0.254 C 
ENDROOT
BRANCH  12  14
HETATM   14  C   UNL     1      -3.940   4.979 -32.596  1.00  0.00     0.032 A 
HETATM   15  C   UNL     1      -4.386   5.192 -33.916  1.00  0.00     0.029 A 
HETATM   16  C   UNL     1      -3.507   5.341 -34.999  1.00  0.00     0.002 A 
HETATM   17  C   UNL     1      -2.137   5.286 -34.796  1.00  0.00     0.000 A 
HETATM   18  C   UNL     1      -1.656   5.078 -33.512  1.00  0.00     0.002 A 
HETATM   19  C   UNL     1      -2.546   4.925 -32.439  1.00  0.00     0.029 A 
ENDBRANCH  12  14
BRANCH   1  20
HETATM   20  C   UNL     1      -5.774   5.534 -28.060  1.00  0.00     0.230 C 
BRANCH  20  21
HETATM   21  C   UNL     1      -4.886   6.721 -27.678  1.00  0.00     0.240 C 
HETATM   22  N   UNL     1      -3.690   6.354 -27.092  1.00  0.00    -0.326 N 
HETATM   23  H   UNL     1      -3.568   5.363 -26.912  1.00  0.00     0.169 HD
HETATM   24  O   UNL     1      -5.218   7.858 -28.003  1.00  0.00    -0.271 OA
BRANCH  22  25
HETATM   25  C   UNL     1      -2.591   7.182 -26.784  1.00  0.00     0.037 A 
HETATM   26  C   UNL     1      -1.460   7.317 -27.591  1.00  0.00     0.066 A 
HETATM   27  C   UNL     1      -0.377   8.110 -27.189  1.00  0.00     0.070 A 
HETATM   28  C   UNL     1      -0.447   8.816 -25.989  1.00  0.00     0.037 A 
HETATM   29  C   UNL     1      -1.580   8.703 -25.183  1.00  0.00     0.005 A 
HETATM   30  C   UNL     1      -2.640   7.883 -25.572  1.00  0.00     0.029 A 
BRANCH  27  31
HETATM   31  O   UNL     1       0.683   8.122 -28.056  1.00  0.00    -0.356 OA
HETATM   32  C   UNL     1       0.557   7.317 -29.222  1.00  0.00     0.210 C 
ENDBRANCH  27  31
ENDBRANCH  22  25
ENDBRANCH  20  21
ENDBRANCH   1  20
BRANCH   8  33
HETATM   33  C   UNL     1      -7.409  -0.554 -33.493  1.00  0.00     0.107 C 
BRANCH  33  34
HETATM   34  C   UNL     1      -6.145  -0.790 -34.316  1.00  0.00     0.047 C 
BRANCH  34  35
HETATM   35  C   UNL     1      -5.782  -2.252 -34.395  1.00  0.00    -0.058 A 
HETATM   36  C   UNL     1      -6.731  -3.204 -34.789  1.00  0.00     0.007 A 
HETATM   37  C   UNL     1      -6.387  -4.555 -34.861  1.00  0.00     0.001 A 
HETATM   38  C   UNL     1      -5.096  -4.966 -34.535  1.00  0.00     0.000 A 
HETATM   39  C   UNL     1      -4.147  -4.027 -34.134  1.00  0.00     0.001 A 
HETATM   40  C   UNL     1      -4.490  -2.676 -34.062  1.00  0.00     0.007 A 
ENDBRANCH  34  35
ENDBRANCH  33  34
ENDBRANCH   8  33
TORSDOF 8
ENDMDL
MODEL 3
REMARK VINA RESULT:     -10.0      3.995      7.345
REMARK  8 active torsions:
REMARK  status: ('A' for Active; 'I' for Inactive)
REMARK    1  A    between atoms: O_2  and  C_3 
REMARK    2  A    between atoms: C_5  and  N_6 
REMARK       I    between atoms: N_6  and  C_7 
REMARK    3  A    between atoms: C_7  and  C_8 
REMARK    4  A    between atoms: C_8  and  N_9 
REMARK       I    between atoms: N_15  and  C_16 
REMARK    5  A    between atoms: C_16  and  C_17 
REMARK    6  A    between atoms: C_17  and  C_18 
REMARK    7  A    between atoms: C_18  and  C_19 
REMARK    8  A    between atoms: N_28  and  C_29 
ROOT
HETATM    1  N   UNL     1      -5.860   2.197 -31.359  1.00  0.00    -0.325 N 
HETATM    2  C   UNL     1      -7.060   2.505 -31.946  1.00  0.00     0.250 C 
HETATM    3  O   UNL     1      -7.654   3.561 -31.792  1.00  0.00    -0.270 OA
HETATM    4  C   UNL     1      -7.507   1.288 -32.781  1.00  0.00     0.118 C 
HETATM    5  C   UNL     1      -7.900   1.776 -34.183  1.00  0.00     0.061 C 
HETATM    6  C   UNL     1      -9.280   2.428 -34.211  1.00  0.00     0.129 C 
HETATM    7  N   UNL     1     -10.268   1.613 -33.509  1.00  0.00    -0.352 N 
HETATM    8  C   UNL     1     -11.387   1.169 -34.198  1.00  0.00     0.220 C 
HETATM    9  O   UNL     1     -11.518   1.344 -35.412  1.00  0.00    -0.273 OA
HETATM   10  C   UNL     1      -9.960   1.354 -32.106  1.00  0.00     0.129 C 
HETATM   11  C   UNL     1      -8.635   0.604 -31.984  1.00  0.00     0.061 C 
HETATM   12  N   UNL     1      -6.262   0.463 -32.790  1.00  0.00    -0.346 N 
HETATM   13  C   UNL     1      -5.258   1.012 -31.885  1.00  0.00     0.254 C 
ENDROOT
BRANCH  12  14
HETATM   14  C   UNL     1      -6.030  -0.735 -33.443  1.00  0.00     0.032 A 
HETATM   15  C   UNL     1      -4.733  -1.276 -33.555  1.00  0.00     0.029 A 
HETATM   16  C   UNL     1      -4.469  -2.484 -34.218  1.00  0.00     0.002 A 
HETATM   17  C   UNL     1      -5.505  -3.201 -34.795  1.00  0.00     0.000 A 
HETATM   18  C   UNL     1      -6.797  -2.704 -34.709  1.00  0.00     0.002 A 
HETATM   19  C   UNL     1      -7.046  -1.493 -34.047  1.00  0.00     0.029 A 
ENDBRANCH  12  14
BRANCH   1  20
HETATM   20  C   UNL     1      -5.187   3.011 -30.361  1.00  0.00     0.230 C 
BRANCH  20  21
HETATM   21  C   UNL     1      -4.503   4.275 -30.889  1.00  0.00     0.240 C 
HETATM   22  N   UNL     1      -3.420   4.019 -31.709  1.00  0.00    -0.326 N 
HETATM   23  H   UNL     1      -3.155   3.045 -31.805  1.00  0.00     0.169 HD
HETATM   24  O   UNL     1      -4.999   5.375 -30.662  1.00  0.00    -0.271 OA
BRANCH  22  25
HETATM   25  C   UNL     1      -2.688   4.943 -32.483  1.00  0.00     0.037 A 
HETATM   26  C   UNL     1      -2.560   6.298 -32.173  1.00  0.00     0.066 A 
HETATM   27  C   UNL     1      -1.868   7.170 -33.025  1.00  0.00     0.070 A 
HETATM   28  C   UNL     1      -1.256   6.671 -34.173  1.00  0.00     0.037 A 
HETATM   29  C   UNL     1      -1.363   5.316 -34.484  1.00  0.00     0.005 A 
HETATM   30  C   UNL     1      -2.083   4.458 -33.649  1.00  0.00     0.029 A 
BRANCH  27  31
HETATM   31  O   UNL     1      -1.853   8.478 -32.621  1.00  0.00    -0.356 OA
HETATM   32  C   UNL     1      -2.281   8.736 -31.290  1.00  0.00     0.210 C 
ENDBRANCH  27  31
ENDBRANCH  22  25
ENDBRANCH  20  21
ENDBRANCH   1  20
BRANCH   8  33
HETATM   33  C   UNL     1     -12.506   0.501 -33.426  1.00  0.00     0.107 C 
BRANCH  33  34
HETATM   34  C   UNL     1     -13.853   0.870 -34.041  1.00  0.00     0.047 C 
BRANCH  34  35
HETATM   35  C   UNL     1     -14.548   1.966 -33.271  1.00  0.00    -0.058 A 
HETATM   36  C   UNL     1     -13.883   3.161 -32.970  1.00  0.00     0.007 A 
HETATM   37  C   UNL     1     -14.533   4.171 -32.260  1.00  0.00     0.001 A 
HETATM   38  C   UNL     1     -15.850   3.993 -31.837  1.00  0.00     0.000 A 
HETATM   39  C   UNL     1     -16.517   2.803 -32.124  1.00  0.00     0.001 A 
HETATM   40  C   UNL     1     -15.868   1.793 -32.835  1.00  0.00     0.007 A 
ENDBRANCH  34  35
ENDBRANCH  33  34
ENDBRANCH   8  33
TORSDOF 8
ENDMDL
MODEL 4
REMARK VINA RESULT:     -10.0      4.103     10.941
REMARK  8 active torsions:
REMARK  status: ('A' for Active; 'I' for Inactive)
REMARK    1  A    between atoms: O_2  and  C_3 
REMARK    2  A    between atoms: C_5  and  N_6 
REMARK       I    between atoms: N_6  and  C_7 
REMARK    3  A    between atoms: C_7  and  C_8 
REMARK    4  A    between atoms: C_8  and  N_9 
REMARK       I    between atoms: N_15  and  C_16 
REMARK    5  A    between atoms: C_16  and  C_17 
REMARK    6  A    between atoms: C_17  and  C_18 
REMARK    7  A    between atoms: C_18  and  C_19 
REMARK    8  A    between atoms: N_28  and  C_29 
ROOT
HETATM    1  N   UNL     1      -8.527   4.039 -33.650  1.00  0.00    -0.325 N 
HETATM    2  C   UNL     1      -7.400   4.541 -33.051  1.00  0.00     0.250 C 
HETATM    3  O   UNL     1      -7.326   5.643 -32.530  1.00  0.00    -0.270 OA
HETATM    4  C   UNL     1      -6.281   3.488 -33.188  1.00  0.00     0.118 C 
HETATM    5  C   UNL     1      -5.638   3.278 -31.809  1.00  0.00     0.061 C 
HETATM    6  C   UNL     1      -4.674   4.401 -31.436  1.00  0.00     0.129 C 
HETATM    7  N   UNL     1      -3.762   4.708 -32.534  1.00  0.00    -0.352 N 
HETATM    8  C   UNL     1      -2.395   4.599 -32.326  1.00  0.00     0.220 C 
HETATM    9  O   UNL     1      -1.928   4.143 -31.279  1.00  0.00    -0.273 OA
HETATM   10  C   UNL     1      -4.416   5.118 -33.773  1.00  0.00     0.129 C 
HETATM   11  C   UNL     1      -5.329   4.006 -34.284  1.00  0.00     0.061 C 
HETATM   12  N   UNL     1      -7.052   2.295 -33.648  1.00  0.00    -0.346 N 
HETATM   13  C   UNL     1      -8.433   2.648 -33.963  1.00  0.00     0.254 C 
ENDROOT
BRANCH  12  14
HETATM   14  C   UNL     1      -6.589   1.013 -33.886  1.00  0.00     0.032 A 
HETATM   15  C   UNL     1      -7.198   0.174 -34.842  1.00  0.00     0.029 A 
HETATM   16  C   UNL     1      -6.755  -1.132 -35.097  1.00  0.00     0.002 A 
HETATM   17  C   UNL     1      -5.675  -1.648 -34.399  1.00  0.00     0.000 A 
HETATM   18  C   UNL     1      -5.047  -0.857 -33.449  1.00  0.00     0.002 A 
HETATM   19  C   UNL     1      -5.504   0.446 -33.201  1.00  0.00     0.029 A 
ENDBRANCH  12  14
BRANCH   1  20
HETATM   20  C   UNL     1      -9.750   4.789 -33.884  1.00  0.00     0.230 C 
BRANCH  20  21
HETATM   21  C   UNL     1     -10.950   3.966 -34.361  1.00  0.00     0.240 C 
HETATM   22  N   UNL     1     -11.516   3.185 -33.372  1.00  0.00    -0.326 N 
HETATM   23  H   UNL     1     -11.037   3.183 -32.478  1.00  0.00     0.169 HD
HETATM   24  O   UNL     1     -11.385   4.128 -35.498  1.00  0.00    -0.271 OA
BRANCH  22  25
HETATM   25  C   UNL     1     -12.718   2.450 -33.436  1.00  0.00     0.037 A 
HETATM   26  C   UNL     1     -13.801   2.643 -32.576  1.00  0.00     0.066 A 
HETATM   27  C   UNL     1     -14.940   1.831 -32.657  1.00  0.00     0.070 A 
HETATM   28  C   UNL     1     -15.017   0.848 -33.643  1.00  0.00     0.037 A 
HETATM   29  C   UNL     1     -13.948   0.658 -34.518  1.00  0.00     0.005 A 
HETATM   30  C   UNL     1     -12.802   1.447 -34.409  1.00  0.00     0.029 A 
BRANCH  27  31
HETATM   31  O   UNL     1     -15.910   2.103 -31.730  1.00  0.00    -0.356 OA
HETATM   32  C   UNL     1     -17.106   2.697 -32.219  1.00  0.00     0.210 C 
ENDBRANCH  27  31
ENDBRANCH  22  25
ENDBRANCH  20  21
ENDBRANCH   1  20
BRANCH   8  33
HETATM   33  C   UNL     1      -1.449   5.110 -33.392  1.00  0.00     0.107 C 
BRANCH  33  34
HETATM   34  C   UNL     1      -1.297   6.623 -33.270  1.00  0.00     0.047 C 
BRANCH  34  35
HETATM   35  C   UNL     1      -0.934   7.047 -31.868  1.00  0.00    -0.058 A 
HETATM   36  C   UNL     1       0.302   6.693 -31.312  1.00  0.00     0.007 A 
HETATM   37  C   UNL     1       0.631   7.090 -30.015  1.00  0.00     0.001 A 
HETATM   38  C   UNL     1      -0.272   7.837 -29.261  1.00  0.00     0.000 A 
HETATM   39  C   UNL     1      -1.508   8.186 -29.803  1.00  0.00     0.001 A 
HETATM   40  C   UNL     1      -1.838   7.791 -31.099  1.00  0.00     0.007 A 
ENDBRANCH  34  35
ENDBRANCH  33  34
ENDBRANCH   8  33
TORSDOF 8
ENDMDL
MODEL 5
REMARK VINA RESULT:      -9.9      2.241      3.880
REMARK  8 active torsions:
REMARK  status: ('A' for Active; 'I' for Inactive)
REMARK    1  A    between atoms: O_2  and  C_3 
REMARK    2  A    between atoms: C_5  and  N_6 
REMARK       I    between atoms: N_6  and  C_7 
REMARK    3  A    between atoms: C_7  and  C_8 
REMARK    4  A    between atoms: C_8  and  N_9 
REMARK       I    between atoms: N_15  and  C_16 
REMARK    5  A    between atoms: C_16  and  C_17 
REMARK    6  A    between atoms: C_17  and  C_18 
REMARK    7  A    between atoms: C_18  and  C_19 
REMARK    8  A    between atoms: N_28  and  C_29 
ROOT
HETATM    1  N   UNL     1      -3.973   5.863 -32.622  1.00  0.00    -0.325 N 
HETATM    2  C   UNL     1      -3.992   4.498 -32.489  1.00  0.00     0.250 C 
HETATM    3  O   UNL     1      -3.049   3.765 -32.750  1.00  0.00    -0.270 OA
HETATM    4  C   UNL     1      -5.393   4.088 -31.993  1.00  0.00     0.118 C 
HETATM    5  C   UNL     1      -5.229   3.143 -30.793  1.00  0.00     0.061 C 
HETATM    6  C   UNL     1      -4.852   1.724 -31.212  1.00  0.00     0.129 C 
HETATM    7  N   UNL     1      -5.701   1.247 -32.300  1.00  0.00    -0.352 N 
HETATM    8  C   UNL     1      -6.451   0.094 -32.113  1.00  0.00     0.220 C 
HETATM    9  O   UNL     1      -6.511  -0.476 -31.020  1.00  0.00    -0.273 OA
HETATM   10  C   UNL     1      -5.659   2.061 -33.510  1.00  0.00     0.129 C 
HETATM   11  C   UNL     1      -6.125   3.484 -33.208  1.00  0.00     0.061 C 
HETATM   12  N   UNL     1      -5.969   5.410 -31.606  1.00  0.00    -0.346 N 
HETATM   13  C   UNL     1      -5.102   6.507 -32.025  1.00  0.00     0.254 C 
ENDROOT
BRANCH  12  14
HETATM   14  C   UNL     1      -7.198   5.676 -31.029  1.00  0.00     0.032 A 
HETATM   15  C   UNL     1      -7.336   5.856 -29.638  1.00  0.00     0.029 A 
HETATM   16  C   UNL     1      -8.571   6.118 -29.026  1.00  0.00     0.002 A 
HETATM   17  C   UNL     1      -9.721   6.213 -29.793  1.00  0.00     0.000 A 
HETATM   18  C   UNL     1      -9.629   6.043 -31.166  1.00  0.00     0.002 A 
HETATM   19  C   UNL     1      -8.389   5.776 -31.764  1.00  0.00     0.029 A 
ENDBRANCH  12  14
BRANCH   1  20
HETATM   20  C   UNL     1      -2.893   6.627 -33.224  1.00  0.00     0.230 C 
BRANCH  20  21
HETATM   21  C   UNL     1      -2.152   7.580 -32.282  1.00  0.00     0.240 C 
HETATM   22  N   UNL     1      -1.997   7.085 -31.001  1.00  0.00    -0.326 N 
HETATM   23  H   UNL     1      -2.450   6.198 -30.808  1.00  0.00     0.169 HD
HETATM   24  O   UNL     1      -1.665   8.616 -32.726  1.00  0.00    -0.271 OA
BRANCH  22  25
HETATM   25  C   UNL     1      -1.224   7.630 -29.954  1.00  0.00     0.037 A 
HETATM   26  C   UNL     1      -1.668   8.637 -29.095  1.00  0.00     0.066 A 
HETATM   27  C   UNL     1      -0.821   9.175 -28.117  1.00  0.00     0.070 A 
HETATM   28  C   UNL     1       0.467   8.665 -27.963  1.00  0.00     0.037 A 
HETATM   29  C   UNL     1       0.915   7.646 -28.804  1.00  0.00     0.005 A 
HETATM   30  C   UNL     1       0.078   7.139 -29.801  1.00  0.00     0.029 A 
BRANCH  27  31
HETATM   31  O   UNL     1      -1.370  10.183 -27.370  1.00  0.00    -0.356 OA
HETATM   32  C   UNL     1      -2.753  10.443 -27.575  1.00  0.00     0.210 C 
ENDBRANCH  27  31
ENDBRANCH  22  25
ENDBRANCH  20  21
ENDBRANCH   1  20
BRANCH   8  33
HETATM   33  C   UNL     1      -7.169  -0.512 -33.300  1.00  0.00     0.107 C 
BRANCH  33  34
HETATM   34  C   UNL     1      -6.168  -0.825 -34.408  1.00  0.00     0.047 C 
BRANCH  34  35
HETATM   35  C   UNL     1      -5.771  -2.280 -34.423  1.00  0.00    -0.058 A 
HETATM   36  C   UNL     1      -6.686  -3.267 -34.809  1.00  0.00     0.007 A 
HETATM   37  C   UNL     1      -6.311  -4.611 -34.822  1.00  0.00     0.001 A 
HETATM   38  C   UNL     1      -5.022  -4.981 -34.442  1.00  0.00     0.000 A 
HETATM   39  C   UNL     1      -4.107  -4.007 -34.047  1.00  0.00     0.001 A 
HETATM   40  C   UNL     1      -4.480  -2.663 -34.035  1.00  0.00     0.007 A 
ENDBRANCH  34  35
ENDBRANCH  33  34
ENDBRANCH   8  33
TORSDOF 8
ENDMDL
MODEL 6
REMARK VINA RESULT:      -9.9      2.845      9.648
REMARK  8 active torsions:
REMARK  status: ('A' for Active; 'I' for Inactive)
REMARK    1  A    between atoms: O_2  and  C_3 
REMARK    2  A    between atoms: C_5  and  N_6 
REMARK       I    between atoms: N_6  and  C_7 
REMARK    3  A    between atoms: C_7  and  C_8 
REMARK    4  A    between atoms: C_8  and  N_9 
REMARK       I    between atoms: N_15  and  C_16 
REMARK    5  A    between atoms: C_16  and  C_17 
REMARK    6  A    between atoms: C_17  and  C_18 
REMARK    7  A    between atoms: C_18  and  C_19 
REMARK    8  A    between atoms: N_28  and  C_29 
ROOT
HETATM    1  N   UNL     1      -7.335   2.867 -31.692  1.00  0.00    -0.325 N 
HETATM    2  C   UNL     1      -6.391   3.327 -32.573  1.00  0.00     0.250 C 
HETATM    3  O   UNL     1      -6.115   2.787 -33.634  1.00  0.00    -0.270 OA
HETATM    4  C   UNL     1      -5.751   4.593 -31.968  1.00  0.00     0.118 C 
HETATM    5  C   UNL     1      -5.753   5.698 -33.034  1.00  0.00     0.061 C 
HETATM    6  C   UNL     1      -4.648   5.514 -34.071  1.00  0.00     0.129 C 
HETATM    7  N   UNL     1      -3.365   5.231 -33.436  1.00  0.00    -0.352 N 
HETATM    8  C   UNL     1      -2.293   6.080 -33.673  1.00  0.00     0.220 C 
HETATM    9  O   UNL     1      -2.420   7.128 -34.311  1.00  0.00    -0.273 OA
HETATM   10  C   UNL     1      -3.349   4.037 -32.597  1.00  0.00     0.129 C 
HETATM   11  C   UNL     1      -4.357   4.175 -31.459  1.00  0.00     0.061 C 
HETATM   12  N   UNL     1      -6.685   4.884 -30.839  1.00  0.00    -0.346 N 
HETATM   13  C   UNL     1      -7.642   3.799 -30.652  1.00  0.00     0.254 C 
ENDROOT
BRANCH  12  14
HETATM   14  C   UNL     1      -6.660   5.951 -29.958  1.00  0.00     0.032 A 
HETATM   15  C   UNL     1      -7.384   7.133 -30.210  1.00  0.00     0.029 A 
HETATM   16  C   UNL     1      -7.370   8.232 -29.338  1.00  0.00     0.002 A 
HETATM   17  C   UNL     1      -6.626   8.184 -28.171  1.00  0.00     0.000 A 
HETATM   18  C   UNL     1      -5.898   7.039 -27.884  1.00  0.00     0.002 A 
HETATM   19  C   UNL     1      -5.918   5.949 -28.767  1.00  0.00     0.029 A 
ENDBRANCH  12  14
BRANCH   1  20
HETATM   20  C   UNL     1      -8.043   1.604 -31.812  1.00  0.00     0.230 C 
BRANCH  20  21
HETATM   21  C   UNL     1      -7.173   0.347 -31.730  1.00  0.00     0.240 C 
HETATM   22  N   UNL     1      -6.753  -0.119 -32.961  1.00  0.00    -0.326 N 
HETATM   23  H   UNL     1      -7.124   0.366 -33.771  1.00  0.00     0.169 HD
HETATM   24  O   UNL     1      -6.823  -0.079 -30.632  1.00  0.00    -0.271 OA
BRANCH  22  25
HETATM   25  C   UNL     1      -5.814  -1.139 -33.222  1.00  0.00     0.037 A 
HETATM   26  C   UNL     1      -5.986  -2.133 -34.188  1.00  0.00     0.066 A 
HETATM   27  C   UNL     1      -5.039  -3.154 -34.348  1.00  0.00     0.070 A 
HETATM   28  C   UNL     1      -3.884  -3.151 -33.568  1.00  0.00     0.037 A 
HETATM   29  C   UNL     1      -3.694  -2.154 -32.613  1.00  0.00     0.005 A 
HETATM   30  C   UNL     1      -4.658  -1.160 -32.433  1.00  0.00     0.029 A 
BRANCH  27  31
HETATM   31  O   UNL     1      -5.351  -4.084 -35.303  1.00  0.00    -0.356 OA
HETATM   32  C   UNL     1      -6.702  -4.524 -35.342  1.00  0.00     0.210 C 
ENDBRANCH  27  31
ENDBRANCH  22  25
ENDBRANCH  20  21
ENDBRANCH   1  20
BRANCH   8  33
HETATM   33  C   UNL     1      -0.918   5.678 -33.184  1.00  0.00     0.107 C 
BRANCH  33  34
HETATM   34  C   UNL     1      -0.275   6.840 -32.431  1.00  0.00     0.047 C 
BRANCH  34  35
HETATM   35  C   UNL     1       0.090   6.468 -31.016  1.00  0.00    -0.058 A 
HETATM   36  C   UNL     1       0.496   5.165 -30.701  1.00  0.00     0.007 A 
HETATM   37  C   UNL     1       0.835   4.829 -29.390  1.00  0.00     0.001 A 
HETATM   38  C   UNL     1       0.764   5.788 -28.381  1.00  0.00     0.000 A 
HETATM   39  C   UNL     1       0.352   7.085 -28.682  1.00  0.00     0.001 A 
HETATM   40  C   UNL     1       0.014   7.423 -29.993  1.00  0.00     0.007 A 
ENDBRANCH  34  35
ENDBRANCH  33  34
ENDBRANCH   8  33
TORSDOF 8
ENDMDL
MODEL 7
REMARK VINA RESULT:      -9.8      3.632     10.350
REMARK  8 active torsions:
REMARK  status: ('A' for Active; 'I' for Inactive)
REMARK    1  A    between atoms: O_2  and  C_3 
REMARK    2  A    between atoms: C_5  and  N_6 
REMARK       I    between atoms: N_6  and  C_7 
REMARK    3  A    between atoms: C_7  and  C_8 
REMARK    4  A    between atoms: C_8  and  N_9 
REMARK       I    between atoms: N_15  and  C_16 
REMARK    5  A    between atoms: C_16  and  C_17 
REMARK    6  A    between atoms: C_17  and  C_18 
REMARK    7  A    between atoms: C_18  and  C_19 
REMARK    8  A    between atoms: N_28  and  C_29 
ROOT
HETATM    1  N   UNL     1      -7.115   2.179 -31.483  1.00  0.00    -0.325 N 
HETATM    2  C   UNL     1      -6.257   2.719 -32.407  1.00  0.00     0.250 C 
HETATM    3  O   UNL     1      -5.978   2.201 -33.477  1.00  0.00    -0.270 OA
HETATM    4  C   UNL     1      -5.717   4.045 -31.834  1.00  0.00     0.118 C 
HETATM    5  C   UNL     1      -5.870   5.137 -32.903  1.00  0.00     0.061 C 
HETATM    6  C   UNL     1      -4.799   5.052 -33.986  1.00  0.00     0.129 C 
HETATM    7  N   UNL     1      -3.467   4.897 -33.408  1.00  0.00    -0.352 N 
HETATM    8  C   UNL     1      -2.494   5.843 -33.695  1.00  0.00     0.220 C 
HETATM    9  O   UNL     1      -2.747   6.869 -34.330  1.00  0.00    -0.273 OA
HETATM   10  C   UNL     1      -3.301   3.716 -32.566  1.00  0.00     0.129 C 
HETATM   11  C   UNL     1      -4.268   3.766 -31.386  1.00  0.00     0.061 C 
HETATM   12  N   UNL     1      -6.623   4.255 -30.666  1.00  0.00    -0.346 N 
HETATM   13  C   UNL     1      -7.464   3.085 -30.434  1.00  0.00     0.254 C 
ENDROOT
BRANCH  12  14
HETATM   14  C   UNL     1      -6.663   5.325 -29.791  1.00  0.00     0.032 A 
HETATM   15  C   UNL     1      -5.773   5.420 -28.701  1.00  0.00     0.029 A 
HETATM   16  C   UNL     1      -5.796   6.489 -27.794  1.00  0.00     0.002 A 
HETATM   17  C   UNL     1      -6.717   7.512 -27.948  1.00  0.00     0.000 A 
HETATM   18  C   UNL     1      -7.611   7.459 -29.007  1.00  0.00     0.002 A 
HETATM   19  C   UNL     1      -7.580   6.381 -29.904  1.00  0.00     0.029 A 
ENDBRANCH  12  14
BRANCH   1  20
HETATM   20  C   UNL     1      -7.704   0.852 -31.569  1.00  0.00     0.230 C 
BRANCH  20  21
HETATM   21  C   UNL     1      -8.792   0.679 -32.631  1.00  0.00     0.240 C 
HETATM   22  N   UNL     1      -9.723   1.700 -32.644  1.00  0.00    -0.326 N 
HETATM   23  H   UNL     1      -9.630   2.397 -31.913  1.00  0.00     0.169 HD
HETATM   24  O   UNL     1      -8.712  -0.243 -33.439  1.00  0.00    -0.271 OA
BRANCH  22  25
HETATM   25  C   UNL     1     -10.740   1.927 -33.595  1.00  0.00     0.037 A 
HETATM   26  C   UNL     1     -11.869   1.120 -33.743  1.00  0.00     0.066 A 
HETATM   27  C   UNL     1     -12.808   1.370 -34.753  1.00  0.00     0.070 A 
HETATM   28  C   UNL     1     -12.640   2.471 -35.593  1.00  0.00     0.037 A 
HETATM   29  C   UNL     1     -11.524   3.294 -35.442  1.00  0.00     0.005 A 
HETATM   30  C   UNL     1     -10.575   3.018 -34.457  1.00  0.00     0.029 A 
BRANCH  27  31
HETATM   31  O   UNL     1     -13.845   0.479 -34.810  1.00  0.00    -0.356 OA
HETATM   32  C   UNL     1     -15.020   0.827 -34.088  1.00  0.00     0.210 C 
ENDBRANCH  27  31
ENDBRANCH  22  25
ENDBRANCH  20  21
ENDBRANCH   1  20
BRANCH   8  33
HETATM   33  C   UNL     1      -1.066   5.578 -33.265  1.00  0.00     0.107 C 
BRANCH  33  34
HETATM   34  C   UNL     1      -0.521   6.783 -32.503  1.00  0.00     0.047 C 
BRANCH  34  35
HETATM   35  C   UNL     1      -0.084   6.422 -31.106  1.00  0.00    -0.058 A 
HETATM   36  C   UNL     1      -0.167   7.358 -30.066  1.00  0.00     0.007 A 
HETATM   37  C   UNL     1       0.237   7.016 -28.775  1.00  0.00     0.001 A 
HETATM   38  C   UNL     1       0.735   5.740 -28.512  1.00  0.00     0.000 A 
HETATM   39  C   UNL     1       0.829   4.805 -29.542  1.00  0.00     0.001 A 
HETATM   40  C   UNL     1       0.425   5.146 -30.833  1.00  0.00     0.007 A 
ENDBRANCH  34  35
ENDBRANCH  33  34
ENDBRANCH   8  33
TORSDOF 8
ENDMDL
MODEL 8
REMARK VINA RESULT:      -9.7      2.874      9.373
REMARK  8 active torsions:
REMARK  status: ('A' for Active; 'I' for Inactive)
REMARK    1  A    between atoms: O_2  and  C_3 
REMARK    2  A    between atoms: C_5  and  N_6 
REMARK       I    between atoms: N_6  and  C_7 
REMARK    3  A    between atoms: C_7  and  C_8 
REMARK    4  A    between atoms: C_8  and  N_9 
REMARK       I    between atoms: N_15  and  C_16 
REMARK    5  A    between atoms: C_16  and  C_17 
REMARK    6  A    between atoms: C_17  and  C_18 
REMARK    7  A    between atoms: C_18  and  C_19 
REMARK    8  A    between atoms: N_28  and  C_29 
ROOT
HETATM    1  N   UNL     1      -7.740   2.880 -31.633  1.00  0.00    -0.325 N 
HETATM    2  C   UNL     1      -6.778   3.310 -32.511  1.00  0.00     0.250 C 
HETATM    3  O   UNL     1      -6.516   2.762 -33.572  1.00  0.00    -0.270 OA
HETATM    4  C   UNL     1      -6.101   4.555 -31.903  1.00  0.00     0.118 C 
HETATM    5  C   UNL     1      -6.065   5.660 -32.968  1.00  0.00     0.061 C 
HETATM    6  C   UNL     1      -4.963   5.442 -34.001  1.00  0.00     0.129 C 
HETATM    7  N   UNL     1      -3.691   5.118 -33.363  1.00  0.00    -0.352 N 
HETATM    8  C   UNL     1      -2.593   5.934 -33.597  1.00  0.00     0.220 C 
HETATM    9  O   UNL     1      -2.685   6.986 -34.234  1.00  0.00    -0.273 OA
HETATM   10  C   UNL     1      -3.715   3.924 -32.525  1.00  0.00     0.129 C 
HETATM   11  C   UNL     1      -4.723   4.093 -31.390  1.00  0.00     0.061 C 
HETATM   12  N   UNL     1      -7.028   4.875 -30.776  1.00  0.00    -0.346 N 
HETATM   13  C   UNL     1      -8.020   3.820 -30.593  1.00  0.00     0.254 C 
ENDROOT
BRANCH  12  14
HETATM   14  C   UNL     1      -6.973   5.939 -29.894  1.00  0.00     0.032 A 
HETATM   15  C   UNL     1      -8.131   6.436 -29.264  1.00  0.00     0.029 A 
HETATM   16  C   UNL     1      -8.105   7.519 -28.372  1.00  0.00     0.002 A 
HETATM   17  C   UNL     1      -6.905   8.146 -28.075  1.00  0.00     0.000 A 
HETATM   18  C   UNL     1      -5.741   7.689 -28.674  1.00  0.00     0.002 A 
HETATM   19  C   UNL     1      -5.783   6.608 -29.568  1.00  0.00     0.029 A 
ENDBRANCH  12  14
BRANCH   1  20
HETATM   20  C   UNL     1      -8.487   1.639 -31.757  1.00  0.00     0.230 C 
BRANCH  20  21
HETATM   21  C   UNL     1      -7.645   0.361 -31.796  1.00  0.00     0.240 C 
HETATM   22  N   UNL     1      -7.416  -0.115 -33.072  1.00  0.00    -0.326 N 
HETATM   23  H   UNL     1      -7.887   0.380 -33.823  1.00  0.00     0.169 HD
HETATM   24  O   UNL     1      -7.153  -0.075 -30.758  1.00  0.00    -0.271 OA
BRANCH  22  25
HETATM   25  C   UNL     1      -6.551  -1.158 -33.462  1.00  0.00     0.037 A 
HETATM   26  C   UNL     1      -5.248  -1.314 -32.985  1.00  0.00     0.066 A 
HETATM   27  C   UNL     1      -4.422  -2.339 -33.466  1.00  0.00     0.070 A 
HETATM   28  C   UNL     1      -4.922  -3.248 -34.397  1.00  0.00     0.037 A 
HETATM   29  C   UNL     1      -6.228  -3.112 -34.868  1.00  0.00     0.005 A 
HETATM   30  C   UNL     1      -7.034  -2.067 -34.411  1.00  0.00     0.029 A 
BRANCH  27  31
HETATM   31  O   UNL     1      -3.157  -2.354 -32.943  1.00  0.00    -0.356 OA
HETATM   32  C   UNL     1      -2.933  -1.534 -31.803  1.00  0.00     0.210 C 
ENDBRANCH  27  31
ENDBRANCH  22  25
ENDBRANCH  20  21
ENDBRANCH   1  20
BRANCH   8  33
HETATM   33  C   UNL     1      -1.232   5.488 -33.103  1.00  0.00     0.107 C 
BRANCH  33  34
HETATM   34  C   UNL     1      -0.500   6.667 -32.468  1.00  0.00     0.047 C 
BRANCH  34  35
HETATM   35  C   UNL     1      -0.066   6.371 -31.054  1.00  0.00    -0.058 A 
HETATM   36  C   UNL     1       0.471   5.123 -30.717  1.00  0.00     0.007 A 
HETATM   37  C   UNL     1       0.873   4.857 -29.407  1.00  0.00     0.001 A 
HETATM   38  C   UNL     1       0.733   5.833 -28.421  1.00  0.00     0.000 A 
HETATM   39  C   UNL     1       0.191   7.076 -28.745  1.00  0.00     0.001 A 
HETATM   40  C   UNL     1      -0.209   7.343 -30.054  1.00  0.00     0.007 A 
ENDBRANCH  34  35
ENDBRANCH  33  34
ENDBRANCH   8  33
TORSDOF 8
ENDMDL
MODEL 9
REMARK VINA RESULT:      -9.6      3.620     10.255
REMARK  8 active torsions:
REMARK  status: ('A' for Active; 'I' for Inactive)
REMARK    1  A    between atoms: O_2  and  C_3 
REMARK    2  A    between atoms: C_5  and  N_6 
REMARK       I    between atoms: N_6  and  C_7 
REMARK    3  A    between atoms: C_7  and  C_8 
REMARK    4  A    between atoms: C_8  and  N_9 
REMARK       I    between atoms: N_15  and  C_16 
REMARK    5  A    between atoms: C_16  and  C_17 
REMARK    6  A    between atoms: C_17  and  C_18 
REMARK    7  A    between atoms: C_18  and  C_19 
REMARK    8  A    between atoms: N_28  and  C_29 
ROOT
HETATM    1  N   UNL     1      -9.145   0.711 -32.794  1.00  0.00    -0.325 N 
HETATM    2  C   UNL     1      -8.158   1.487 -32.242  1.00  0.00     0.250 C 
HETATM    3  O   UNL     1      -8.360   2.486 -31.567  1.00  0.00    -0.270 OA
HETATM    4  C   UNL     1      -6.797   0.887 -32.651  1.00  0.00     0.118 C 
HETATM    5  C   UNL     1      -5.927   0.748 -31.393  1.00  0.00     0.061 C 
HETATM    6  C   UNL     1      -5.322   2.077 -30.950  1.00  0.00     0.129 C 
HETATM    7  N   UNL     1      -4.723   2.790 -32.074  1.00  0.00    -0.352 N 
HETATM    8  C   UNL     1      -3.375   3.118 -32.023  1.00  0.00     0.220 C 
HETATM    9  O   UNL     1      -2.642   2.727 -31.112  1.00  0.00    -0.273 OA
HETATM   10  C   UNL     1      -5.645   3.098 -33.162  1.00  0.00     0.129 C 
HETATM   11  C   UNL     1      -6.226   1.811 -33.744  1.00  0.00     0.061 C 
HETATM   12  N   UNL     1      -7.213  -0.434 -33.209  1.00  0.00    -0.346 N 
HETATM   13  C   UNL     1      -8.665  -0.526 -33.325  1.00  0.00     0.254 C 
ENDROOT
BRANCH  12  14
HETATM   14  C   UNL     1      -6.410  -1.455 -33.687  1.00  0.00     0.032 A 
HETATM   15  C   UNL     1      -6.931  -2.485 -34.496  1.00  0.00     0.029 A 
HETATM   16  C   UNL     1      -6.142  -3.537 -34.987  1.00  0.00     0.002 A 
HETATM   17  C   UNL     1      -4.791  -3.592 -34.684  1.00  0.00     0.000 A 
HETATM   18  C   UNL     1      -4.238  -2.598 -33.890  1.00  0.00     0.002 A 
HETATM   19  C   UNL     1      -5.040  -1.555 -33.403  1.00  0.00     0.029 A 
ENDBRANCH  12  14
BRANCH   1  20
HETATM   20  C   UNL     1     -10.562   1.035 -32.785  1.00  0.00     0.230 C 
BRANCH  20  21
HETATM   21  C   UNL     1     -11.015   2.050 -33.838  1.00  0.00     0.240 C 
HETATM   22  N   UNL     1     -11.000   3.357 -33.391  1.00  0.00    -0.326 N 
HETATM   23  H   UNL     1     -10.771   3.491 -32.412  1.00  0.00     0.169 HD
HETATM   24  O   UNL     1     -11.240   1.676 -34.986  1.00  0.00    -0.271 OA
BRANCH  22  25
HETATM   25  C   UNL     1     -11.194   4.531 -34.150  1.00  0.00     0.037 A 
HETATM   26  C   UNL     1     -12.443   5.005 -34.555  1.00  0.00     0.066 A 
HETATM   27  C   UNL     1     -12.555   6.144 -35.363  1.00  0.00     0.070 A 
HETATM   28  C   UNL     1     -11.406   6.846 -35.728  1.00  0.00     0.037 A 
HETATM   29  C   UNL     1     -10.154   6.391 -35.314  1.00  0.00     0.005 A 
HETATM   30  C   UNL     1     -10.048   5.235 -34.539  1.00  0.00     0.029 A 
BRANCH  27  31
HETATM   31  O   UNL     1     -13.834   6.476 -35.719  1.00  0.00    -0.356 OA
HETATM   32  C   UNL     1     -14.623   7.116 -34.724  1.00  0.00     0.210 C 
ENDBRANCH  27  31
ENDBRANCH  22  25
ENDBRANCH  20  21
ENDBRANCH   1  20
BRANCH   8  33
HETATM   33  C   UNL     1      -2.803   4.030 -33.088  1.00  0.00     0.107 C 
BRANCH  33  34
HETATM   34  C   UNL     1      -2.987   5.488 -32.676  1.00  0.00     0.047 C 
BRANCH  34  35
HETATM   35  C   UNL     1      -1.837   5.992 -31.841  1.00  0.00    -0.058 A 
HETATM   36  C   UNL     1      -0.561   5.429 -31.966  1.00  0.00     0.007 A 
HETATM   37  C   UNL     1       0.499   5.902 -31.192  1.00  0.00     0.001 A 
HETATM   38  C   UNL     1       0.292   6.937 -30.280  1.00  0.00     0.000 A 
HETATM   39  C   UNL     1      -0.977   7.497 -30.142  1.00  0.00     0.001 A 
HETATM   40  C   UNL     1      -2.037   7.026 -30.916  1.00  0.00     0.007 A 
ENDBRANCH  34  35
ENDBRANCH  33  34
ENDBRANCH   8  33
TORSDOF 8
ENDMDL
MODEL 10
REMARK VINA RESULT:      -9.5      6.667      9.678
REMARK  8 active torsions:
REMARK  status: ('A' for Active; 'I' for Inactive)
REMARK    1  A    between atoms: O_2  and  C_3 
REMARK    2  A    between atoms: C_5  and  N_6 
REMARK       I    between atoms: N_6  and  C_7 
REMARK    3  A    between atoms: C_7  and  C_8 
REMARK    4  A    between atoms: C_8  and  N_9 
REMARK       I    between atoms: N_15  and  C_16 
REMARK    5  A    between atoms: C_16  and  C_17 
REMARK    6  A    between atoms: C_17  and  C_18 
REMARK    7  A    between atoms: C_18  and  C_19 
REMARK    8  A    between atoms: N_28  and  C_29 
ROOT
HETATM    1  N   UNL     1     -10.934   5.600 -32.604  1.00  0.00    -0.325 N 
HETATM    2  C   UNL     1      -9.824   4.842 -32.332  1.00  0.00     0.250 C 
HETATM    3  O   UNL     1      -8.769   5.289 -31.908  1.00  0.00    -0.270 OA
HETATM    4  C   UNL     1     -10.151   3.377 -32.683  1.00  0.00     0.118 C 
HETATM    5  C   UNL     1      -9.745   2.489 -31.497  1.00  0.00     0.061 C 
HETATM    6  C   UNL     1      -8.240   2.244 -31.438  1.00  0.00     0.129 C 
HETATM    7  N   UNL     1      -7.710   1.861 -32.743  1.00  0.00    -0.352 N 
HETATM    8  C   UNL     1      -7.057   0.644 -32.875  1.00  0.00     0.220 C 
HETATM    9  O   UNL     1      -7.009  -0.174 -31.953  1.00  0.00    -0.273 OA
HETATM   10  C   UNL     1      -7.928   2.841 -33.802  1.00  0.00     0.129 C 
HETATM   11  C   UNL     1      -9.423   3.074 -34.008  1.00  0.00     0.061 C 
HETATM   12  N   UNL     1     -11.631   3.441 -32.870  1.00  0.00    -0.346 N 
HETATM   13  C   UNL     1     -12.107   4.820 -32.852  1.00  0.00     0.254 C 
ENDROOT
BRANCH  12  14
HETATM   14  C   UNL     1     -12.508   2.406 -33.144  1.00  0.00     0.032 A 
HETATM   15  C   UNL     1     -12.056   1.171 -33.653  1.00  0.00     0.029 A 
HETATM   16  C   UNL     1     -12.923   0.109 -33.947  1.00  0.00     0.002 A 
HETATM   17  C   UNL     1     -14.286   0.245 -33.736  1.00  0.00     0.000 A 
HETATM   18  C   UNL     1     -14.773   1.443 -33.237  1.00  0.00     0.002 A 
HETATM   19  C   UNL     1     -13.895   2.499 -32.952  1.00  0.00     0.029 A 
ENDBRANCH  12  14
BRANCH   1  20
HETATM   20  C   UNL     1     -10.982   7.052 -32.569  1.00  0.00     0.230 C 
BRANCH  20  21
HETATM   21  C   UNL     1     -10.655   7.757 -33.888  1.00  0.00     0.240 C 
HETATM   22  N   UNL     1     -11.463   7.369 -34.939  1.00  0.00    -0.326 N 
HETATM   23  H   UNL     1     -12.117   6.619 -34.745  1.00  0.00     0.169 HD
HETATM   24  O   UNL     1      -9.821   8.659 -33.905  1.00  0.00    -0.271 OA
BRANCH  22  25
HETATM   25  C   UNL     1     -11.536   7.941 -36.227  1.00  0.00     0.037 A 
HETATM   26  C   UNL     1     -10.458   8.540 -36.881  1.00  0.00     0.066 A 
HETATM   27  C   UNL     1     -10.620   9.145 -38.134  1.00  0.00     0.070 A 
HETATM   28  C   UNL     1     -11.863   9.105 -38.763  1.00  0.00     0.037 A 
HETATM   29  C   UNL     1     -12.943   8.493 -38.127  1.00  0.00     0.005 A 
HETATM   30  C   UNL     1     -12.783   7.923 -36.862  1.00  0.00     0.029 A 
BRANCH  27  31
HETATM   31  O   UNL     1      -9.491   9.730 -38.643  1.00  0.00    -0.356 OA
HETATM   32  C   UNL     1      -9.506  11.147 -38.752  1.00  0.00     0.210 C 
ENDBRANCH  27  31
ENDBRANCH  22  25
ENDBRANCH  20  21
ENDBRANCH   1  20
BRANCH   8  33
HETATM   33  C   UNL     1      -6.333   0.337 -34.169  1.00  0.00     0.107 C 
BRANCH  33  34
HETATM   34  C   UNL     1      -7.006  -0.837 -34.874  1.00  0.00     0.047 C 
BRANCH  34  35
HETATM   35  C   UNL     1      -6.241  -2.124 -34.692  1.00  0.00    -0.058 A 
HETATM   36  C   UNL     1      -6.835  -3.358 -34.988  1.00  0.00     0.007 A 
HETATM   37  C   UNL     1      -6.119  -4.544 -34.819  1.00  0.00     0.001 A 
HETATM   38  C   UNL     1      -4.808  -4.509 -34.347  1.00  0.00     0.000 A 
HETATM   39  C   UNL     1      -4.211  -3.287 -34.041  1.00  0.00     0.001 A 
HETATM   40  C   UNL     1      -4.925  -2.100 -34.210  1.00  0.00     0.007 A 
ENDBRANCH  34  35
ENDBRANCH  33  34
ENDBRANCH   8  33
TORSDOF 8
ENDMDL
