MODEL 1
REMARK VINA RESULT:      -8.6      0.000      0.000
REMARK  6 active torsions:
REMARK  status: ('A' for Active; 'I' for Inactive)
REMARK    1  A    between atoms: C_3  and  C_4 
REMARK    2  A    between atoms: C_4  and  N_5 
REMARK    3  A    between atoms: N_5  and  C_6 
REMARK    4  A    between atoms: C_8  and  N_9 
REMARK    5  A    between atoms: C_11  and  N_12 
REMARK    6  A    between atoms: C_18  and  N_19 
ROOT
HETATM    1  C   UNL     1      -4.246   0.198 -31.545  1.00  0.00     0.110 A 
HETATM    2  N   UNL     1      -5.239   0.434 -30.676  1.00  0.00    -0.206 NA
HETATM    3  C   UNL     1      -5.421   1.692 -30.273  1.00  0.00     0.202 A 
HETATM    4  N   UNL     1      -4.708   2.736 -30.687  1.00  0.00    -0.199 NA
HETATM    5  C   UNL     1      -3.720   2.472 -31.573  1.00  0.00     0.156 A 
HETATM    6  C   UNL     1      -3.455   1.203 -32.047  1.00  0.00     0.096 A 
ENDROOT
BRANCH   1   7
HETATM    7  N   UNL     1      -4.108  -1.140 -31.931  1.00  0.00    -0.273 NA
HETATM    8  H   UNL     1      -3.272  -1.424 -31.420  1.00  0.00     0.129 HD
BRANCH   7   9
HETATM    9  C   UNL     1      -3.934  -1.337 -33.371  1.00  0.00     0.134 C 
BRANCH   9  10
HETATM   10  C   UNL     1      -4.787  -2.462 -33.951  1.00  0.00    -0.018 A 
HETATM   11  C   UNL     1      -4.241  -3.762 -34.071  1.00  0.00     0.011 A 
HETATM   12  C   UNL     1      -4.983  -4.842 -34.556  1.00  0.00     0.001 A 
HETATM   13  C   UNL     1      -6.301  -4.657 -34.935  1.00  0.00     0.002 A 
HETATM   14  C   UNL     1      -6.876  -3.393 -34.831  1.00  0.00     0.030 A 
HETATM   15  C   UNL     1      -6.139  -2.285 -34.356  1.00  0.00     0.047 A 
BRANCH  15  16
HETATM   16  N   UNL     1      -6.832  -1.034 -34.308  1.00  0.00    -0.315 N 
HETATM   17  C   UNL     1      -6.961  -0.072 -35.287  1.00  0.00     0.214 A 
HETATM   18  N   UNL     1      -7.666   0.967 -34.896  1.00  0.00    -0.254 NA
HETATM   19  C   UNL     1      -8.057   0.672 -33.625  1.00  0.00     0.135 A 
HETATM   20  C   UNL     1      -7.581  -0.559 -33.246  1.00  0.00     0.117 A 
ENDBRANCH  15  16
ENDBRANCH   9  10
ENDBRANCH   7   9
ENDBRANCH   1   7
BRANCH   3  21
HETATM   21  N   UNL     1      -6.453   1.935 -29.391  1.00  0.00    -0.271 NA
HETATM   22  H   UNL     1      -7.329   1.642 -29.802  1.00  0.00     0.127 HD
HETATM   23  H   UNL     1      -6.399   2.884 -29.051  1.00  0.00     0.127 HD
ENDBRANCH   3  21
BRANCH   5  24
HETATM   24  N   UNL     1      -2.920   3.561 -32.026  1.00  0.00    -0.227 N 
HETATM   25  N   UNL     1      -1.835   4.006 -31.334  1.00  0.00    -0.179 NA
HETATM   26  C   UNL     1      -1.380   5.032 -32.057  1.00  0.00     0.141 A 
HETATM   27  C   UNL     1      -2.142   5.261 -33.213  1.00  0.00     0.040 A 
HETATM   28  C   UNL     1      -3.125   4.303 -33.172  1.00  0.00     0.122 A 
ENDBRANCH   5  24
TORSDOF 6
ENDMDL
MODEL 2
REMARK VINA RESULT:      -7.9      1.597      3.190
REMARK  6 active torsions:
REMARK  status: ('A' for Active; 'I' for Inactive)
REMARK    1  A    between atoms: C_3  and  C_4 
REMARK    2  A    between atoms: C_4  and  N_5 
REMARK    3  A    between atoms: N_5  and  C_6 
REMARK    4  A    between atoms: C_8  and  N_9 
REMARK    5  A    between atoms: C_11  and  N_12 
REMARK    6  A    between atoms: C_18  and  N_19 
ROOT
HETATM    1  C   UNL     1      -4.599   0.521 -31.561  1.00  0.00     0.110 A 
HETATM    2  N   UNL     1      -3.482   1.262 -31.549  1.00  0.00    -0.206 NA
HETATM    3  C   UNL     1      -3.603   2.557 -31.252  1.00  0.00     0.202 A 
HETATM    4  N   UNL     1      -4.745   3.164 -30.943  1.00  0.00    -0.199 NA
HETATM    5  C   UNL     1      -5.855   2.390 -30.951  1.00  0.00     0.156 A 
HETATM    6  C   UNL     1      -5.830   1.043 -31.247  1.00  0.00     0.096 A 
ENDROOT
BRANCH   1   7
HETATM    7  N   UNL     1      -4.404  -0.828 -31.878  1.00  0.00    -0.273 NA
HETATM    8  H   UNL     1      -3.614  -1.075 -31.281  1.00  0.00     0.129 HD
BRANCH   7   9
HETATM    9  C   UNL     1      -4.094  -1.078 -33.286  1.00  0.00     0.134 C 
BRANCH   9  10
HETATM   10  C   UNL     1      -4.820  -2.284 -33.877  1.00  0.00    -0.018 A 
HETATM   11  C   UNL     1      -4.162  -3.536 -33.937  1.00  0.00     0.011 A 
HETATM   12  C   UNL     1      -4.785  -4.684 -34.428  1.00  0.00     0.001 A 
HETATM   13  C   UNL     1      -6.093  -4.621 -34.875  1.00  0.00     0.002 A 
HETATM   14  C   UNL     1      -6.777  -3.408 -34.831  1.00  0.00     0.030 A 
HETATM   15  C   UNL     1      -6.160  -2.231 -34.350  1.00  0.00     0.047 A 
BRANCH  15  16
HETATM   16  N   UNL     1      -6.957  -1.043 -34.368  1.00  0.00    -0.315 N 
HETATM   17  C   UNL     1      -6.933   0.008 -35.258  1.00  0.00     0.214 A 
HETATM   18  N   UNL     1      -7.805   0.948 -34.967  1.00  0.00    -0.254 NA
HETATM   19  C   UNL     1      -8.465   0.491 -33.866  1.00  0.00     0.135 A 
HETATM   20  C   UNL     1      -7.982  -0.739 -33.490  1.00  0.00     0.117 A 
ENDBRANCH  15  16
ENDBRANCH   9  10
ENDBRANCH   7   9
ENDBRANCH   1   7
BRANCH   3  21
HETATM   21  N   UNL     1      -2.451   3.315 -31.226  1.00  0.00    -0.271 NA
HETATM   22  H   UNL     1      -2.603   4.147 -30.672  1.00  0.00     0.127 HD
HETATM   23  H   UNL     1      -2.103   3.445 -32.165  1.00  0.00     0.127 HD
ENDBRANCH   3  21
BRANCH   5  24
HETATM   24  N   UNL     1      -7.102   3.008 -30.644  1.00  0.00    -0.227 N 
HETATM   25  N   UNL     1      -8.296   2.391 -30.862  1.00  0.00    -0.179 NA
HETATM   26  C   UNL     1      -9.208   3.286 -30.476  1.00  0.00     0.141 A 
HETATM   27  C   UNL     1      -8.633   4.475 -30.002  1.00  0.00     0.040 A 
HETATM   28  C   UNL     1      -7.279   4.272 -30.118  1.00  0.00     0.122 A 
ENDBRANCH   5  24
TORSDOF 6
ENDMDL
MODEL 3
REMARK VINA RESULT:      -7.9      1.802      3.125
REMARK  6 active torsions:
REMARK  status: ('A' for Active; 'I' for Inactive)
REMARK    1  A    between atoms: C_3  and  C_4 
REMARK    2  A    between atoms: C_4  and  N_5 
REMARK    3  A    between atoms: N_5  and  C_6 
REMARK    4  A    between atoms: C_8  and  N_9 
REMARK    5  A    between atoms: C_11  and  N_12 
REMARK    6  A    between atoms: C_18  and  N_19 
ROOT
HETATM    1  C   UNL     1      -4.069   2.850 -32.102  1.00  0.00     0.110 A 
HETATM    2  N   UNL     1      -4.741   3.441 -33.100  1.00  0.00    -0.206 NA
HETATM    3  C   UNL     1      -4.256   4.588 -33.577  1.00  0.00     0.202 A 
HETATM    4  N   UNL     1      -3.142   5.179 -33.154  1.00  0.00    -0.199 NA
HETATM    5  C   UNL     1      -2.477   4.555 -32.154  1.00  0.00     0.156 A 
HETATM    6  C   UNL     1      -2.901   3.367 -31.596  1.00  0.00     0.096 A 
ENDROOT
BRANCH   1   7
HETATM    7  N   UNL     1      -4.628   1.650 -31.649  1.00  0.00    -0.273 NA
HETATM    8  H   UNL     1      -3.911   0.971 -31.906  1.00  0.00     0.129 HD
BRANCH   7   9
HETATM    9  C   UNL     1      -5.913   1.313 -32.264  1.00  0.00     0.134 C 
BRANCH   9  10
HETATM   10  C   UNL     1      -5.896   0.014 -33.065  1.00  0.00    -0.018 A 
HETATM   11  C   UNL     1      -4.690  -0.720 -33.179  1.00  0.00     0.011 A 
HETATM   12  C   UNL     1      -4.618  -1.935 -33.864  1.00  0.00     0.001 A 
HETATM   13  C   UNL     1      -5.753  -2.461 -34.456  1.00  0.00     0.002 A 
HETATM   14  C   UNL     1      -6.959  -1.771 -34.364  1.00  0.00     0.030 A 
HETATM   15  C   UNL     1      -7.051  -0.533 -33.688  1.00  0.00     0.047 A 
BRANCH  15  16
HETATM   16  N   UNL     1      -8.339   0.089 -33.674  1.00  0.00    -0.315 N 
HETATM   17  C   UNL     1      -9.381  -0.087 -32.789  1.00  0.00     0.214 A 
HETATM   18  N   UNL     1     -10.433   0.645 -33.082  1.00  0.00    -0.254 NA
HETATM   19  C   UNL     1     -10.068   1.368 -34.178  1.00  0.00     0.135 A 
HETATM   20  C   UNL     1      -8.781   1.065 -34.549  1.00  0.00     0.117 A 
ENDBRANCH  15  16
ENDBRANCH   9  10
ENDBRANCH   7   9
ENDBRANCH   1   7
BRANCH   3  21
HETATM   21  N   UNL     1      -4.940   5.187 -34.614  1.00  0.00    -0.271 NA
HETATM   22  H   UNL     1      -4.864   4.618 -35.446  1.00  0.00     0.127 HD
HETATM   23  H   UNL     1      -4.666   6.156 -34.693  1.00  0.00     0.127 HD
ENDBRANCH   3  21
BRANCH   5  24
HETATM   24  N   UNL     1      -1.288   5.166 -31.659  1.00  0.00    -0.227 N 
HETATM   25  N   UNL     1      -0.475   4.554 -30.755  1.00  0.00    -0.179 NA
HETATM   26  C   UNL     1       0.497   5.441 -30.530  1.00  0.00     0.141 A 
HETATM   27  C   UNL     1       0.340   6.619 -31.276  1.00  0.00     0.040 A 
HETATM   28  C   UNL     1      -0.813   6.418 -31.996  1.00  0.00     0.122 A 
ENDBRANCH   5  24
TORSDOF 6
ENDMDL
MODEL 4
REMARK VINA RESULT:      -7.8      2.489      7.700
REMARK  6 active torsions:
REMARK  status: ('A' for Active; 'I' for Inactive)
REMARK    1  A    between atoms: C_3  and  C_4 
REMARK    2  A    between atoms: C_4  and  N_5 
REMARK    3  A    between atoms: N_5  and  C_6 
REMARK    4  A    between atoms: C_8  and  N_9 
REMARK    5  A    between atoms: C_11  and  N_12 
REMARK    6  A    between atoms: C_18  and  N_19 
ROOT
HETATM    1  C   UNL     1      -3.402   1.412 -31.525  1.00  0.00     0.110 A 
HETATM    2  N   UNL     1      -2.760   0.252 -31.329  1.00  0.00    -0.206 NA
HETATM    3  C   UNL     1      -3.344  -0.861 -31.776  1.00  0.00     0.202 A 
HETATM    4  N   UNL     1      -4.505  -0.905 -32.424  1.00  0.00    -0.199 NA
HETATM    5  C   UNL     1      -5.126   0.282 -32.620  1.00  0.00     0.156 A 
HETATM    6  C   UNL     1      -4.601   1.484 -32.193  1.00  0.00     0.096 A 
ENDROOT
BRANCH   1   7
HETATM    7  N   UNL     1      -2.736   2.541 -31.036  1.00  0.00    -0.273 NA
HETATM    8  H   UNL     1      -2.788   2.398 -30.027  1.00  0.00     0.129 HD
BRANCH   7   9
HETATM    9  C   UNL     1      -3.351   3.815 -31.416  1.00  0.00     0.134 C 
BRANCH   9  10
HETATM   10  C   UNL     1      -2.575   4.585 -32.481  1.00  0.00    -0.018 A 
HETATM   11  C   UNL     1      -2.924   4.435 -33.845  1.00  0.00     0.011 A 
HETATM   12  C   UNL     1      -2.280   5.141 -34.862  1.00  0.00     0.001 A 
HETATM   13  C   UNL     1      -1.265   6.027 -34.550  1.00  0.00     0.002 A 
HETATM   14  C   UNL     1      -0.892   6.205 -33.219  1.00  0.00     0.030 A 
HETATM   15  C   UNL     1      -1.522   5.490 -32.176  1.00  0.00     0.047 A 
BRANCH  15  16
HETATM   16  N   UNL     1      -1.043   5.745 -30.852  1.00  0.00    -0.315 N 
HETATM   17  C   UNL     1       0.011   5.165 -30.181  1.00  0.00     0.214 A 
HETATM   18  N   UNL     1       0.166   5.636 -28.963  1.00  0.00    -0.254 NA
HETATM   19  C   UNL     1      -0.792   6.595 -28.828  1.00  0.00     0.135 A 
HETATM   20  C   UNL     1      -1.534   6.700 -29.980  1.00  0.00     0.117 A 
ENDBRANCH  15  16
ENDBRANCH   9  10
ENDBRANCH   7   9
ENDBRANCH   1   7
BRANCH   3  21
HETATM   21  N   UNL     1      -2.676  -2.051 -31.586  1.00  0.00    -0.271 NA
HETATM   22  H   UNL     1      -1.705  -1.867 -31.369  1.00  0.00     0.127 HD
HETATM   23  H   UNL     1      -2.864  -2.679 -32.355  1.00  0.00     0.127 HD
ENDBRANCH   3  21
BRANCH   5  24
HETATM   24  N   UNL     1      -6.381   0.275 -33.294  1.00  0.00    -0.227 N 
HETATM   25  N   UNL     1      -7.551  -0.009 -32.657  1.00  0.00    -0.179 NA
HETATM   26  C   UNL     1      -8.476   0.063 -33.615  1.00  0.00     0.141 A 
HETATM   27  C   UNL     1      -7.937   0.397 -34.866  1.00  0.00     0.040 A 
HETATM   28  C   UNL     1      -6.589   0.530 -34.635  1.00  0.00     0.122 A 
ENDBRANCH   5  24
TORSDOF 6
ENDMDL
MODEL 5
REMARK VINA RESULT:      -7.8      1.723      2.371
REMARK  6 active torsions:
REMARK  status: ('A' for Active; 'I' for Inactive)
REMARK    1  A    between atoms: C_3  and  C_4 
REMARK    2  A    between atoms: C_4  and  N_5 
REMARK    3  A    between atoms: N_5  and  C_6 
REMARK    4  A    between atoms: C_8  and  N_9 
REMARK    5  A    between atoms: C_11  and  N_12 
REMARK    6  A    between atoms: C_18  and  N_19 
ROOT
HETATM    1  C   UNL     1      -3.621   2.103 -31.949  1.00  0.00     0.110 A 
HETATM    2  N   UNL     1      -4.543   2.184 -30.980  1.00  0.00    -0.206 NA
HETATM    3  C   UNL     1      -4.865   3.399 -30.533  1.00  0.00     0.202 A 
HETATM    4  N   UNL     1      -4.358   4.539 -30.994  1.00  0.00    -0.199 NA
HETATM    5  C   UNL     1      -3.439   4.429 -31.982  1.00  0.00     0.156 A 
HETATM    6  C   UNL     1      -3.041   3.216 -32.506  1.00  0.00     0.096 A 
ENDROOT
BRANCH   1   7
HETATM    7  N   UNL     1      -3.330   0.801 -32.375  1.00  0.00    -0.273 NA
HETATM    8  H   UNL     1      -3.447   0.877 -33.386  1.00  0.00     0.129 HD
BRANCH   7   9
HETATM    9  C   UNL     1      -4.214  -0.226 -31.821  1.00  0.00     0.134 C 
BRANCH   9  10
HETATM   10  C   UNL     1      -5.033  -0.971 -32.871  1.00  0.00    -0.018 A 
HETATM   11  C   UNL     1      -4.479  -2.104 -33.515  1.00  0.00     0.011 A 
HETATM   12  C   UNL     1      -5.191  -2.852 -34.455  1.00  0.00     0.001 A 
HETATM   13  C   UNL     1      -6.487  -2.495 -34.780  1.00  0.00     0.002 A 
HETATM   14  C   UNL     1      -7.071  -1.389 -34.167  1.00  0.00     0.030 A 
HETATM   15  C   UNL     1      -6.362  -0.610 -33.224  1.00  0.00     0.047 A 
BRANCH  15  16
HETATM   16  N   UNL     1      -7.061   0.511 -32.673  1.00  0.00    -0.315 N 
HETATM   17  C   UNL     1      -7.676   0.636 -31.447  1.00  0.00     0.214 A 
HETATM   18  N   UNL     1      -8.235   1.813 -31.270  1.00  0.00    -0.254 NA
HETATM   19  C   UNL     1      -7.948   2.515 -32.401  1.00  0.00     0.135 A 
HETATM   20  C   UNL     1      -7.209   1.750 -33.270  1.00  0.00     0.117 A 
ENDBRANCH  15  16
ENDBRANCH   9  10
ENDBRANCH   7   9
ENDBRANCH   1   7
BRANCH   3  21
HETATM   21  N   UNL     1      -5.824   3.481 -29.546  1.00  0.00    -0.271 NA
HETATM   22  H   UNL     1      -5.926   2.583 -29.094  1.00  0.00     0.127 HD
HETATM   23  H   UNL     1      -6.662   3.908 -29.915  1.00  0.00     0.127 HD
ENDBRANCH   3  21
BRANCH   5  24
HETATM   24  N   UNL     1      -2.857   5.627 -32.489  1.00  0.00    -0.227 N 
HETATM   25  N   UNL     1      -2.705   5.856 -33.823  1.00  0.00    -0.179 NA
HETATM   26  C   UNL     1      -2.112   7.050 -33.888  1.00  0.00     0.141 A 
HETATM   27  C   UNL     1      -1.881   7.611 -32.623  1.00  0.00     0.040 A 
HETATM   28  C   UNL     1      -2.370   6.679 -31.740  1.00  0.00     0.122 A 
ENDBRANCH   5  24
TORSDOF 6
ENDMDL
MODEL 6
REMARK VINA RESULT:      -7.7      1.884      2.818
REMARK  6 active torsions:
REMARK  status: ('A' for Active; 'I' for Inactive)
REMARK    1  A    between atoms: C_3  and  C_4 
REMARK    2  A    between atoms: C_4  and  N_5 
REMARK    3  A    between atoms: N_5  and  C_6 
REMARK    4  A    between atoms: C_8  and  N_9 
REMARK    5  A    between atoms: C_11  and  N_12 
REMARK    6  A    between atoms: C_18  and  N_19 
ROOT
HETATM    1  C   UNL     1      -4.626   1.441 -30.901  1.00  0.00     0.110 A 
HETATM    2  N   UNL     1      -5.499   2.086 -30.116  1.00  0.00    -0.206 NA
HETATM    3  C   UNL     1      -5.358   3.406 -29.989  1.00  0.00     0.202 A 
HETATM    4  N   UNL     1      -4.431   4.136 -30.603  1.00  0.00    -0.199 NA
HETATM    5  C   UNL     1      -3.570   3.461 -31.400  1.00  0.00     0.156 A 
HETATM    6  C   UNL     1      -3.635   2.096 -31.592  1.00  0.00     0.096 A 
ENDROOT
BRANCH   1   7
HETATM    7  N   UNL     1      -4.829   0.059 -30.995  1.00  0.00    -0.273 NA
HETATM    8  H   UNL     1      -4.254  -0.187 -31.801  1.00  0.00     0.129 HD
BRANCH   7   9
HETATM    9  C   UNL     1      -6.224  -0.332 -31.208  1.00  0.00     0.134 C 
BRANCH   9  10
HETATM   10  C   UNL     1      -6.672  -0.261 -32.665  1.00  0.00    -0.018 A 
HETATM   11  C   UNL     1      -6.219  -1.238 -33.584  1.00  0.00     0.011 A 
HETATM   12  C   UNL     1      -6.624  -1.252 -34.920  1.00  0.00     0.001 A 
HETATM   13  C   UNL     1      -7.502  -0.289 -35.384  1.00  0.00     0.002 A 
HETATM   14  C   UNL     1      -7.973   0.690 -34.511  1.00  0.00     0.030 A 
HETATM   15  C   UNL     1      -7.564   0.730 -33.159  1.00  0.00     0.047 A 
BRANCH  15  16
HETATM   16  N   UNL     1      -8.104   1.790 -32.364  1.00  0.00    -0.315 N 
HETATM   17  C   UNL     1      -7.902   3.149 -32.473  1.00  0.00     0.214 A 
HETATM   18  N   UNL     1      -8.552   3.840 -31.562  1.00  0.00    -0.254 NA
HETATM   19  C   UNL     1      -9.247   2.914 -30.844  1.00  0.00     0.135 A 
HETATM   20  C   UNL     1      -9.009   1.650 -31.328  1.00  0.00     0.117 A 
ENDBRANCH  15  16
ENDBRANCH   9  10
ENDBRANCH   7   9
ENDBRANCH   1   7
BRANCH   3  21
HETATM   21  N   UNL     1      -6.266   4.070 -29.192  1.00  0.00    -0.271 NA
HETATM   22  H   UNL     1      -6.248   3.683 -28.258  1.00  0.00     0.127 HD
HETATM   23  H   UNL     1      -7.164   4.112 -29.654  1.00  0.00     0.127 HD
ENDBRANCH   3  21
BRANCH   5  24
HETATM   24  N   UNL     1      -2.549   4.204 -32.060  1.00  0.00    -0.227 N 
HETATM   25  N   UNL     1      -1.376   4.534 -31.452  1.00  0.00    -0.179 NA
HETATM   26  C   UNL     1      -0.711   5.235 -32.372  1.00  0.00     0.141 A 
HETATM   27  C   UNL     1      -1.422   5.364 -33.575  1.00  0.00     0.040 A 
HETATM   28  C   UNL     1      -2.599   4.692 -33.351  1.00  0.00     0.122 A 
ENDBRANCH   5  24
TORSDOF 6
ENDMDL
MODEL 7
REMARK VINA RESULT:      -7.7      1.897      6.301
REMARK  6 active torsions:
REMARK  status: ('A' for Active; 'I' for Inactive)
REMARK    1  A    between atoms: C_3  and  C_4 
REMARK    2  A    between atoms: C_4  and  N_5 
REMARK    3  A    between atoms: N_5  and  C_6 
REMARK    4  A    between atoms: C_8  and  N_9 
REMARK    5  A    between atoms: C_11  and  N_12 
REMARK    6  A    between atoms: C_18  and  N_19 
ROOT
HETATM    1  C   UNL     1      -4.221   1.197 -31.610  1.00  0.00     0.110 A 
HETATM    2  N   UNL     1      -5.331   1.552 -30.948  1.00  0.00    -0.206 NA
HETATM    3  C   UNL     1      -6.435   0.835 -31.165  1.00  0.00     0.202 A 
HETATM    4  N   UNL     1      -6.512  -0.221 -31.970  1.00  0.00    -0.199 NA
HETATM    5  C   UNL     1      -5.373  -0.565 -32.616  1.00  0.00     0.156 A 
HETATM    6  C   UNL     1      -4.184   0.116 -32.457  1.00  0.00     0.096 A 
ENDROOT
BRANCH   1   7
HETATM    7  N   UNL     1      -3.097   1.986 -31.337  1.00  0.00    -0.273 NA
HETATM    8  H   UNL     1      -2.789   1.614 -30.438  1.00  0.00     0.129 HD
BRANCH   7   9
HETATM    9  C   UNL     1      -3.378   3.420 -31.241  1.00  0.00     0.134 C 
BRANCH   9  10
HETATM   10  C   UNL     1      -3.097   4.195 -32.525  1.00  0.00    -0.018 A 
HETATM   11  C   UNL     1      -1.776   4.617 -32.812  1.00  0.00     0.011 A 
HETATM   12  C   UNL     1      -1.447   5.294 -33.988  1.00  0.00     0.001 A 
HETATM   13  C   UNL     1      -2.429   5.568 -34.923  1.00  0.00     0.002 A 
HETATM   14  C   UNL     1      -3.741   5.167 -34.680  1.00  0.00     0.030 A 
HETATM   15  C   UNL     1      -4.097   4.494 -33.490  1.00  0.00     0.047 A 
BRANCH  15  16
HETATM   16  N   UNL     1      -5.478   4.146 -33.346  1.00  0.00    -0.315 N 
HETATM   17  C   UNL     1      -6.427   4.682 -32.503  1.00  0.00     0.214 A 
HETATM   18  N   UNL     1      -7.606   4.112 -32.629  1.00  0.00    -0.254 NA
HETATM   19  C   UNL     1      -7.451   3.191 -33.620  1.00  0.00     0.135 A 
HETATM   20  C   UNL     1      -6.162   3.205 -34.095  1.00  0.00     0.117 A 
ENDBRANCH  15  16
ENDBRANCH   9  10
ENDBRANCH   7   9
ENDBRANCH   1   7
BRANCH   3  21
HETATM   21  N   UNL     1      -7.572   1.192 -30.473  1.00  0.00    -0.271 NA
HETATM   22  H   UNL     1      -7.959   2.039 -30.866  1.00  0.00     0.127 HD
HETATM   23  H   UNL     1      -7.386   1.190 -29.480  1.00  0.00     0.127 HD
ENDBRANCH   3  21
BRANCH   5  24
HETATM   24  N   UNL     1      -5.419  -1.680 -33.503  1.00  0.00    -0.227 N 
HETATM   25  N   UNL     1      -4.331  -2.461 -33.750  1.00  0.00    -0.179 NA
HETATM   26  C   UNL     1      -4.765  -3.363 -34.632  1.00  0.00     0.141 A 
HETATM   27  C   UNL     1      -6.119  -3.192 -34.962  1.00  0.00     0.040 A 
HETATM   28  C   UNL     1      -6.517  -2.106 -34.222  1.00  0.00     0.122 A 
ENDBRANCH   5  24
TORSDOF 6
ENDMDL
MODEL 8
REMARK VINA RESULT:      -7.7      1.792      7.747
REMARK  6 active torsions:
REMARK  status: ('A' for Active; 'I' for Inactive)
REMARK    1  A    between atoms: C_3  and  C_4 
REMARK    2  A    between atoms: C_4  and  N_5 
REMARK    3  A    between atoms: N_5  and  C_6 
REMARK    4  A    between atoms: C_8  and  N_9 
REMARK    5  A    between atoms: C_11  and  N_12 
REMARK    6  A    between atoms: C_18  and  N_19 
ROOT
HETATM    1  C   UNL     1      -4.071   1.674 -31.499  1.00  0.00     0.110 A 
HETATM    2  N   UNL     1      -5.204   2.010 -30.867  1.00  0.00    -0.206 NA
HETATM    3  C   UNL     1      -6.288   1.269 -31.107  1.00  0.00     0.202 A 
HETATM    4  N   UNL     1      -6.323   0.207 -31.906  1.00  0.00    -0.199 NA
HETATM    5  C   UNL     1      -5.163  -0.117 -32.522  1.00  0.00     0.156 A 
HETATM    6  C   UNL     1      -3.992   0.589 -32.338  1.00  0.00     0.096 A 
ENDROOT
BRANCH   1   7
HETATM    7  N   UNL     1      -2.971   2.487 -31.204  1.00  0.00    -0.273 NA
HETATM    8  H   UNL     1      -2.741   2.197 -30.253  1.00  0.00     0.129 HD
BRANCH   7   9
HETATM    9  C   UNL     1      -3.251   3.923 -31.260  1.00  0.00     0.134 C 
BRANCH   9  10
HETATM   10  C   UNL     1      -2.485   4.662 -32.354  1.00  0.00    -0.018 A 
HETATM   11  C   UNL     1      -2.873   4.505 -33.706  1.00  0.00     0.011 A 
HETATM   12  C   UNL     1      -2.239   5.184 -34.749  1.00  0.00     0.001 A 
HETATM   13  C   UNL     1      -1.196   6.050 -34.473  1.00  0.00     0.002 A 
HETATM   14  C   UNL     1      -0.785   6.235 -33.155  1.00  0.00     0.030 A 
HETATM   15  C   UNL     1      -1.404   5.546 -32.087  1.00  0.00     0.047 A 
BRANCH  15  16
HETATM   16  N   UNL     1      -0.886   5.806 -30.779  1.00  0.00    -0.315 N 
HETATM   17  C   UNL     1      -1.336   6.692 -29.825  1.00  0.00     0.214 A 
HETATM   18  N   UNL     1      -0.611   6.679 -28.728  1.00  0.00    -0.254 NA
HETATM   19  C   UNL     1       0.333   5.720 -28.939  1.00  0.00     0.135 A 
HETATM   20  C   UNL     1       0.175   5.150 -30.179  1.00  0.00     0.117 A 
ENDBRANCH  15  16
ENDBRANCH   9  10
ENDBRANCH   7   9
ENDBRANCH   1   7
BRANCH   3  21
HETATM   21  N   UNL     1      -7.449   1.607 -30.445  1.00  0.00    -0.271 NA
HETATM   22  H   UNL     1      -7.256   2.331 -29.766  1.00  0.00     0.127 HD
HETATM   23  H   UNL     1      -7.909   0.773 -30.109  1.00  0.00     0.127 HD
ENDBRANCH   3  21
BRANCH   5  24
HETATM   24  N   UNL     1      -5.164  -1.238 -33.403  1.00  0.00    -0.227 N 
HETATM   25  N   UNL     1      -4.110  -2.095 -33.496  1.00  0.00    -0.179 NA
HETATM   26  C   UNL     1      -4.481  -2.977 -34.426  1.00  0.00     0.141 A 
HETATM   27  C   UNL     1      -5.761  -2.718 -34.939  1.00  0.00     0.040 A 
HETATM   28  C   UNL     1      -6.181  -1.597 -34.264  1.00  0.00     0.122 A 
ENDBRANCH   5  24
TORSDOF 6
ENDMDL
MODEL 9
REMARK VINA RESULT:      -7.5      3.618      7.198
REMARK  6 active torsions:
REMARK  status: ('A' for Active; 'I' for Inactive)
REMARK    1  A    between atoms: C_3  and  C_4 
REMARK    2  A    between atoms: C_4  and  N_5 
REMARK    3  A    between atoms: N_5  and  C_6 
REMARK    4  A    between atoms: C_8  and  N_9 
REMARK    5  A    between atoms: C_11  and  N_12 
REMARK    6  A    between atoms: C_18  and  N_19 
ROOT
HETATM    1  C   UNL     1      -9.566   1.685 -34.154  1.00  0.00     0.110 A 
HETATM    2  N   UNL     1      -9.251   2.958 -33.878  1.00  0.00    -0.206 NA
HETATM    3  C   UNL     1     -10.249   3.791 -33.577  1.00  0.00     0.202 A 
HETATM    4  N   UNL     1     -11.532   3.447 -33.506  1.00  0.00    -0.199 NA
HETATM    5  C   UNL     1     -11.821   2.152 -33.777  1.00  0.00     0.156 A 
HETATM    6  C   UNL     1     -10.857   1.219 -34.099  1.00  0.00     0.096 A 
ENDROOT
BRANCH   1   7
HETATM    7  N   UNL     1      -8.474   0.864 -34.459  1.00  0.00    -0.273 NA
HETATM    8  H   UNL     1      -8.662   0.613 -35.430  1.00  0.00     0.129 HD
BRANCH   7   9
HETATM    9  C   UNL     1      -8.368  -0.332 -33.620  1.00  0.00     0.134 C 
BRANCH   9  10
HETATM   10  C   UNL     1      -7.020  -1.042 -33.721  1.00  0.00    -0.018 A 
HETATM   11  C   UNL     1      -6.846  -2.079 -34.669  1.00  0.00     0.011 A 
HETATM   12  C   UNL     1      -5.627  -2.739 -34.837  1.00  0.00     0.001 A 
HETATM   13  C   UNL     1      -4.537  -2.381 -34.064  1.00  0.00     0.002 A 
HETATM   14  C   UNL     1      -4.666  -1.364 -33.121  1.00  0.00     0.030 A 
HETATM   15  C   UNL     1      -5.894  -0.693 -32.925  1.00  0.00     0.047 A 
BRANCH  15  16
HETATM   16  N   UNL     1      -5.909   0.323 -31.918  1.00  0.00    -0.315 N 
HETATM   17  C   UNL     1      -5.667   1.674 -32.041  1.00  0.00     0.214 A 
HETATM   18  N   UNL     1      -5.757   2.318 -30.898  1.00  0.00    -0.254 NA
HETATM   19  C   UNL     1      -6.112   1.372 -29.985  1.00  0.00     0.135 A 
HETATM   20  C   UNL     1      -6.236   0.143 -30.586  1.00  0.00     0.117 A 
ENDBRANCH  15  16
ENDBRANCH   9  10
ENDBRANCH   7   9
ENDBRANCH   1   7
BRANCH   3  21
HETATM   21  N   UNL     1      -9.923   5.096 -33.279  1.00  0.00    -0.271 NA
HETATM   22  H   UNL     1      -9.960   5.238 -32.279  1.00  0.00     0.127 HD
HETATM   23  H   UNL     1     -10.465   5.727 -33.853  1.00  0.00     0.127 HD
ENDBRANCH   3  21
BRANCH   5  24
HETATM   24  N   UNL     1     -13.187   1.749 -33.731  1.00  0.00    -0.227 N 
HETATM   25  N   UNL     1     -13.721   0.876 -34.629  1.00  0.00    -0.179 NA
HETATM   26  C   UNL     1     -15.002   0.774 -34.271  1.00  0.00     0.141 A 
HETATM   27  C   UNL     1     -15.316   1.558 -33.150  1.00  0.00     0.040 A 
HETATM   28  C   UNL     1     -14.133   2.173 -32.819  1.00  0.00     0.122 A 
ENDBRANCH   5  24
TORSDOF 6
ENDMDL
MODEL 10
REMARK VINA RESULT:      -7.4      1.618      6.685
REMARK  6 active torsions:
REMARK  status: ('A' for Active; 'I' for Inactive)
REMARK    1  A    between atoms: C_3  and  C_4 
REMARK    2  A    between atoms: C_4  and  N_5 
REMARK    3  A    between atoms: N_5  and  C_6 
REMARK    4  A    between atoms: C_8  and  N_9 
REMARK    5  A    between atoms: C_11  and  N_12 
REMARK    6  A    between atoms: C_18  and  N_19 
ROOT
HETATM    1  C   UNL     1      -7.051   2.035 -33.707  1.00  0.00     0.110 A 
HETATM    2  N   UNL     1      -7.995   1.974 -32.758  1.00  0.00    -0.206 NA
HETATM    3  C   UNL     1      -8.316   0.770 -32.282  1.00  0.00     0.202 A 
HETATM    4  N   UNL     1      -7.752  -0.373 -32.660  1.00  0.00    -0.199 NA
HETATM    5  C   UNL     1      -6.793  -0.282 -33.611  1.00  0.00     0.156 A 
HETATM    6  C   UNL     1      -6.395   0.918 -34.164  1.00  0.00     0.096 A 
ENDROOT
BRANCH   1   7
HETATM    7  N   UNL     1      -6.759   3.326 -34.163  1.00  0.00    -0.273 NA
HETATM    8  H   UNL     1      -6.012   3.150 -34.836  1.00  0.00     0.129 HD
BRANCH   7   9
HETATM    9  C   UNL     1      -6.313   4.247 -33.116  1.00  0.00     0.134 C 
BRANCH   9  10
HETATM   10  C   UNL     1      -4.796   4.352 -32.987  1.00  0.00    -0.018 A 
HETATM   11  C   UNL     1      -4.096   5.329 -33.735  1.00  0.00     0.011 A 
HETATM   12  C   UNL     1      -2.715   5.502 -33.631  1.00  0.00     0.001 A 
HETATM   13  C   UNL     1      -1.984   4.704 -32.769  1.00  0.00     0.002 A 
HETATM   14  C   UNL     1      -2.634   3.732 -32.013  1.00  0.00     0.030 A 
HETATM   15  C   UNL     1      -4.030   3.531 -32.114  1.00  0.00     0.047 A 
BRANCH  15  16
HETATM   16  N   UNL     1      -4.583   2.494 -31.299  1.00  0.00    -0.315 N 
HETATM   17  C   UNL     1      -4.314   1.142 -31.310  1.00  0.00     0.214 A 
HETATM   18  N   UNL     1      -5.016   0.471 -30.423  1.00  0.00    -0.254 NA
HETATM   19  C   UNL     1      -5.751   1.413 -29.768  1.00  0.00     0.135 A 
HETATM   20  C   UNL     1      -5.488   2.665 -30.268  1.00  0.00     0.117 A 
ENDBRANCH  15  16
ENDBRANCH   9  10
ENDBRANCH   7   9
ENDBRANCH   1   7
BRANCH   3  21
HETATM   21  N   UNL     1      -9.277   0.711 -31.296  1.00  0.00    -0.271 NA
HETATM   22  H   UNL     1      -9.234   1.546 -30.727  1.00  0.00     0.127 HD
HETATM   23  H   UNL     1      -9.222  -0.176 -30.814  1.00  0.00     0.127 HD
ENDBRANCH   3  21
BRANCH   5  24
HETATM   24  N   UNL     1      -6.178  -1.488 -34.057  1.00  0.00    -0.227 N 
HETATM   25  N   UNL     1      -6.888  -2.503 -34.623  1.00  0.00    -0.179 NA
HETATM   26  C   UNL     1      -5.975  -3.443 -34.878  1.00  0.00     0.141 A 
HETATM   27  C   UNL     1      -4.680  -3.060 -34.496  1.00  0.00     0.040 A 
HETATM   28  C   UNL     1      -4.836  -1.799 -33.974  1.00  0.00     0.122 A 
ENDBRANCH   5  24
TORSDOF 6
ENDMDL
