MODEL 1
REMARK VINA RESULT:      -9.7      0.000      0.000
REMARK  3 active torsions:
REMARK  status: ('A' for Active; 'I' for Inactive)
REMARK    1  A    between atoms: C_6  and  N_7 
REMARK       I    between atoms: N_7  and  C_8 
REMARK    2  A    between atoms: C_8  and  C_9 
REMARK    3  A    between atoms: C_9  and  C_10 
ROOT
HETATM    1  C   UNL     1      -9.436   3.052 -32.859  1.00  0.00     0.164 C 
HETATM    2  N   UNL     1      -9.833   1.845 -32.159  1.00  0.00    -0.245 NA
HETATM    3  C   UNL     1     -10.437   0.816 -32.819  1.00  0.00     0.234 C 
HETATM    4  O   UNL     1      -9.869  -0.274 -32.836  1.00  0.00    -0.274 OA
HETATM    5  C   UNL     1     -11.778   1.019 -33.408  1.00  0.00     0.053 A 
HETATM    6  C   UNL     1     -12.354   2.247 -33.754  1.00  0.00     0.050 A 
HETATM    7  N   UNL     1     -11.764   3.519 -33.714  1.00  0.00    -0.325 N 
HETATM    8  C   UNL     1     -10.540   3.973 -33.351  1.00  0.00     0.240 C 
HETATM    9  O   UNL     1     -10.309   5.178 -33.506  1.00  0.00    -0.271 OA
HETATM   10  C   UNL     1     -12.533  -0.165 -33.558  1.00  0.00     0.019 A 
HETATM   11  C   UNL     1     -13.847  -0.139 -34.023  1.00  0.00     0.001 A 
HETATM   12  C   UNL     1     -14.425   1.075 -34.353  1.00  0.00     0.002 A 
HETATM   13  C   UNL     1     -13.683   2.250 -34.226  1.00  0.00     0.030 A 
HETATM   14  H   UNL     1      -9.075   1.469 -31.600  1.00  0.00     0.131 HD
HETATM   15  H   UNL     1     -12.330   4.291 -34.051  1.00  0.00     0.169 HD
ENDROOT
BRANCH   1  16
HETATM   16  C   UNL     1      -8.341   2.837 -33.902  1.00  0.00     0.132 C 
BRANCH  16  17
HETATM   17  C   UNL     1      -7.276   1.826 -33.534  1.00  0.00     0.224 C 
HETATM   18  N   UNL     1      -7.078   0.866 -34.509  1.00  0.00    -0.327 N 
HETATM   19  H   UNL     1      -7.352   1.095 -35.462  1.00  0.00     0.169 HD
HETATM   20  O   UNL     1      -6.698   1.890 -32.455  1.00  0.00    -0.273 OA
BRANCH  18  21
HETATM   21  C   UNL     1      -6.480  -0.402 -34.338  1.00  0.00     0.035 A 
HETATM   22  C   UNL     1      -7.063  -1.590 -34.793  1.00  0.00     0.043 A 
HETATM   23  C   UNL     1      -6.348  -2.806 -34.701  1.00  0.00    -0.006 A 
HETATM   24  C   UNL     1      -5.072  -2.805 -34.132  1.00  0.00     0.044 A 
HETATM   25  C   UNL     1      -6.635  -4.141 -35.096  1.00  0.00     0.031 A 
HETATM   26  N   UNL     1      -4.607  -4.103 -34.195  1.00  0.00    -0.360 N 
HETATM   27  C   UNL     1      -4.487  -1.631 -33.638  1.00  0.00     0.033 A 
HETATM   28  C   UNL     1      -3.315  -4.564 -33.736  1.00  0.00     0.155 C 
HETATM   29  C   UNL     1      -5.546  -4.917 -34.774  1.00  0.00     0.091 A 
HETATM   30  C   UNL     1      -5.207  -0.435 -33.762  1.00  0.00     0.032 A 
ENDBRANCH  18  21
ENDBRANCH  16  17
ENDBRANCH   1  16
TORSDOF 3
ENDMDL
MODEL 2
REMARK VINA RESULT:      -9.5      1.829      7.796
REMARK  3 active torsions:
REMARK  status: ('A' for Active; 'I' for Inactive)
REMARK    1  A    between atoms: C_6  and  N_7 
REMARK       I    between atoms: N_7  and  C_8 
REMARK    2  A    between atoms: C_8  and  C_9 
REMARK    3  A    between atoms: C_9  and  C_10 
ROOT
HETATM    1  C   UNL     1      -4.862   0.016 -32.469  1.00  0.00     0.164 C 
HETATM    2  N   UNL     1      -5.380  -0.252 -33.798  1.00  0.00    -0.245 NA
HETATM    3  C   UNL     1      -6.044  -1.410 -34.074  1.00  0.00     0.234 C 
HETATM    4  O   UNL     1      -7.212  -1.334 -34.445  1.00  0.00    -0.274 OA
HETATM    5  C   UNL     1      -5.318  -2.696 -34.003  1.00  0.00     0.053 A 
HETATM    6  C   UNL     1      -4.143  -2.947 -33.285  1.00  0.00     0.050 A 
HETATM    7  N   UNL     1      -3.464  -2.084 -32.413  1.00  0.00    -0.325 N 
HETATM    8  C   UNL     1      -3.679  -0.812 -31.998  1.00  0.00     0.240 C 
HETATM    9  O   UNL     1      -2.912  -0.353 -31.144  1.00  0.00    -0.271 OA
HETATM   10  C   UNL     1      -5.870  -3.720 -34.805  1.00  0.00     0.019 A 
HETATM   11  C   UNL     1      -5.261  -4.969 -34.915  1.00  0.00     0.001 A 
HETATM   12  C   UNL     1      -4.091  -5.217 -34.217  1.00  0.00     0.002 A 
HETATM   13  C   UNL     1      -3.546  -4.220 -33.407  1.00  0.00     0.030 A 
HETATM   14  H   UNL     1      -5.928   0.526 -34.150  1.00  0.00     0.131 HD
HETATM   15  H   UNL     1      -2.648  -2.464 -31.944  1.00  0.00     0.169 HD
ENDROOT
BRANCH   1  16
HETATM   16  C   UNL     1      -5.941   0.164 -31.397  1.00  0.00     0.132 C 
BRANCH  16  17
HETATM   17  C   UNL     1      -7.097   1.074 -31.753  1.00  0.00     0.224 C 
HETATM   18  N   UNL     1      -8.195   0.392 -32.243  1.00  0.00    -0.327 N 
HETATM   19  H   UNL     1      -8.288  -0.592 -32.001  1.00  0.00     0.169 HD
HETATM   20  O   UNL     1      -7.001   2.289 -31.621  1.00  0.00    -0.273 OA
BRANCH  18  21
HETATM   21  C   UNL     1      -9.248   0.928 -33.015  1.00  0.00     0.035 A 
HETATM   22  C   UNL     1     -10.540   0.390 -33.026  1.00  0.00     0.043 A 
HETATM   23  C   UNL     1     -11.575   1.055 -33.723  1.00  0.00    -0.006 A 
HETATM   24  C   UNL     1     -11.284   2.235 -34.412  1.00  0.00     0.044 A 
HETATM   25  C   UNL     1     -12.963   0.797 -33.891  1.00  0.00     0.031 A 
HETATM   26  N   UNL     1     -12.468   2.673 -34.969  1.00  0.00    -0.360 N 
HETATM   27  C   UNL     1      -9.988   2.770 -34.442  1.00  0.00     0.033 A 
HETATM   28  C   UNL     1     -12.641   3.874 -35.757  1.00  0.00     0.155 C 
HETATM   29  C   UNL     1     -13.487   1.810 -34.661  1.00  0.00     0.091 A 
HETATM   30  C   UNL     1      -8.985   2.103 -33.726  1.00  0.00     0.032 A 
ENDBRANCH  18  21
ENDBRANCH  16  17
ENDBRANCH   1  16
TORSDOF 3
ENDMDL
MODEL 3
REMARK VINA RESULT:      -9.3      1.857      7.986
REMARK  3 active torsions:
REMARK  status: ('A' for Active; 'I' for Inactive)
REMARK    1  A    between atoms: C_6  and  N_7 
REMARK       I    between atoms: N_7  and  C_8 
REMARK    2  A    between atoms: C_8  and  C_9 
REMARK    3  A    between atoms: C_9  and  C_10 
ROOT
HETATM    1  C   UNL     1      -4.435   0.092 -32.526  1.00  0.00     0.164 C 
HETATM    2  N   UNL     1      -5.003  -0.110 -33.846  1.00  0.00    -0.245 NA
HETATM    3  C   UNL     1      -5.827  -1.165 -34.103  1.00  0.00     0.234 C 
HETATM    4  O   UNL     1      -6.978  -0.928 -34.460  1.00  0.00    -0.274 OA
HETATM    5  C   UNL     1      -5.288  -2.540 -34.028  1.00  0.00     0.053 A 
HETATM    6  C   UNL     1      -4.152  -2.949 -33.321  1.00  0.00     0.050 A 
HETATM    7  N   UNL     1      -3.346  -2.183 -32.466  1.00  0.00    -0.325 N 
HETATM    8  C   UNL     1      -3.374  -0.891 -32.061  1.00  0.00     0.240 C 
HETATM    9  O   UNL     1      -2.538  -0.537 -31.221  1.00  0.00    -0.271 OA
HETATM   10  C   UNL     1      -5.990  -3.483 -34.813  1.00  0.00     0.019 A 
HETATM   11  C   UNL     1      -5.564  -4.806 -34.918  1.00  0.00     0.001 A 
HETATM   12  C   UNL     1      -4.432  -5.211 -34.231  1.00  0.00     0.002 A 
HETATM   13  C   UNL     1      -3.741  -4.294 -33.438  1.00  0.00     0.030 A 
HETATM   14  H   UNL     1      -5.440   0.734 -34.199  1.00  0.00     0.131 HD
HETATM   15  H   UNL     1      -2.586  -2.671 -32.003  1.00  0.00     0.169 HD
ENDROOT
BRANCH   1  16
HETATM   16  C   UNL     1      -5.468   0.400 -31.443  1.00  0.00     0.132 C 
BRANCH  16  17
HETATM   17  C   UNL     1      -6.588   1.333 -31.852  1.00  0.00     0.224 C 
HETATM   18  N   UNL     1      -7.834   0.899 -31.441  1.00  0.00    -0.327 N 
HETATM   19  H   UNL     1      -7.876   0.258 -30.651  1.00  0.00     0.169 HD
HETATM   20  O   UNL     1      -6.353   2.344 -32.503  1.00  0.00    -0.273 OA
BRANCH  18  21
HETATM   21  C   UNL     1      -9.083   1.292 -31.969  1.00  0.00     0.035 A 
HETATM   22  C   UNL     1      -9.643   2.556 -31.752  1.00  0.00     0.043 A 
HETATM   23  C   UNL     1     -10.835   2.922 -32.417  1.00  0.00    -0.006 A 
HETATM   24  C   UNL     1     -11.451   2.002 -33.270  1.00  0.00     0.044 A 
HETATM   25  C   UNL     1     -11.616   4.110 -32.441  1.00  0.00     0.031 A 
HETATM   26  N   UNL     1     -12.564   2.628 -33.794  1.00  0.00    -0.360 N 
HETATM   27  C   UNL     1     -10.924   0.719 -33.472  1.00  0.00     0.033 A 
HETATM   28  C   UNL     1     -13.491   2.052 -34.744  1.00  0.00     0.155 C 
HETATM   29  C   UNL     1     -12.672   3.900 -33.298  1.00  0.00     0.091 A 
HETATM   30  C   UNL     1      -9.729   0.388 -32.818  1.00  0.00     0.032 A 
ENDBRANCH  18  21
ENDBRANCH  16  17
ENDBRANCH   1  16
TORSDOF 3
ENDMDL
MODEL 4
REMARK VINA RESULT:      -9.1      4.834      8.440
REMARK  3 active torsions:
REMARK  status: ('A' for Active; 'I' for Inactive)
REMARK    1  A    between atoms: C_6  and  N_7 
REMARK       I    between atoms: N_7  and  C_8 
REMARK    2  A    between atoms: C_8  and  C_9 
REMARK    3  A    between atoms: C_9  and  C_10 
ROOT
HETATM    1  C   UNL     1      -5.088   0.555 -33.101  1.00  0.00     0.164 C 
HETATM    2  N   UNL     1      -5.994   0.234 -34.189  1.00  0.00    -0.245 NA
HETATM    3  C   UNL     1      -6.742  -0.905 -34.168  1.00  0.00     0.234 C 
HETATM    4  O   UNL     1      -7.965  -0.796 -34.173  1.00  0.00    -0.274 OA
HETATM    5  C   UNL     1      -6.064  -2.219 -34.228  1.00  0.00     0.053 A 
HETATM    6  C   UNL     1      -4.734  -2.483 -33.882  1.00  0.00     0.050 A 
HETATM    7  N   UNL     1      -3.798  -1.602 -33.320  1.00  0.00    -0.325 N 
HETATM    8  C   UNL     1      -3.841  -0.299 -32.952  1.00  0.00     0.240 C 
HETATM    9  O   UNL     1      -2.838   0.173 -32.404  1.00  0.00    -0.271 OA
HETATM   10  C   UNL     1      -6.862  -3.261 -34.750  1.00  0.00     0.019 A 
HETATM   11  C   UNL     1      -6.351  -4.542 -34.949  1.00  0.00     0.001 A 
HETATM   12  C   UNL     1      -5.031  -4.804 -34.621  1.00  0.00     0.002 A 
HETATM   13  C   UNL     1      -4.238  -3.787 -34.088  1.00  0.00     0.030 A 
HETATM   14  H   UNL     1      -6.601   1.014 -34.414  1.00  0.00     0.131 HD
HETATM   15  H   UNL     1      -2.889  -1.992 -33.093  1.00  0.00     0.169 HD
ENDROOT
BRANCH   1  16
HETATM   16  C   UNL     1      -5.785   0.819 -31.767  1.00  0.00     0.132 C 
BRANCH  16  17
HETATM   17  C   UNL     1      -5.381   2.094 -31.058  1.00  0.00     0.224 C 
HETATM   18  N   UNL     1      -4.634   2.945 -31.852  1.00  0.00    -0.327 N 
HETATM   19  H   UNL     1      -4.720   2.847 -32.862  1.00  0.00     0.169 HD
HETATM   20  O   UNL     1      -5.695   2.287 -29.889  1.00  0.00    -0.273 OA
BRANCH  18  21
HETATM   21  C   UNL     1      -3.788   3.986 -31.413  1.00  0.00     0.035 A 
HETATM   22  C   UNL     1      -2.401   3.974 -31.596  1.00  0.00     0.043 A 
HETATM   23  C   UNL     1      -1.634   5.108 -31.246  1.00  0.00    -0.006 A 
HETATM   24  C   UNL     1      -2.275   6.222 -30.697  1.00  0.00     0.044 A 
HETATM   25  C   UNL     1      -0.250   5.420 -31.340  1.00  0.00     0.031 A 
HETATM   26  N   UNL     1      -1.301   7.175 -30.479  1.00  0.00    -0.360 N 
HETATM   27  C   UNL     1      -3.659   6.239 -30.473  1.00  0.00     0.033 A 
HETATM   28  C   UNL     1      -1.516   8.499 -29.938  1.00  0.00     0.155 C 
HETATM   29  C   UNL     1      -0.075   6.698 -30.863  1.00  0.00     0.091 A 
HETATM   30  C   UNL     1      -4.399   5.110 -30.850  1.00  0.00     0.032 A 
ENDBRANCH  18  21
ENDBRANCH  16  17
ENDBRANCH   1  16
TORSDOF 3
ENDMDL
MODEL 5
REMARK VINA RESULT:      -9.0      4.387      7.519
REMARK  3 active torsions:
REMARK  status: ('A' for Active; 'I' for Inactive)
REMARK    1  A    between atoms: C_6  and  N_7 
REMARK       I    between atoms: N_7  and  C_8 
REMARK    2  A    between atoms: C_8  and  C_9 
REMARK    3  A    between atoms: C_9  and  C_10 
ROOT
HETATM    1  C   UNL     1      -7.542   0.970 -32.314  1.00  0.00     0.164 C 
HETATM    2  N   UNL     1      -6.287   0.444 -31.807  1.00  0.00    -0.245 NA
HETATM    3  C   UNL     1      -5.318  -0.001 -32.656  1.00  0.00     0.234 C 
HETATM    4  O   UNL     1      -4.228   0.565 -32.640  1.00  0.00    -0.274 OA
HETATM    5  C   UNL     1      -5.580  -1.192 -33.494  1.00  0.00     0.053 A 
HETATM    6  C   UNL     1      -6.835  -1.692 -33.856  1.00  0.00     0.050 A 
HETATM    7  N   UNL     1      -8.095  -1.132 -33.595  1.00  0.00    -0.325 N 
HETATM    8  C   UNL     1      -8.508  -0.014 -32.951  1.00  0.00     0.240 C 
HETATM    9  O   UNL     1      -9.719   0.236 -32.961  1.00  0.00    -0.271 OA
HETATM   10  C   UNL     1      -4.417  -1.891 -33.890  1.00  0.00     0.019 A 
HETATM   11  C   UNL     1      -4.491  -3.079 -34.614  1.00  0.00     0.001 A 
HETATM   12  C   UNL     1      -5.733  -3.585 -34.962  1.00  0.00     0.002 A 
HETATM   13  C   UNL     1      -6.888  -2.894 -34.593  1.00  0.00     0.030 A 
HETATM   14  H   UNL     1      -5.863   1.072 -31.134  1.00  0.00     0.131 HD
HETATM   15  H   UNL     1      -8.896  -1.621 -33.981  1.00  0.00     0.169 HD
ENDROOT
BRANCH   1  16
HETATM   16  C   UNL     1      -7.398   2.260 -33.119  1.00  0.00     0.132 C 
BRANCH  16  17
HETATM   17  C   UNL     1      -6.441   3.285 -32.549  1.00  0.00     0.224 C 
HETATM   18  N   UNL     1      -5.416   3.613 -33.416  1.00  0.00    -0.327 N 
HETATM   19  H   UNL     1      -5.568   3.455 -34.410  1.00  0.00     0.169 HD
HETATM   20  O   UNL     1      -6.597   3.725 -31.415  1.00  0.00    -0.273 OA
BRANCH  18  21
HETATM   21  C   UNL     1      -4.178   4.202 -33.078  1.00  0.00     0.035 A 
HETATM   22  C   UNL     1      -3.725   5.404 -33.633  1.00  0.00     0.043 A 
HETATM   23  C   UNL     1      -2.536   5.998 -33.153  1.00  0.00    -0.006 A 
HETATM   24  C   UNL     1      -1.815   5.359 -32.140  1.00  0.00     0.044 A 
HETATM   25  C   UNL     1      -1.846   7.201 -33.469  1.00  0.00     0.031 A 
HETATM   26  N   UNL     1      -0.730   6.164 -31.855  1.00  0.00    -0.360 N 
HETATM   27  C   UNL     1      -2.234   4.136 -31.598  1.00  0.00     0.033 A 
HETATM   28  C   UNL     1       0.279   5.902 -30.853  1.00  0.00     0.155 C 
HETATM   29  C   UNL     1      -0.741   7.277 -32.654  1.00  0.00     0.091 A 
HETATM   30  C   UNL     1      -3.428   3.580 -32.076  1.00  0.00     0.032 A 
ENDBRANCH  18  21
ENDBRANCH  16  17
ENDBRANCH   1  16
TORSDOF 3
ENDMDL
MODEL 6
REMARK VINA RESULT:      -8.9      6.270      9.225
REMARK  3 active torsions:
REMARK  status: ('A' for Active; 'I' for Inactive)
REMARK    1  A    between atoms: C_6  and  N_7 
REMARK       I    between atoms: N_7  and  C_8 
REMARK    2  A    between atoms: C_8  and  C_9 
REMARK    3  A    between atoms: C_9  and  C_10 
ROOT
HETATM    1  C   UNL     1      -4.716   1.278 -31.639  1.00  0.00     0.164 C 
HETATM    2  N   UNL     1      -4.253  -0.016 -31.173  1.00  0.00    -0.245 NA
HETATM    3  C   UNL     1      -3.718  -0.924 -32.037  1.00  0.00     0.234 C 
HETATM    4  O   UNL     1      -2.555  -1.278 -31.860  1.00  0.00    -0.274 OA
HETATM    5  C   UNL     1      -4.572  -1.513 -33.091  1.00  0.00     0.053 A 
HETATM    6  C   UNL     1      -5.753  -0.964 -33.604  1.00  0.00     0.050 A 
HETATM    7  N   UNL     1      -6.323   0.284 -33.311  1.00  0.00    -0.325 N 
HETATM    8  C   UNL     1      -5.970   1.307 -32.496  1.00  0.00     0.240 C 
HETATM    9  O   UNL     1      -6.670   2.326 -32.523  1.00  0.00    -0.271 OA
HETATM   10  C   UNL     1      -4.144  -2.779 -33.547  1.00  0.00     0.019 A 
HETATM   11  C   UNL     1      -4.881  -3.507 -34.480  1.00  0.00     0.001 A 
HETATM   12  C   UNL     1      -6.058  -2.973 -34.979  1.00  0.00     0.002 A 
HETATM   13  C   UNL     1      -6.481  -1.715 -34.550  1.00  0.00     0.030 A 
HETATM   14  H   UNL     1      -3.634   0.073 -30.374  1.00  0.00     0.131 HD
HETATM   15  H   UNL     1      -7.165   0.528 -33.822  1.00  0.00     0.169 HD
ENDROOT
BRANCH   1  16
HETATM   16  C   UNL     1      -3.608   2.177 -32.186  1.00  0.00     0.132 C 
BRANCH  16  17
HETATM   17  C   UNL     1      -3.457   3.520 -31.503  1.00  0.00     0.224 C 
HETATM   18  N   UNL     1      -2.276   4.163 -31.822  1.00  0.00    -0.327 N 
HETATM   19  H   UNL     1      -1.814   3.901 -32.690  1.00  0.00     0.169 HD
HETATM   20  O   UNL     1      -4.320   3.932 -30.735  1.00  0.00    -0.273 OA
BRANCH  18  21
HETATM   21  C   UNL     1      -1.651   5.196 -31.090  1.00  0.00     0.035 A 
HETATM   22  C   UNL     1      -2.296   6.390 -30.749  1.00  0.00     0.043 A 
HETATM   23  C   UNL     1      -1.650   7.324 -29.907  1.00  0.00    -0.006 A 
HETATM   24  C   UNL     1      -0.361   7.047 -29.443  1.00  0.00     0.044 A 
HETATM   25  C   UNL     1      -2.038   8.577 -29.358  1.00  0.00     0.031 A 
HETATM   26  N   UNL     1       0.006   8.103 -28.634  1.00  0.00    -0.360 N 
HETATM   27  C   UNL     1       0.314   5.872 -29.803  1.00  0.00     0.033 A 
HETATM   28  C   UNL     1       1.259   8.230 -27.922  1.00  0.00     0.155 C 
HETATM   29  C   UNL     1      -1.000   9.032 -28.578  1.00  0.00     0.091 A 
HETATM   30  C   UNL     1      -0.356   4.953 -30.622  1.00  0.00     0.032 A 
ENDBRANCH  18  21
ENDBRANCH  16  17
ENDBRANCH   1  16
TORSDOF 3
ENDMDL
MODEL 7
REMARK VINA RESULT:      -8.8      4.779      7.010
REMARK  3 active torsions:
REMARK  status: ('A' for Active; 'I' for Inactive)
REMARK    1  A    between atoms: C_6  and  N_7 
REMARK       I    between atoms: N_7  and  C_8 
REMARK    2  A    between atoms: C_8  and  C_9 
REMARK    3  A    between atoms: C_9  and  C_10 
ROOT
HETATM    1  C   UNL     1      -5.466   3.740 -31.530  1.00  0.00     0.164 C 
HETATM    2  N   UNL     1      -4.654   3.635 -32.729  1.00  0.00    -0.245 NA
HETATM    3  C   UNL     1      -3.323   3.926 -32.704  1.00  0.00     0.234 C 
HETATM    4  O   UNL     1      -2.529   3.032 -32.988  1.00  0.00    -0.274 OA
HETATM    5  C   UNL     1      -2.888   5.312 -32.426  1.00  0.00     0.053 A 
HETATM    6  C   UNL     1      -3.631   6.298 -31.767  1.00  0.00     0.050 A 
HETATM    7  N   UNL     1      -4.885   6.166 -31.151  1.00  0.00    -0.325 N 
HETATM    8  C   UNL     1      -5.747   5.133 -30.994  1.00  0.00     0.240 C 
HETATM    9  O   UNL     1      -6.763   5.336 -30.318  1.00  0.00    -0.271 OA
HETATM   10  C   UNL     1      -1.618   5.639 -32.950  1.00  0.00     0.019 A 
HETATM   11  C   UNL     1      -1.095   6.927 -32.847  1.00  0.00     0.001 A 
HETATM   12  C   UNL     1      -1.834   7.909 -32.208  1.00  0.00     0.002 A 
HETATM   13  C   UNL     1      -3.082   7.594 -31.670  1.00  0.00     0.030 A 
HETATM   14  H   UNL     1      -4.781   2.741 -33.190  1.00  0.00     0.131 HD
HETATM   15  H   UNL     1      -5.246   6.989 -30.680  1.00  0.00     0.169 HD
ENDROOT
BRANCH   1  16
HETATM   16  C   UNL     1      -5.084   2.752 -30.430  1.00  0.00     0.132 C 
BRANCH  16  17
HETATM   17  C   UNL     1      -5.297   1.290 -30.760  1.00  0.00     0.224 C 
HETATM   18  N   UNL     1      -4.370   0.794 -31.658  1.00  0.00    -0.327 N 
HETATM   19  H   UNL     1      -3.478   1.279 -31.734  1.00  0.00     0.169 HD
HETATM   20  O   UNL     1      -6.231   0.666 -30.268  1.00  0.00    -0.273 OA
BRANCH  18  21
HETATM   21  C   UNL     1      -4.502  -0.361 -32.459  1.00  0.00     0.035 A 
HETATM   22  C   UNL     1      -3.717  -1.506 -32.287  1.00  0.00     0.043 A 
HETATM   23  C   UNL     1      -3.992  -2.669 -33.042  1.00  0.00    -0.006 A 
HETATM   24  C   UNL     1      -5.036  -2.648 -33.971  1.00  0.00     0.044 A 
HETATM   25  C   UNL     1      -3.422  -3.972 -33.074  1.00  0.00     0.031 A 
HETATM   26  N   UNL     1      -5.091  -3.907 -34.535  1.00  0.00    -0.360 N 
HETATM   27  C   UNL     1      -5.809  -1.499 -34.183  1.00  0.00     0.033 A 
HETATM   28  C   UNL     1      -6.038  -4.345 -35.537  1.00  0.00     0.155 C 
HETATM   29  C   UNL     1      -4.119  -4.711 -34.000  1.00  0.00     0.091 A 
HETATM   30  C   UNL     1      -5.530  -0.366 -33.406  1.00  0.00     0.032 A 
ENDBRANCH  18  21
ENDBRANCH  16  17
ENDBRANCH   1  16
TORSDOF 3
ENDMDL
MODEL 8
REMARK VINA RESULT:      -8.8      2.655      3.820
REMARK  3 active torsions:
REMARK  status: ('A' for Active; 'I' for Inactive)
REMARK    1  A    between atoms: C_6  and  N_7 
REMARK       I    between atoms: N_7  and  C_8 
REMARK    2  A    between atoms: C_8  and  C_9 
REMARK    3  A    between atoms: C_9  and  C_10 
ROOT
HETATM    1  C   UNL     1      -5.826   4.256 -31.689  1.00  0.00     0.164 C 
HETATM    2  N   UNL     1      -7.219   4.451 -31.329  1.00  0.00    -0.245 NA
HETATM    3  C   UNL     1      -8.046   3.389 -31.120  1.00  0.00     0.234 C 
HETATM    4  O   UNL     1      -8.551   3.258 -30.007  1.00  0.00    -0.274 OA
HETATM    5  C   UNL     1      -8.373   2.490 -32.248  1.00  0.00     0.053 A 
HETATM    6  C   UNL     1      -7.625   2.322 -33.418  1.00  0.00     0.050 A 
HETATM    7  N   UNL     1      -6.376   2.880 -33.732  1.00  0.00    -0.325 N 
HETATM    8  C   UNL     1      -5.530   3.711 -33.076  1.00  0.00     0.240 C 
HETATM    9  O   UNL     1      -4.445   3.961 -33.613  1.00  0.00    -0.271 OA
HETATM   10  C   UNL     1      -9.600   1.804 -32.108  1.00  0.00     0.019 A 
HETATM   11  C   UNL     1     -10.095   0.981 -33.117  1.00  0.00     0.001 A 
HETATM   12  C   UNL     1      -9.364   0.823 -34.283  1.00  0.00     0.002 A 
HETATM   13  C   UNL     1      -8.142   1.481 -34.426  1.00  0.00     0.030 A 
HETATM   14  H   UNL     1      -7.318   5.096 -30.553  1.00  0.00     0.131 HD
HETATM   15  H   UNL     1      -5.966   2.603 -34.618  1.00  0.00     0.169 HD
ENDROOT
BRANCH   1  16
HETATM   16  C   UNL     1      -4.989   3.585 -30.601  1.00  0.00     0.132 C 
BRANCH  16  17
HETATM   17  C   UNL     1      -5.022   2.072 -30.590  1.00  0.00     0.224 C 
HETATM   18  N   UNL     1      -4.153   1.502 -31.502  1.00  0.00    -0.327 N 
HETATM   19  H   UNL     1      -3.362   2.060 -31.815  1.00  0.00     0.169 HD
HETATM   20  O   UNL     1      -5.781   1.468 -29.840  1.00  0.00    -0.273 OA
BRANCH  18  21
HETATM   21  C   UNL     1      -4.213   0.190 -32.021  1.00  0.00     0.035 A 
HETATM   22  C   UNL     1      -5.083  -0.187 -33.050  1.00  0.00     0.043 A 
HETATM   23  C   UNL     1      -4.997  -1.484 -33.605  1.00  0.00    -0.006 A 
HETATM   24  C   UNL     1      -4.054  -2.382 -33.098  1.00  0.00     0.044 A 
HETATM   25  C   UNL     1      -5.689  -2.145 -34.656  1.00  0.00     0.031 A 
HETATM   26  N   UNL     1      -4.175  -3.544 -33.833  1.00  0.00    -0.360 N 
HETATM   27  C   UNL     1      -3.199  -2.034 -32.044  1.00  0.00     0.033 A 
HETATM   28  C   UNL     1      -3.379  -4.740 -33.665  1.00  0.00     0.155 C 
HETATM   29  C   UNL     1      -5.162  -3.410 -34.775  1.00  0.00     0.091 A 
HETATM   30  C   UNL     1      -3.289  -0.734 -31.525  1.00  0.00     0.032 A 
ENDBRANCH  18  21
ENDBRANCH  16  17
ENDBRANCH   1  16
TORSDOF 3
ENDMDL
MODEL 9
REMARK VINA RESULT:      -8.7      7.396     10.313
REMARK  3 active torsions:
REMARK  status: ('A' for Active; 'I' for Inactive)
REMARK    1  A    between atoms: C_6  and  N_7 
REMARK       I    between atoms: N_7  and  C_8 
REMARK    2  A    between atoms: C_8  and  C_9 
REMARK    3  A    between atoms: C_9  and  C_10 
ROOT
HETATM    1  C   UNL     1      -1.146   5.300 -30.831  1.00  0.00     0.164 C 
HETATM    2  N   UNL     1      -2.160   5.925 -30.002  1.00  0.00    -0.245 NA
HETATM    3  C   UNL     1      -2.154   7.270 -29.777  1.00  0.00     0.234 C 
HETATM    4  O   UNL     1      -3.122   7.925 -30.155  1.00  0.00    -0.274 OA
HETATM    5  C   UNL     1      -1.038   7.872 -29.017  1.00  0.00     0.053 A 
HETATM    6  C   UNL     1       0.240   7.327 -28.847  1.00  0.00     0.050 A 
HETATM    7  N   UNL     1       0.766   6.163 -29.428  1.00  0.00    -0.325 N 
HETATM    8  C   UNL     1       0.267   5.234 -30.278  1.00  0.00     0.240 C 
HETATM    9  O   UNL     1       1.035   4.345 -30.665  1.00  0.00    -0.271 OA
HETATM   10  C   UNL     1      -1.363   9.085 -28.369  1.00  0.00     0.019 A 
HETATM   11  C   UNL     1      -0.450   9.741 -27.546  1.00  0.00     0.001 A 
HETATM   12  C   UNL     1       0.811   9.197 -27.364  1.00  0.00     0.002 A 
HETATM   13  C   UNL     1       1.151   8.009 -28.013  1.00  0.00     0.030 A 
HETATM   14  H   UNL     1      -3.095   5.649 -30.282  1.00  0.00     0.131 HD
HETATM   15  H   UNL     1       1.736   5.953 -29.220  1.00  0.00     0.169 HD
ENDROOT
BRANCH   1  16
HETATM   16  C   UNL     1      -1.185   5.730 -32.296  1.00  0.00     0.132 C 
BRANCH  16  17
HETATM   17  C   UNL     1      -2.154   4.969 -33.176  1.00  0.00     0.224 C 
HETATM   18  N   UNL     1      -3.323   4.622 -32.525  1.00  0.00    -0.327 N 
HETATM   19  H   UNL     1      -3.590   5.169 -31.709  1.00  0.00     0.169 HD
HETATM   20  O   UNL     1      -1.864   4.697 -34.336  1.00  0.00    -0.273 OA
BRANCH  18  21
HETATM   21  C   UNL     1      -4.231   3.608 -32.900  1.00  0.00     0.035 A 
HETATM   22  C   UNL     1      -4.157   2.297 -32.415  1.00  0.00     0.043 A 
HETATM   23  C   UNL     1      -5.174   1.370 -32.734  1.00  0.00    -0.006 A 
HETATM   24  C   UNL     1      -6.233   1.773 -33.553  1.00  0.00     0.044 A 
HETATM   25  C   UNL     1      -5.407   0.013 -32.378  1.00  0.00     0.031 A 
HETATM   26  N   UNL     1      -7.078   0.688 -33.674  1.00  0.00    -0.360 N 
HETATM   27  C   UNL     1      -6.305   3.071 -34.077  1.00  0.00     0.033 A 
HETATM   28  C   UNL     1      -8.317   0.659 -34.419  1.00  0.00     0.155 C 
HETATM   29  C   UNL     1      -6.586  -0.379 -32.970  1.00  0.00     0.091 A 
HETATM   30  C   UNL     1      -5.295   3.978 -33.727  1.00  0.00     0.032 A 
ENDBRANCH  18  21
ENDBRANCH  16  17
ENDBRANCH   1  16
TORSDOF 3
ENDMDL
MODEL 10
REMARK VINA RESULT:      -8.6      3.932      7.136
REMARK  3 active torsions:
REMARK  status: ('A' for Active; 'I' for Inactive)
REMARK    1  A    between atoms: C_6  and  N_7 
REMARK       I    between atoms: N_7  and  C_8 
REMARK    2  A    between atoms: C_8  and  C_9 
REMARK    3  A    between atoms: C_9  and  C_10 
ROOT
HETATM    1  C   UNL     1      -8.894   1.005 -31.707  1.00  0.00     0.164 C 
HETATM    2  N   UNL     1      -8.031   0.268 -30.802  1.00  0.00    -0.245 NA
HETATM    3  C   UNL     1      -6.687   0.199 -31.013  1.00  0.00     0.234 C 
HETATM    4  O   UNL     1      -5.940   0.664 -30.155  1.00  0.00    -0.274 OA
HETATM    5  C   UNL     1      -6.176  -0.503 -32.210  1.00  0.00     0.053 A 
HETATM    6  C   UNL     1      -6.885  -0.754 -33.390  1.00  0.00     0.050 A 
HETATM    7  N   UNL     1      -8.174  -0.318 -33.732  1.00  0.00    -0.325 N 
HETATM    8  C   UNL     1      -9.110   0.427 -33.095  1.00  0.00     0.240 C 
HETATM    9  O   UNL     1     -10.143   0.698 -33.718  1.00  0.00    -0.271 OA
HETATM   10  C   UNL     1      -4.862  -1.003 -32.075  1.00  0.00     0.019 A 
HETATM   11  C   UNL     1      -4.261  -1.759 -33.079  1.00  0.00     0.001 A 
HETATM   12  C   UNL     1      -4.965  -2.021 -34.243  1.00  0.00     0.002 A 
HETATM   13  C   UNL     1      -6.257  -1.517 -34.397  1.00  0.00     0.030 A 
HETATM   14  H   UNL     1      -8.193   0.529 -29.835  1.00  0.00     0.131 HD
HETATM   15  H   UNL     1      -8.504  -0.563 -34.659  1.00  0.00     0.169 HD
ENDROOT
BRANCH   1  16
HETATM   16  C   UNL     1      -8.636   2.510 -31.729  1.00  0.00     0.132 C 
BRANCH  16  17
HETATM   17  C   UNL     1      -7.376   2.947 -32.446  1.00  0.00     0.224 C 
HETATM   18  N   UNL     1      -6.354   3.300 -31.585  1.00  0.00    -0.327 N 
HETATM   19  H   UNL     1      -6.380   2.921 -30.640  1.00  0.00     0.169 HD
HETATM   20  O   UNL     1      -7.335   2.987 -33.671  1.00  0.00    -0.273 OA
BRANCH  18  21
HETATM   21  C   UNL     1      -5.232   4.101 -31.887  1.00  0.00     0.035 A 
HETATM   22  C   UNL     1      -4.239   3.716 -32.795  1.00  0.00     0.043 A 
HETATM   23  C   UNL     1      -3.213   4.623 -33.143  1.00  0.00    -0.006 A 
HETATM   24  C   UNL     1      -3.193   5.890 -32.553  1.00  0.00     0.044 A 
HETATM   25  C   UNL     1      -2.110   4.556 -34.038  1.00  0.00     0.031 A 
HETATM   26  N   UNL     1      -2.112   6.562 -33.088  1.00  0.00    -0.360 N 
HETATM   27  C   UNL     1      -4.158   6.280 -31.614  1.00  0.00     0.033 A 
HETATM   28  C   UNL     1      -1.719   7.918 -32.777  1.00  0.00     0.155 C 
HETATM   29  C   UNL     1      -1.452   5.762 -33.985  1.00  0.00     0.091 A 
HETATM   30  C   UNL     1      -5.177   5.370 -31.302  1.00  0.00     0.032 A 
ENDBRANCH  18  21
ENDBRANCH  16  17
ENDBRANCH   1  16
TORSDOF 3
ENDMDL
