MODEL 1
REMARK VINA RESULT:      -8.9      0.000      0.000
REMARK  7 active torsions:
REMARK  status: ('A' for Active; 'I' for Inactive)
REMARK    1  A    between atoms: C_2  and  C_3 
REMARK    2  A    between atoms: C_7  and  C_8 
REMARK       I    between atoms: C_8  and  N_9 
REMARK    3  A    between atoms: N_9  and  C_10 
REMARK    4  A    between atoms: C_10  and  C_11 
REMARK    5  A    between atoms: C_13  and  N_14 
REMARK       I    between atoms: N_14  and  C_15 
REMARK    6  A    between atoms: C_15  and  C_16 
REMARK    7  A    between atoms: C_20  and  C_21 
ROOT
HETATM    1  C   UNL     1      -3.791   2.236 -32.120  1.00  0.00    -0.035 A 
HETATM    2  C   UNL     1      -5.119   2.060 -32.533  1.00  0.00     0.059 A 
HETATM    3  C   UNL     1      -5.851   0.976 -32.051  1.00  0.00     0.130 A 
HETATM    4  N   UNL     1      -5.308   0.066 -31.226  1.00  0.00    -0.243 NA
HETATM    5  C   UNL     1      -4.020   0.226 -30.860  1.00  0.00     0.119 A 
HETATM    6  C   UNL     1      -3.230   1.282 -31.271  1.00  0.00     0.028 A 
ENDROOT
BRANCH   1   7
HETATM    7  C   UNL     1      -2.999   3.429 -32.575  1.00  0.00     0.161 C 
BRANCH   7   8
HETATM    8  N   UNL     1      -2.303   4.059 -31.481  1.00  0.00    -0.351 N 
HETATM    9  C   UNL     1      -1.299   4.975 -31.682  1.00  0.00     0.270 C 
HETATM   10  O   UNL     1      -0.901   5.286 -32.800  1.00  0.00    -0.266 OA
HETATM   11  H   UNL     1      -2.534   3.776 -30.542  1.00  0.00     0.163 HD
BRANCH   9  12
HETATM   12  C   UNL     1      -0.759   5.560 -30.483  1.00  0.00     0.119 A 
HETATM   13  N   UNL     1       0.062   4.854 -29.647  1.00  0.00    -0.273 N 
HETATM   14  N   UNL     1       0.507   5.553 -28.592  1.00  0.00    -0.178 NA
HETATM   15  H   UNL     1       0.361   3.890 -29.760  1.00  0.00     0.189 HD
HETATM   16  C   UNL     1      -0.048   6.763 -28.735  1.00  0.00     0.064 A 
HETATM   17  C   UNL     1      -0.854   6.810 -29.905  1.00  0.00     0.066 A 
BRANCH  16  18
HETATM   18  C   UNL     1       0.217   7.886 -27.743  1.00  0.00    -0.005 C 
HETATM   19  C   UNL     1       1.580   8.570 -27.983  1.00  0.00     0.021 C 
HETATM   20  C   UNL     1       0.213   7.332 -26.304  1.00  0.00     0.021 C 
HETATM   21  C   UNL     1      -0.883   8.960 -27.866  1.00  0.00     0.021 C 
ENDBRANCH  16  18
ENDBRANCH   9  12
ENDBRANCH   7   8
ENDBRANCH   1   7
BRANCH   3  22
HETATM   22  N   UNL     1      -7.195   0.886 -32.436  1.00  0.00    -0.306 N 
HETATM   23  C   UNL     1      -8.249   1.516 -31.811  1.00  0.00     0.275 C 
HETATM   24  O   UNL     1      -8.186   2.220 -30.810  1.00  0.00    -0.266 OA
HETATM   25  H   UNL     1      -7.388   0.364 -33.274  1.00  0.00     0.170 HD
BRANCH  23  26
HETATM   26  C   UNL     1      -9.524   1.319 -32.468  1.00  0.00     0.120 A 
HETATM   27  N   UNL     1     -10.068   0.068 -32.579  1.00  0.00    -0.273 N 
HETATM   28  H   UNL     1      -9.661  -0.799 -32.242  1.00  0.00     0.189 HD
HETATM   29  N   UNL     1     -11.268   0.041 -33.176  1.00  0.00    -0.178 NA
HETATM   30  C   UNL     1     -11.505   1.317 -33.507  1.00  0.00     0.064 A 
HETATM   31  C   UNL     1     -10.441   2.155 -33.075  1.00  0.00     0.066 A 
BRANCH  30  32
HETATM   32  C   UNL     1     -12.800   1.700 -34.209  1.00  0.00    -0.005 C 
HETATM   33  C   UNL     1     -13.739   0.479 -34.259  1.00  0.00     0.021 C 
HETATM   34  C   UNL     1     -13.527   2.843 -33.470  1.00  0.00     0.021 C 
HETATM   35  C   UNL     1     -12.529   2.178 -35.652  1.00  0.00     0.021 C 
ENDBRANCH  30  32
ENDBRANCH  23  26
ENDBRANCH   3  22
TORSDOF 7
ENDMDL
MODEL 2
REMARK VINA RESULT:      -8.6      2.625     10.105
REMARK  7 active torsions:
REMARK  status: ('A' for Active; 'I' for Inactive)
REMARK    1  A    between atoms: C_2  and  C_3 
REMARK    2  A    between atoms: C_7  and  C_8 
REMARK       I    between atoms: C_8  and  N_9 
REMARK    3  A    between atoms: N_9  and  C_10 
REMARK    4  A    between atoms: C_10  and  C_11 
REMARK    5  A    between atoms: C_13  and  N_14 
REMARK       I    between atoms: N_14  and  C_15 
REMARK    6  A    between atoms: C_15  and  C_16 
REMARK    7  A    between atoms: C_20  and  C_21 
ROOT
HETATM    1  C   UNL     1      -5.148  -1.271 -33.213  1.00  0.00    -0.035 A 
HETATM    2  C   UNL     1      -4.813   0.077 -33.018  1.00  0.00     0.059 A 
HETATM    3  C   UNL     1      -3.628   0.403 -32.361  1.00  0.00     0.130 A 
HETATM    4  N   UNL     1      -2.808  -0.540 -31.869  1.00  0.00    -0.243 NA
HETATM    5  C   UNL     1      -3.154  -1.833 -32.033  1.00  0.00     0.119 A 
HETATM    6  C   UNL     1      -4.296  -2.246 -32.692  1.00  0.00     0.028 A 
ENDROOT
BRANCH   1   7
HETATM    7  C   UNL     1      -6.387  -1.651 -33.973  1.00  0.00     0.161 C 
BRANCH   7   8
HETATM    8  N   UNL     1      -7.505  -0.808 -33.631  1.00  0.00    -0.351 N 
HETATM    9  C   UNL     1      -7.963   0.177 -34.471  1.00  0.00     0.270 C 
HETATM   10  O   UNL     1      -7.428   0.434 -35.544  1.00  0.00    -0.266 OA
HETATM   11  H   UNL     1      -7.928  -0.921 -32.723  1.00  0.00     0.163 HD
BRANCH   9  12
HETATM   12  C   UNL     1      -9.132   0.877 -34.009  1.00  0.00     0.119 A 
HETATM   13  N   UNL     1      -9.111   1.634 -32.869  1.00  0.00    -0.273 N 
HETATM   14  N   UNL     1     -10.272   2.249 -32.594  1.00  0.00    -0.178 NA
HETATM   15  H   UNL     1      -8.321   1.775 -32.247  1.00  0.00     0.189 HD
HETATM   16  C   UNL     1     -11.090   1.876 -33.587  1.00  0.00     0.064 A 
HETATM   17  C   UNL     1     -10.419   1.012 -34.493  1.00  0.00     0.066 A 
BRANCH  16  18
HETATM   18  C   UNL     1     -12.526   2.374 -33.668  1.00  0.00    -0.005 C 
HETATM   19  C   UNL     1     -12.830   3.069 -35.012  1.00  0.00     0.021 C 
HETATM   20  C   UNL     1     -12.798   3.388 -32.538  1.00  0.00     0.021 C 
HETATM   21  C   UNL     1     -13.499   1.186 -33.515  1.00  0.00     0.021 C 
ENDBRANCH  16  18
ENDBRANCH   9  12
ENDBRANCH   7   8
ENDBRANCH   1   7
BRANCH   3  22
HETATM   22  N   UNL     1      -3.304   1.762 -32.257  1.00  0.00    -0.306 N 
HETATM   23  C   UNL     1      -3.831   2.641 -31.335  1.00  0.00     0.275 C 
HETATM   24  O   UNL     1      -4.682   2.387 -30.491  1.00  0.00    -0.266 OA
HETATM   25  H   UNL     1      -2.583   2.100 -32.871  1.00  0.00     0.170 HD
BRANCH  23  26
HETATM   26  C   UNL     1      -3.258   3.969 -31.395  1.00  0.00     0.120 A 
HETATM   27  N   UNL     1      -3.696   4.958 -30.557  1.00  0.00    -0.273 N 
HETATM   28  H   UNL     1      -4.425   4.876 -29.855  1.00  0.00     0.189 HD
HETATM   29  N   UNL     1      -3.050   6.125 -30.700  1.00  0.00    -0.178 NA
HETATM   30  C   UNL     1      -2.182   5.907 -31.696  1.00  0.00     0.064 A 
HETATM   31  C   UNL     1      -2.272   4.565 -32.157  1.00  0.00     0.066 A 
BRANCH  30  32
HETATM   32  C   UNL     1      -1.243   7.015 -32.152  1.00  0.00    -0.005 C 
HETATM   33  C   UNL     1       0.120   6.856 -31.451  1.00  0.00     0.021 C 
HETATM   34  C   UNL     1      -1.014   6.970 -33.677  1.00  0.00     0.021 C 
HETATM   35  C   UNL     1      -1.820   8.406 -31.811  1.00  0.00     0.021 C 
ENDBRANCH  30  32
ENDBRANCH  23  26
ENDBRANCH   3  22
TORSDOF 7
ENDMDL
MODEL 3
REMARK VINA RESULT:      -8.5      0.998     11.509
REMARK  7 active torsions:
REMARK  status: ('A' for Active; 'I' for Inactive)
REMARK    1  A    between atoms: C_2  and  C_3 
REMARK    2  A    between atoms: C_7  and  C_8 
REMARK       I    between atoms: C_8  and  N_9 
REMARK    3  A    between atoms: N_9  and  C_10 
REMARK    4  A    between atoms: C_10  and  C_11 
REMARK    5  A    between atoms: C_13  and  N_14 
REMARK       I    between atoms: N_14  and  C_15 
REMARK    6  A    between atoms: C_15  and  C_16 
REMARK    7  A    between atoms: C_20  and  C_21 
ROOT
HETATM    1  C   UNL     1      -5.312   2.549 -32.977  1.00  0.00    -0.035 A 
HETATM    2  C   UNL     1      -4.345   3.050 -32.095  1.00  0.00     0.059 A 
HETATM    3  C   UNL     1      -3.954   4.384 -32.187  1.00  0.00     0.130 A 
HETATM    4  N   UNL     1      -4.451   5.204 -33.128  1.00  0.00    -0.243 NA
HETATM    5  C   UNL     1      -5.357   4.705 -33.993  1.00  0.00     0.119 A 
HETATM    6  C   UNL     1      -5.819   3.403 -33.958  1.00  0.00     0.028 A 
ENDROOT
BRANCH   1   7
HETATM    7  C   UNL     1      -5.797   1.132 -32.859  1.00  0.00     0.161 C 
BRANCH   7   8
HETATM    8  N   UNL     1      -7.195   1.014 -33.192  1.00  0.00    -0.351 N 
HETATM    9  C   UNL     1      -8.189   1.237 -32.271  1.00  0.00     0.270 C 
HETATM   10  O   UNL     1      -7.956   1.509 -31.098  1.00  0.00    -0.266 OA
HETATM   11  H   UNL     1      -7.440   0.709 -34.121  1.00  0.00     0.163 HD
BRANCH   9  12
HETATM   12  C   UNL     1      -9.529   1.146 -32.787  1.00  0.00     0.119 A 
HETATM   13  N   UNL     1     -10.260  -0.006 -32.689  1.00  0.00    -0.273 N 
HETATM   14  N   UNL     1     -11.502   0.084 -33.188  1.00  0.00    -0.178 NA
HETATM   15  H   UNL     1      -9.958  -0.884 -32.277  1.00  0.00     0.189 HD
HETATM   16  C   UNL     1     -11.590   1.342 -33.639  1.00  0.00     0.064 A 
HETATM   17  C   UNL     1     -10.374   2.043 -33.412  1.00  0.00     0.066 A 
BRANCH  16  18
HETATM   18  C   UNL     1     -12.865   1.876 -34.276  1.00  0.00    -0.005 C 
HETATM   19  C   UNL     1     -13.951   0.787 -34.414  1.00  0.00     0.021 C 
HETATM   20  C   UNL     1     -12.561   2.422 -35.686  1.00  0.00     0.021 C 
HETATM   21  C   UNL     1     -13.440   3.017 -33.413  1.00  0.00     0.021 C 
ENDBRANCH  16  18
ENDBRANCH   9  12
ENDBRANCH   7   8
ENDBRANCH   1   7
BRANCH   3  22
HETATM   22  N   UNL     1      -3.039   4.854 -31.236  1.00  0.00    -0.306 N 
HETATM   23  C   UNL     1      -1.706   5.115 -31.470  1.00  0.00     0.275 C 
HETATM   24  O   UNL     1      -1.106   4.948 -32.526  1.00  0.00    -0.266 OA
HETATM   25  H   UNL     1      -3.409   5.072 -30.327  1.00  0.00     0.170 HD
BRANCH  23  26
HETATM   26  C   UNL     1      -1.008   5.673 -30.331  1.00  0.00     0.120 A 
HETATM   27  N   UNL     1      -0.057   4.945 -29.669  1.00  0.00    -0.273 N 
HETATM   28  H   UNL     1       0.238   3.998 -29.886  1.00  0.00     0.189 HD
HETATM   29  N   UNL     1       0.533   5.601 -28.659  1.00  0.00    -0.178 NA
HETATM   30  C   UNL     1      -0.082   6.791 -28.629  1.00  0.00     0.064 A 
HETATM   31  C   UNL     1      -1.051   6.882 -29.666  1.00  0.00     0.066 A 
BRANCH  30  32
HETATM   32  C   UNL     1       0.325   7.839 -27.604  1.00  0.00    -0.005 C 
HETATM   33  C   UNL     1       0.634   7.152 -26.259  1.00  0.00     0.021 C 
HETATM   34  C   UNL     1       1.581   8.614 -28.055  1.00  0.00     0.021 C 
HETATM   35  C   UNL     1      -0.804   8.870 -27.387  1.00  0.00     0.021 C 
ENDBRANCH  30  32
ENDBRANCH  23  26
ENDBRANCH   3  22
TORSDOF 7
ENDMDL
MODEL 4
REMARK VINA RESULT:      -8.4      3.807     11.676
REMARK  7 active torsions:
REMARK  status: ('A' for Active; 'I' for Inactive)
REMARK    1  A    between atoms: C_2  and  C_3 
REMARK    2  A    between atoms: C_7  and  C_8 
REMARK       I    between atoms: C_8  and  N_9 
REMARK    3  A    between atoms: N_9  and  C_10 
REMARK    4  A    between atoms: C_10  and  C_11 
REMARK    5  A    between atoms: C_13  and  N_14 
REMARK       I    between atoms: N_14  and  C_15 
REMARK    6  A    between atoms: C_15  and  C_16 
REMARK    7  A    between atoms: C_20  and  C_21 
ROOT
HETATM    1  C   UNL     1      -3.848   3.847 -32.525  1.00  0.00    -0.035 A 
HETATM    2  C   UNL     1      -3.266   4.386 -31.369  1.00  0.00     0.059 A 
HETATM    3  C   UNL     1      -2.058   5.075 -31.464  1.00  0.00     0.130 A 
HETATM    4  N   UNL     1      -1.409   5.208 -32.632  1.00  0.00    -0.243 NA
HETATM    5  C   UNL     1      -1.960   4.659 -33.733  1.00  0.00     0.119 A 
HETATM    6  C   UNL     1      -3.164   3.981 -33.734  1.00  0.00     0.028 A 
ENDROOT
BRANCH   1   7
HETATM    7  C   UNL     1      -5.179   3.154 -32.462  1.00  0.00     0.161 C 
BRANCH   7   8
HETATM    8  N   UNL     1      -5.065   1.745 -32.745  1.00  0.00    -0.351 N 
HETATM    9  C   UNL     1      -5.872   1.114 -33.659  1.00  0.00     0.270 C 
HETATM   10  O   UNL     1      -6.769   1.694 -34.263  1.00  0.00    -0.266 OA
HETATM   11  H   UNL     1      -4.401   1.204 -32.214  1.00  0.00     0.163 HD
BRANCH   9  12
HETATM   12  C   UNL     1      -5.578  -0.278 -33.873  1.00  0.00     0.119 A 
HETATM   13  N   UNL     1      -4.418  -0.845 -33.418  1.00  0.00    -0.273 N 
HETATM   14  N   UNL     1      -4.311  -2.158 -33.670  1.00  0.00    -0.178 NA
HETATM   15  H   UNL     1      -3.670  -0.377 -32.916  1.00  0.00     0.189 HD
HETATM   16  C   UNL     1      -5.439  -2.467 -34.322  1.00  0.00     0.064 A 
HETATM   17  C   UNL     1      -6.260  -1.317 -34.475  1.00  0.00     0.066 A 
BRANCH  16  18
HETATM   18  C   UNL     1      -5.733  -3.887 -34.783  1.00  0.00    -0.005 C 
HETATM   19  C   UNL     1      -4.723  -4.908 -34.216  1.00  0.00     0.021 C 
HETATM   20  C   UNL     1      -5.671  -3.965 -36.322  1.00  0.00     0.021 C 
HETATM   21  C   UNL     1      -7.144  -4.304 -34.319  1.00  0.00     0.021 C 
ENDBRANCH  16  18
ENDBRANCH   9  12
ENDBRANCH   7   8
ENDBRANCH   1   7
BRANCH   3  22
HETATM   22  N   UNL     1      -1.557   5.657 -30.292  1.00  0.00    -0.306 N 
HETATM   23  C   UNL     1      -0.289   5.469 -29.787  1.00  0.00     0.275 C 
HETATM   24  O   UNL     1       0.581   4.744 -30.255  1.00  0.00    -0.266 OA
HETATM   25  H   UNL     1      -2.159   6.311 -29.822  1.00  0.00     0.170 HD
BRANCH  23  26
HETATM   26  C   UNL     1      -0.004   6.257 -28.606  1.00  0.00     0.120 A 
HETATM   27  N   UNL     1      -0.334   5.796 -27.361  1.00  0.00    -0.273 N 
HETATM   28  H   UNL     1      -0.789   4.914 -27.144  1.00  0.00     0.189 HD
HETATM   29  N   UNL     1       0.023   6.614 -26.360  1.00  0.00    -0.178 NA
HETATM   30  C   UNL     1       0.571   7.672 -26.971  1.00  0.00     0.064 A 
HETATM   31  C   UNL     1       0.582   7.487 -28.381  1.00  0.00     0.066 A 
BRANCH  30  32
HETATM   32  C   UNL     1       1.116   8.834 -26.153  1.00  0.00    -0.005 C 
HETATM   33  C   UNL     1       1.383  10.036 -27.081  1.00  0.00     0.021 C 
HETATM   34  C   UNL     1       0.119   9.274 -25.061  1.00  0.00     0.021 C 
HETATM   35  C   UNL     1       2.435   8.446 -25.449  1.00  0.00     0.021 C 
ENDBRANCH  30  32
ENDBRANCH  23  26
ENDBRANCH   3  22
TORSDOF 7
ENDMDL
MODEL 5
REMARK VINA RESULT:      -8.4      4.308      5.201
REMARK  7 active torsions:
REMARK  status: ('A' for Active; 'I' for Inactive)
REMARK    1  A    between atoms: C_2  and  C_3 
REMARK    2  A    between atoms: C_7  and  C_8 
REMARK       I    between atoms: C_8  and  N_9 
REMARK    3  A    between atoms: N_9  and  C_10 
REMARK    4  A    between atoms: C_10  and  C_11 
REMARK    5  A    between atoms: C_13  and  N_14 
REMARK       I    between atoms: N_14  and  C_15 
REMARK    6  A    between atoms: C_15  and  C_16 
REMARK    7  A    between atoms: C_20  and  C_21 
ROOT
HETATM    1  C   UNL     1      -2.891   4.676 -31.782  1.00  0.00    -0.035 A 
HETATM    2  C   UNL     1      -3.000   3.330 -32.155  1.00  0.00     0.059 A 
HETATM    3  C   UNL     1      -4.250   2.714 -32.155  1.00  0.00     0.130 A 
HETATM    4  N   UNL     1      -5.359   3.365 -31.768  1.00  0.00    -0.243 NA
HETATM    5  C   UNL     1      -5.241   4.651 -31.380  1.00  0.00     0.119 A 
HETATM    6  C   UNL     1      -4.045   5.345 -31.373  1.00  0.00     0.028 A 
ENDROOT
BRANCH   1   7
HETATM    7  C   UNL     1      -1.565   5.382 -31.833  1.00  0.00     0.161 C 
BRANCH   7   8
HETATM    8  N   UNL     1      -1.226   5.979 -30.566  1.00  0.00    -0.351 N 
HETATM    9  C   UNL     1      -0.183   5.523 -29.798  1.00  0.00     0.270 C 
HETATM   10  O   UNL     1       0.501   4.556 -30.116  1.00  0.00    -0.266 OA
HETATM   11  H   UNL     1      -1.809   6.723 -30.217  1.00  0.00     0.163 HD
BRANCH   9  12
HETATM   12  C   UNL     1       0.064   6.277 -28.597  1.00  0.00     0.119 A 
HETATM   13  N   UNL     1      -0.170   5.748 -27.357  1.00  0.00    -0.273 N 
HETATM   14  N   UNL     1       0.144   6.566 -26.341  1.00  0.00    -0.178 NA
HETATM   15  H   UNL     1      -0.533   4.823 -27.149  1.00  0.00     0.189 HD
HETATM   16  C   UNL     1       0.594   7.678 -26.934  1.00  0.00     0.064 A 
HETATM   17  C   UNL     1       0.557   7.543 -28.348  1.00  0.00     0.066 A 
BRANCH  16  18
HETATM   18  C   UNL     1       1.080   8.874 -26.128  1.00  0.00    -0.005 C 
HETATM   19  C   UNL     1       1.442  10.078 -27.024  1.00  0.00     0.021 C 
HETATM   20  C   UNL     1       2.338   8.490 -25.321  1.00  0.00     0.021 C 
HETATM   21  C   UNL     1      -0.022   9.324 -25.147  1.00  0.00     0.021 C 
ENDBRANCH  16  18
ENDBRANCH   9  12
ENDBRANCH   7   8
ENDBRANCH   1   7
BRANCH   3  22
HETATM   22  N   UNL     1      -4.315   1.389 -32.606  1.00  0.00    -0.306 N 
HETATM   23  C   UNL     1      -3.640   0.323 -32.052  1.00  0.00     0.275 C 
HETATM   24  O   UNL     1      -2.858   0.367 -31.110  1.00  0.00    -0.266 OA
HETATM   25  H   UNL     1      -4.956   1.202 -33.357  1.00  0.00     0.170 HD
BRANCH  23  26
HETATM   26  C   UNL     1      -3.954  -0.951 -32.662  1.00  0.00     0.120 A 
HETATM   27  N   UNL     1      -3.274  -2.084 -32.306  1.00  0.00    -0.273 N 
HETATM   28  H   UNL     1      -2.521  -2.148 -31.627  1.00  0.00     0.189 HD
HETATM   29  N   UNL     1      -3.696  -3.197 -32.924  1.00  0.00    -0.178 NA
HETATM   30  C   UNL     1      -4.664  -2.774 -33.748  1.00  0.00     0.064 A 
HETATM   31  C   UNL     1      -4.865  -1.373 -33.611  1.00  0.00     0.066 A 
BRANCH  30  32
HETATM   32  C   UNL     1      -5.408  -3.767 -34.630  1.00  0.00    -0.005 C 
HETATM   33  C   UNL     1      -4.850  -5.184 -34.395  1.00  0.00     0.021 C 
HETATM   34  C   UNL     1      -6.919  -3.780 -34.317  1.00  0.00     0.021 C 
HETATM   35  C   UNL     1      -5.247  -3.410 -36.124  1.00  0.00     0.021 C 
ENDBRANCH  30  32
ENDBRANCH  23  26
ENDBRANCH   3  22
TORSDOF 7
ENDMDL
MODEL 6
REMARK VINA RESULT:      -8.3      2.903      4.038
REMARK  7 active torsions:
REMARK  status: ('A' for Active; 'I' for Inactive)
REMARK    1  A    between atoms: C_2  and  C_3 
REMARK    2  A    between atoms: C_7  and  C_8 
REMARK       I    between atoms: C_8  and  N_9 
REMARK    3  A    between atoms: N_9  and  C_10 
REMARK    4  A    between atoms: C_10  and  C_11 
REMARK    5  A    between atoms: C_13  and  N_14 
REMARK       I    between atoms: N_14  and  C_15 
REMARK    6  A    between atoms: C_15  and  C_16 
REMARK    7  A    between atoms: C_20  and  C_21 
ROOT
HETATM    1  C   UNL     1      -4.578  -1.476 -33.240  1.00  0.00    -0.035 A 
HETATM    2  C   UNL     1      -5.753  -0.713 -33.270  1.00  0.00     0.059 A 
HETATM    3  C   UNL     1      -6.864  -1.187 -33.965  1.00  0.00     0.130 A 
HETATM    4  N   UNL     1      -6.832  -2.345 -34.645  1.00  0.00    -0.243 NA
HETATM    5  C   UNL     1      -5.687  -3.057 -34.637  1.00  0.00     0.119 A 
HETATM    6  C   UNL     1      -4.548  -2.673 -33.955  1.00  0.00     0.028 A 
ENDROOT
BRANCH   1   7
HETATM    7  C   UNL     1      -3.387  -1.018 -32.447  1.00  0.00     0.161 C 
BRANCH   7   8
HETATM    8  N   UNL     1      -3.209   0.410 -32.522  1.00  0.00    -0.351 N 
HETATM    9  C   UNL     1      -3.674   1.259 -31.548  1.00  0.00     0.270 C 
HETATM   10  O   UNL     1      -4.307   0.865 -30.573  1.00  0.00    -0.266 OA
HETATM   11  H   UNL     1      -2.770   0.794 -33.344  1.00  0.00     0.163 HD
BRANCH   9  12
HETATM   12  C   UNL     1      -3.349   2.647 -31.742  1.00  0.00     0.119 A 
HETATM   13  N   UNL     1      -3.742   3.608 -30.851  1.00  0.00    -0.273 N 
HETATM   14  N   UNL     1      -3.331   4.847 -31.159  1.00  0.00    -0.178 NA
HETATM   15  H   UNL     1      -4.285   3.466 -30.004  1.00  0.00     0.189 HD
HETATM   16  C   UNL     1      -2.647   4.698 -32.300  1.00  0.00     0.064 A 
HETATM   17  C   UNL     1      -2.637   3.336 -32.705  1.00  0.00     0.066 A 
BRANCH  16  18
HETATM   18  C   UNL     1      -1.983   5.878 -32.995  1.00  0.00    -0.005 C 
HETATM   19  C   UNL     1      -0.676   6.309 -32.296  1.00  0.00     0.021 C 
HETATM   20  C   UNL     1      -2.938   7.091 -33.003  1.00  0.00     0.021 C 
HETATM   21  C   UNL     1      -1.644   5.502 -34.452  1.00  0.00     0.021 C 
ENDBRANCH  16  18
ENDBRANCH   9  12
ENDBRANCH   7   8
ENDBRANCH   1   7
BRANCH   3  22
HETATM   22  N   UNL     1      -8.036  -0.422 -33.903  1.00  0.00    -0.306 N 
HETATM   23  C   UNL     1      -8.458   0.307 -32.813  1.00  0.00     0.275 C 
HETATM   24  O   UNL     1      -7.901   0.375 -31.723  1.00  0.00    -0.266 OA
HETATM   25  H   UNL     1      -8.575  -0.358 -34.750  1.00  0.00     0.170 HD
BRANCH  23  26
HETATM   26  C   UNL     1      -9.662   1.074 -33.049  1.00  0.00     0.120 A 
HETATM   27  N   UNL     1     -10.102   1.987 -32.129  1.00  0.00    -0.273 N 
HETATM   28  H   UNL     1      -9.665   2.205 -31.238  1.00  0.00     0.189 HD
HETATM   29  N   UNL     1     -11.208   2.650 -32.497  1.00  0.00    -0.178 NA
HETATM   30  C   UNL     1     -11.531   2.126 -33.686  1.00  0.00     0.064 A 
HETATM   31  C   UNL     1     -10.584   1.139 -34.076  1.00  0.00     0.066 A 
BRANCH  30  32
HETATM   32  C   UNL     1     -12.748   2.636 -34.445  1.00  0.00    -0.005 C 
HETATM   33  C   UNL     1     -13.829   1.538 -34.483  1.00  0.00     0.021 C 
HETATM   34  C   UNL     1     -13.350   3.888 -33.772  1.00  0.00     0.021 C 
HETATM   35  C   UNL     1     -12.378   3.021 -35.894  1.00  0.00     0.021 C 
ENDBRANCH  30  32
ENDBRANCH  23  26
ENDBRANCH   3  22
TORSDOF 7
ENDMDL
MODEL 7
REMARK VINA RESULT:      -8.2      2.787      9.617
REMARK  7 active torsions:
REMARK  status: ('A' for Active; 'I' for Inactive)
REMARK    1  A    between atoms: C_2  and  C_3 
REMARK    2  A    between atoms: C_7  and  C_8 
REMARK       I    between atoms: C_8  and  N_9 
REMARK    3  A    between atoms: N_9  and  C_10 
REMARK    4  A    between atoms: C_10  and  C_11 
REMARK    5  A    between atoms: C_13  and  N_14 
REMARK       I    between atoms: N_14  and  C_15 
REMARK    6  A    between atoms: C_15  and  C_16 
REMARK    7  A    between atoms: C_20  and  C_21 
ROOT
HETATM    1  C   UNL     1      -5.335  -1.197 -33.272  1.00  0.00    -0.035 A 
HETATM    2  C   UNL     1      -4.945   0.131 -33.051  1.00  0.00     0.059 A 
HETATM    3  C   UNL     1      -3.702   0.397 -32.479  1.00  0.00     0.130 A 
HETATM    4  N   UNL     1      -2.874  -0.588 -32.095  1.00  0.00    -0.243 NA
HETATM    5  C   UNL     1      -3.271  -1.863 -32.282  1.00  0.00     0.119 A 
HETATM    6  C   UNL     1      -4.475  -2.217 -32.862  1.00  0.00     0.028 A 
ENDROOT
BRANCH   1   7
HETATM    7  C   UNL     1      -6.642  -1.511 -33.943  1.00  0.00     0.161 C 
BRANCH   7   8
HETATM    8  N   UNL     1      -7.638  -0.503 -33.677  1.00  0.00    -0.351 N 
HETATM    9  C   UNL     1      -7.933   0.490 -34.578  1.00  0.00     0.270 C 
HETATM   10  O   UNL     1      -7.343   0.612 -35.647  1.00  0.00    -0.266 OA
HETATM   11  H   UNL     1      -8.092  -0.507 -32.778  1.00  0.00     0.163 HD
BRANCH   9  12
HETATM   12  C   UNL     1      -9.001   1.371 -34.186  1.00  0.00     0.119 A 
HETATM   13  N   UNL     1     -10.196   1.390 -34.852  1.00  0.00    -0.273 N 
HETATM   14  N   UNL     1     -11.098   2.242 -34.341  1.00  0.00    -0.178 NA
HETATM   15  H   UNL     1     -10.452   0.828 -35.658  1.00  0.00     0.189 HD
HETATM   16  C   UNL     1     -10.470   2.811 -33.304  1.00  0.00     0.064 A 
HETATM   17  C   UNL     1      -9.152   2.298 -33.173  1.00  0.00     0.066 A 
BRANCH  16  18
HETATM   18  C   UNL     1     -11.157   3.844 -32.423  1.00  0.00    -0.005 C 
HETATM   19  C   UNL     1     -10.597   3.853 -30.985  1.00  0.00     0.021 C 
HETATM   20  C   UNL     1     -12.669   3.546 -32.341  1.00  0.00     0.021 C 
HETATM   21  C   UNL     1     -10.959   5.253 -33.021  1.00  0.00     0.021 C 
ENDBRANCH  16  18
ENDBRANCH   9  12
ENDBRANCH   7   8
ENDBRANCH   1   7
BRANCH   3  22
HETATM   22  N   UNL     1      -3.330   1.741 -32.346  1.00  0.00    -0.306 N 
HETATM   23  C   UNL     1      -3.908   2.649 -31.486  1.00  0.00     0.275 C 
HETATM   24  O   UNL     1      -4.851   2.439 -30.732  1.00  0.00    -0.266 OA
HETATM   25  H   UNL     1      -2.536   2.042 -32.884  1.00  0.00     0.170 HD
BRANCH  23  26
HETATM   26  C   UNL     1      -3.273   3.950 -31.491  1.00  0.00     0.120 A 
HETATM   27  N   UNL     1      -3.549   4.867 -30.514  1.00  0.00    -0.273 N 
HETATM   28  H   UNL     1      -4.191   4.746 -29.736  1.00  0.00     0.189 HD
HETATM   29  N   UNL     1      -2.861   6.013 -30.625  1.00  0.00    -0.178 NA
HETATM   30  C   UNL     1      -2.135   5.860 -31.740  1.00  0.00     0.064 A 
HETATM   31  C   UNL     1      -2.356   4.577 -32.312  1.00  0.00     0.066 A 
BRANCH  30  32
HETATM   32  C   UNL     1      -1.198   6.966 -32.203  1.00  0.00    -0.005 C 
HETATM   33  C   UNL     1      -0.979   6.851 -33.725  1.00  0.00     0.021 C 
HETATM   34  C   UNL     1      -1.779   8.363 -31.900  1.00  0.00     0.021 C 
HETATM   35  C   UNL     1       0.170   6.868 -31.495  1.00  0.00     0.021 C 
ENDBRANCH  30  32
ENDBRANCH  23  26
ENDBRANCH   3  22
TORSDOF 7
ENDMDL
MODEL 8
REMARK VINA RESULT:      -8.0      2.770      9.982
REMARK  7 active torsions:
REMARK  status: ('A' for Active; 'I' for Inactive)
REMARK    1  A    between atoms: C_2  and  C_3 
REMARK    2  A    between atoms: C_7  and  C_8 
REMARK       I    between atoms: C_8  and  N_9 
REMARK    3  A    between atoms: N_9  and  C_10 
REMARK    4  A    between atoms: C_10  and  C_11 
REMARK    5  A    between atoms: C_13  and  N_14 
REMARK       I    between atoms: N_14  and  C_15 
REMARK    6  A    between atoms: C_15  and  C_16 
REMARK    7  A    between atoms: C_20  and  C_21 
ROOT
HETATM    1  C   UNL     1      -6.149  -0.876 -33.450  1.00  0.00    -0.035 A 
HETATM    2  C   UNL     1      -5.693   0.413 -33.140  1.00  0.00     0.059 A 
HETATM    3  C   UNL     1      -4.340   0.621 -32.880  1.00  0.00     0.130 A 
HETATM    4  N   UNL     1      -3.455  -0.390 -32.881  1.00  0.00    -0.243 NA
HETATM    5  C   UNL     1      -3.908  -1.632 -33.149  1.00  0.00     0.119 A 
HETATM    6  C   UNL     1      -5.227  -1.923 -33.441  1.00  0.00     0.028 A 
ENDROOT
BRANCH   1   7
HETATM    7  C   UNL     1      -7.591  -1.117 -33.795  1.00  0.00     0.161 C 
BRANCH   7   8
HETATM    8  N   UNL     1      -8.300   0.116 -34.031  1.00  0.00    -0.351 N 
HETATM    9  C   UNL     1      -9.499   0.399 -33.425  1.00  0.00     0.270 C 
HETATM   10  O   UNL     1     -10.067  -0.392 -32.679  1.00  0.00    -0.266 OA
HETATM   11  H   UNL     1      -7.919   0.765 -34.702  1.00  0.00     0.163 HD
BRANCH   9  12
HETATM   12  C   UNL     1     -10.036   1.702 -33.715  1.00  0.00     0.119 A 
HETATM   13  N   UNL     1      -9.408   2.562 -34.574  1.00  0.00    -0.273 N 
HETATM   14  N   UNL     1     -10.054   3.723 -34.762  1.00  0.00    -0.178 NA
HETATM   15  H   UNL     1      -8.537   2.398 -35.070  1.00  0.00     0.189 HD
HETATM   16  C   UNL     1     -11.145   3.626 -33.992  1.00  0.00     0.064 A 
HETATM   17  C   UNL     1     -11.172   2.378 -33.314  1.00  0.00     0.066 A 
BRANCH  16  18
HETATM   18  C   UNL     1     -12.178   4.742 -33.925  1.00  0.00    -0.005 C 
HETATM   19  C   UNL     1     -13.376   4.379 -33.022  1.00  0.00     0.021 C 
HETATM   20  C   UNL     1     -12.723   5.041 -35.337  1.00  0.00     0.021 C 
HETATM   21  C   UNL     1     -11.526   6.022 -33.362  1.00  0.00     0.021 C 
ENDBRANCH  16  18
ENDBRANCH   9  12
ENDBRANCH   7   8
ENDBRANCH   1   7
BRANCH   3  22
HETATM   22  N   UNL     1      -3.924   1.938 -32.647  1.00  0.00    -0.306 N 
HETATM   23  C   UNL     1      -4.074   2.625 -31.462  1.00  0.00     0.275 C 
HETATM   24  O   UNL     1      -4.619   2.212 -30.445  1.00  0.00    -0.266 OA
HETATM   25  H   UNL     1      -3.423   2.389 -33.393  1.00  0.00     0.170 HD
BRANCH  23  26
HETATM   26  C   UNL     1      -3.478   3.945 -31.469  1.00  0.00     0.120 A 
HETATM   27  N   UNL     1      -3.932   4.921 -30.624  1.00  0.00    -0.273 N 
HETATM   28  H   UNL     1      -4.688   4.835 -29.952  1.00  0.00     0.189 HD
HETATM   29  N   UNL     1      -3.263   6.080 -30.714  1.00  0.00    -0.178 NA
HETATM   30  C   UNL     1      -2.362   5.872 -31.682  1.00  0.00     0.064 A 
HETATM   31  C   UNL     1      -2.456   4.543 -32.179  1.00  0.00     0.066 A 
BRANCH  30  32
HETATM   32  C   UNL     1      -1.389   6.974 -32.076  1.00  0.00    -0.005 C 
HETATM   33  C   UNL     1      -1.999   8.347 -31.729  1.00  0.00     0.021 C 
HETATM   34  C   UNL     1      -0.046   6.836 -31.330  1.00  0.00     0.021 C 
HETATM   35  C   UNL     1      -1.087   6.932 -33.589  1.00  0.00     0.021 C 
ENDBRANCH  30  32
ENDBRANCH  23  26
ENDBRANCH   3  22
TORSDOF 7
ENDMDL
MODEL 9
REMARK VINA RESULT:      -7.9      2.369     10.545
REMARK  7 active torsions:
REMARK  status: ('A' for Active; 'I' for Inactive)
REMARK    1  A    between atoms: C_2  and  C_3 
REMARK    2  A    between atoms: C_7  and  C_8 
REMARK       I    between atoms: C_8  and  N_9 
REMARK    3  A    between atoms: N_9  and  C_10 
REMARK    4  A    between atoms: C_10  and  C_11 
REMARK    5  A    between atoms: C_13  and  N_14 
REMARK       I    between atoms: N_14  and  C_15 
REMARK    6  A    between atoms: C_15  and  C_16 
REMARK    7  A    between atoms: C_20  and  C_21 
ROOT
HETATM    1  C   UNL     1      -6.854   0.355 -34.108  1.00  0.00    -0.035 A 
HETATM    2  C   UNL     1      -6.098   1.446 -33.658  1.00  0.00     0.059 A 
HETATM    3  C   UNL     1      -5.072   1.239 -32.738  1.00  0.00     0.130 A 
HETATM    4  N   UNL     1      -4.807   0.022 -32.235  1.00  0.00    -0.243 NA
HETATM    5  C   UNL     1      -5.560  -1.017 -32.650  1.00  0.00     0.119 A 
HETATM    6  C   UNL     1      -6.580  -0.906 -33.576  1.00  0.00     0.028 A 
ENDROOT
BRANCH   1   7
HETATM    7  C   UNL     1      -7.925   0.540 -35.146  1.00  0.00     0.161 C 
BRANCH   7   8
HETATM    8  N   UNL     1      -9.196   0.870 -34.553  1.00  0.00    -0.351 N 
HETATM    9  C   UNL     1      -9.575   2.167 -34.307  1.00  0.00     0.270 C 
HETATM   10  O   UNL     1      -8.844   3.125 -34.535  1.00  0.00    -0.266 OA
HETATM   11  H   UNL     1      -9.800   0.115 -34.268  1.00  0.00     0.163 HD
BRANCH   9  12
HETATM   12  C   UNL     1     -10.904   2.323 -33.778  1.00  0.00     0.119 A 
HETATM   13  N   UNL     1     -11.857   1.354 -33.934  1.00  0.00    -0.273 N 
HETATM   14  N   UNL     1     -13.033   1.639 -33.354  1.00  0.00    -0.178 NA
HETATM   15  H   UNL     1     -11.750   0.469 -34.420  1.00  0.00     0.189 HD
HETATM   16  C   UNL     1     -12.849   2.845 -32.802  1.00  0.00     0.064 A 
HETATM   17  C   UNL     1     -11.531   3.314 -33.047  1.00  0.00     0.066 A 
BRANCH  16  18
HETATM   18  C   UNL     1     -13.951   3.540 -32.015  1.00  0.00    -0.005 C 
HETATM   19  C   UNL     1     -13.493   3.948 -30.599  1.00  0.00     0.021 C 
HETATM   20  C   UNL     1     -15.167   2.601 -31.867  1.00  0.00     0.021 C 
HETATM   21  C   UNL     1     -14.396   4.816 -32.759  1.00  0.00     0.021 C 
ENDBRANCH  16  18
ENDBRANCH   9  12
ENDBRANCH   7   8
ENDBRANCH   1   7
BRANCH   3  22
HETATM   22  N   UNL     1      -4.299   2.350 -32.376  1.00  0.00    -0.306 N 
HETATM   23  C   UNL     1      -4.667   3.316 -31.464  1.00  0.00     0.275 C 
HETATM   24  O   UNL     1      -5.730   3.377 -30.857  1.00  0.00    -0.266 OA
HETATM   25  H   UNL     1      -3.378   2.405 -32.774  1.00  0.00     0.170 HD
BRANCH  23  26
HETATM   26  C   UNL     1      -3.643   4.308 -31.215  1.00  0.00     0.120 A 
HETATM   27  N   UNL     1      -3.890   5.378 -30.399  1.00  0.00    -0.273 N 
HETATM   28  H   UNL     1      -4.761   5.582 -29.918  1.00  0.00     0.189 HD
HETATM   29  N   UNL     1      -2.840   6.195 -30.229  1.00  0.00    -0.178 NA
HETATM   30  C   UNL     1      -1.878   5.664 -30.994  1.00  0.00     0.064 A 
HETATM   31  C   UNL     1      -2.335   4.475 -31.625  1.00  0.00     0.066 A 
BRANCH  30  32
HETATM   32  C   UNL     1      -0.503   6.315 -31.060  1.00  0.00    -0.005 C 
HETATM   33  C   UNL     1      -0.365   7.092 -32.384  1.00  0.00     0.021 C 
HETATM   34  C   UNL     1      -0.288   7.300 -29.892  1.00  0.00     0.021 C 
HETATM   35  C   UNL     1       0.617   5.255 -30.986  1.00  0.00     0.021 C 
ENDBRANCH  30  32
ENDBRANCH  23  26
ENDBRANCH   3  22
TORSDOF 7
ENDMDL
MODEL 10
REMARK VINA RESULT:      -7.6      4.003      5.394
REMARK  7 active torsions:
REMARK  status: ('A' for Active; 'I' for Inactive)
REMARK    1  A    between atoms: C_2  and  C_3 
REMARK    2  A    between atoms: C_7  and  C_8 
REMARK       I    between atoms: C_8  and  N_9 
REMARK    3  A    between atoms: N_9  and  C_10 
REMARK    4  A    between atoms: C_10  and  C_11 
REMARK    5  A    between atoms: C_13  and  N_14 
REMARK       I    between atoms: N_14  and  C_15 
REMARK    6  A    between atoms: C_15  and  C_16 
REMARK    7  A    between atoms: C_20  and  C_21 
ROOT
HETATM    1  C   UNL     1      -6.395   4.888 -30.038  1.00  0.00    -0.035 A 
HETATM    2  C   UNL     1      -6.145   3.607 -30.548  1.00  0.00     0.059 A 
HETATM    3  C   UNL     1      -6.260   3.377 -31.918  1.00  0.00     0.130 A 
HETATM    4  N   UNL     1      -6.644   4.344 -32.768  1.00  0.00    -0.243 NA
HETATM    5  C   UNL     1      -6.913   5.565 -32.264  1.00  0.00     0.119 A 
HETATM    6  C   UNL     1      -6.802   5.886 -30.924  1.00  0.00     0.028 A 
ENDROOT
BRANCH   1   7
HETATM    7  C   UNL     1      -6.218   5.178 -28.574  1.00  0.00     0.161 C 
BRANCH   7   8
HETATM    8  N   UNL     1      -4.881   5.623 -28.274  1.00  0.00    -0.351 N 
HETATM    9  C   UNL     1      -4.619   6.546 -27.291  1.00  0.00     0.270 C 
HETATM   10  O   UNL     1      -5.505   7.083 -26.634  1.00  0.00    -0.266 OA
HETATM   11  H   UNL     1      -4.123   5.276 -28.841  1.00  0.00     0.163 HD
BRANCH   9  12
HETATM   12  C   UNL     1      -3.224   6.825 -27.073  1.00  0.00     0.119 A 
HETATM   13  N   UNL     1      -2.505   6.173 -26.109  1.00  0.00    -0.273 N 
HETATM   14  N   UNL     1      -1.211   6.523 -26.055  1.00  0.00    -0.178 NA
HETATM   15  H   UNL     1      -2.850   5.467 -25.465  1.00  0.00     0.189 HD
HETATM   16  C   UNL     1      -1.075   7.446 -27.016  1.00  0.00     0.064 A 
HETATM   17  C   UNL     1      -2.313   7.670 -27.676  1.00  0.00     0.066 A 
BRANCH  16  18
HETATM   18  C   UNL     1       0.267   8.102 -27.310  1.00  0.00    -0.005 C 
HETATM   19  C   UNL     1       0.237   9.628 -27.073  1.00  0.00     0.021 C 
HETATM   20  C   UNL     1       0.663   7.859 -28.781  1.00  0.00     0.021 C 
HETATM   21  C   UNL     1       1.353   7.499 -26.396  1.00  0.00     0.021 C 
ENDBRANCH  16  18
ENDBRANCH   9  12
ENDBRANCH   7   8
ENDBRANCH   1   7
BRANCH   3  22
HETATM   22  N   UNL     1      -5.929   2.099 -32.386  1.00  0.00    -0.306 N 
HETATM   23  C   UNL     1      -6.792   1.028 -32.462  1.00  0.00     0.275 C 
HETATM   24  O   UNL     1      -7.964   1.010 -32.105  1.00  0.00    -0.266 OA
HETATM   25  H   UNL     1      -4.999   1.982 -32.750  1.00  0.00     0.170 HD
BRANCH  23  26
HETATM   26  C   UNL     1      -6.210  -0.153 -33.064  1.00  0.00     0.120 A 
HETATM   27  N   UNL     1      -4.851  -0.308 -33.131  1.00  0.00    -0.273 N 
HETATM   28  H   UNL     1      -4.152   0.348 -32.795  1.00  0.00     0.189 HD
HETATM   29  N   UNL     1      -4.456  -1.465 -33.680  1.00  0.00    -0.178 NA
HETATM   30  C   UNL     1      -5.595  -2.078 -34.024  1.00  0.00     0.064 A 
HETATM   31  C   UNL     1      -6.721  -1.295 -33.649  1.00  0.00     0.066 A 
BRANCH  30  32
HETATM   32  C   UNL     1      -5.560  -3.451 -34.681  1.00  0.00    -0.005 C 
HETATM   33  C   UNL     1      -5.312  -3.292 -36.194  1.00  0.00     0.021 C 
HETATM   34  C   UNL     1      -4.437  -4.331 -34.093  1.00  0.00     0.021 C 
HETATM   35  C   UNL     1      -6.894  -4.201 -34.472  1.00  0.00     0.021 C 
ENDBRANCH  30  32
ENDBRANCH  23  26
ENDBRANCH   3  22
TORSDOF 7
ENDMDL
