MODEL 1
REMARK VINA RESULT:      -9.2      0.000      0.000
REMARK  5 active torsions:
REMARK  status: ('A' for Active; 'I' for Inactive)
REMARK    1  A    between atoms: C_9  and  C_10 
REMARK       I    between atoms: C_10  and  N_11 
REMARK    2  A    between atoms: N_11  and  C_12 
REMARK    3  A    between atoms: C_12  and  C_13 
REMARK    4  A    between atoms: C_15  and  O_16 
REMARK    5  A    between atoms: O_16  and  C_17 
ROOT
HETATM    1  C   UNL     1      -5.086   0.469 -33.018  1.00  0.00     0.273 C 
HETATM    2  N   UNL     1      -4.799   1.495 -32.147  1.00  0.00    -0.351 N 
HETATM    3  O   UNL     1      -5.873   0.575 -33.952  1.00  0.00    -0.266 OA
HETATM    4  H   UNL     1      -4.143   1.273 -31.402  1.00  0.00     0.163 HD
ENDROOT
BRANCH   2   5
HETATM    5  C   UNL     1      -5.353   2.817 -32.272  1.00  0.00     0.161 C 
BRANCH   5   6
HETATM    6  C   UNL     1      -4.450   3.736 -33.053  1.00  0.00    -0.035 A 
HETATM    7  C   UNL     1      -3.111   3.924 -32.695  1.00  0.00     0.066 A 
HETATM    8  C   UNL     1      -2.327   4.769 -33.462  1.00  0.00     0.164 A 
HETATM    9  N   UNL     1      -2.762   5.412 -34.565  1.00  0.00    -0.237 NA
HETATM   10  C   UNL     1      -4.047   5.193 -34.914  1.00  0.00     0.120 A 
HETATM   11  C   UNL     1      -4.917   4.379 -34.204  1.00  0.00     0.028 A 
BRANCH   8  12
HETATM   12  O   UNL     1      -1.022   4.951 -33.043  1.00  0.00    -0.329 OA
BRANCH  12  13
HETATM   13  C   UNL     1      -0.851   5.546 -31.739  1.00  0.00     0.130 C 
HETATM   14  C   UNL     1       0.538   5.381 -31.067  1.00  0.00     0.032 C 
HETATM   15  C   UNL     1       0.412   6.837 -30.587  1.00  0.00     0.005 C 
HETATM   16  C   UNL     1      -0.556   7.069 -31.760  1.00  0.00     0.032 C 
ENDBRANCH  12  13
ENDBRANCH   8  12
ENDBRANCH   5   6
ENDBRANCH   2   5
BRANCH   1  17
HETATM   17  C   UNL     1      -4.336  -0.763 -32.723  1.00  0.00     0.157 A 
HETATM   18  C   UNL     1      -4.534  -2.053 -33.300  1.00  0.00     0.029 A 
HETATM   19  C   UNL     1      -5.407  -2.616 -34.251  1.00  0.00     0.023 A 
HETATM   20  C   UNL     1      -3.570  -2.863 -32.712  1.00  0.00     0.063 A 
HETATM   21  C   UNL     1      -5.285  -3.976 -34.583  1.00  0.00    -0.061 A 
HETATM   22  C   UNL     1      -6.203  -4.594 -35.598  1.00  0.00     0.048 C 
HETATM   23  C   UNL     1      -4.299  -4.757 -33.967  1.00  0.00     0.009 A 
HETATM   24  C   UNL     1      -3.422  -4.218 -33.019  1.00  0.00     0.032 A 
HETATM   25  N   UNL     1      -2.888  -2.046 -31.854  1.00  0.00    -0.277 N 
HETATM   26  H   UNL     1      -2.110  -2.301 -31.256  1.00  0.00     0.189 HD
HETATM   27  N   UNL     1      -3.320  -0.772 -31.831  1.00  0.00    -0.168 NA
ENDBRANCH   1  17
TORSDOF 5
ENDMDL
MODEL 2
REMARK VINA RESULT:      -8.7      2.267      3.088
REMARK  5 active torsions:
REMARK  status: ('A' for Active; 'I' for Inactive)
REMARK    1  A    between atoms: C_9  and  C_10 
REMARK       I    between atoms: C_10  and  N_11 
REMARK    2  A    between atoms: N_11  and  C_12 
REMARK    3  A    between atoms: C_12  and  C_13 
REMARK    4  A    between atoms: C_15  and  O_16 
REMARK    5  A    between atoms: O_16  and  C_17 
ROOT
HETATM    1  C   UNL     1      -6.437   2.596 -33.388  1.00  0.00     0.273 C 
HETATM    2  N   UNL     1      -5.940   3.539 -34.258  1.00  0.00    -0.351 N 
HETATM    3  O   UNL     1      -6.516   2.768 -32.177  1.00  0.00    -0.266 OA
HETATM    4  H   UNL     1      -5.910   3.266 -35.238  1.00  0.00     0.163 HD
ENDROOT
BRANCH   2   5
HETATM    5  C   UNL     1      -5.512   4.849 -33.845  1.00  0.00     0.161 C 
BRANCH   5   6
HETATM    6  C   UNL     1      -4.011   4.973 -33.830  1.00  0.00    -0.035 A 
HETATM    7  C   UNL     1      -3.263   4.680 -32.685  1.00  0.00     0.066 A 
HETATM    8  C   UNL     1      -1.885   4.798 -32.738  1.00  0.00     0.164 A 
HETATM    9  N   UNL     1      -1.198   5.154 -33.843  1.00  0.00    -0.237 NA
HETATM   10  C   UNL     1      -1.933   5.403 -34.947  1.00  0.00     0.120 A 
HETATM   11  C   UNL     1      -3.317   5.327 -34.992  1.00  0.00     0.028 A 
BRANCH   8  12
HETATM   12  O   UNL     1      -1.197   4.534 -31.568  1.00  0.00    -0.329 OA
BRANCH  12  13
HETATM   13  C   UNL     1      -0.171   5.482 -31.207  1.00  0.00     0.130 C 
HETATM   14  C   UNL     1      -0.641   6.899 -30.783  1.00  0.00     0.032 C 
HETATM   15  C   UNL     1       0.441   6.865 -29.690  1.00  0.00     0.005 C 
HETATM   16  C   UNL     1       0.369   5.329 -29.761  1.00  0.00     0.032 C 
ENDBRANCH  12  13
ENDBRANCH   8  12
ENDBRANCH   5   6
ENDBRANCH   2   5
BRANCH   1  17
HETATM   17  C   UNL     1      -6.878   1.365 -34.064  1.00  0.00     0.157 A 
HETATM   18  C   UNL     1      -6.266   0.078 -34.002  1.00  0.00     0.029 A 
HETATM   19  C   UNL     1      -5.137  -0.479 -33.368  1.00  0.00     0.023 A 
HETATM   20  C   UNL     1      -7.067  -0.742 -34.786  1.00  0.00     0.063 A 
HETATM   21  C   UNL     1      -4.849  -1.843 -33.542  1.00  0.00    -0.061 A 
HETATM   22  C   UNL     1      -3.655  -2.458 -32.871  1.00  0.00     0.048 C 
HETATM   23  C   UNL     1      -5.684  -2.635 -34.341  1.00  0.00     0.009 A 
HETATM   24  C   UNL     1      -6.809  -2.102 -34.980  1.00  0.00     0.032 A 
HETATM   25  N   UNL     1      -8.064   0.068 -35.254  1.00  0.00    -0.277 N 
HETATM   26  H   UNL     1      -8.834  -0.195 -35.858  1.00  0.00     0.189 HD
HETATM   27  N   UNL     1      -7.985   1.346 -34.841  1.00  0.00    -0.168 NA
ENDBRANCH   1  17
TORSDOF 5
ENDMDL
MODEL 3
REMARK VINA RESULT:      -8.6      2.111      2.704
REMARK  5 active torsions:
REMARK  status: ('A' for Active; 'I' for Inactive)
REMARK    1  A    between atoms: C_9  and  C_10 
REMARK       I    between atoms: C_10  and  N_11 
REMARK    2  A    between atoms: N_11  and  C_12 
REMARK    3  A    between atoms: C_12  and  C_13 
REMARK    4  A    between atoms: C_15  and  O_16 
REMARK    5  A    between atoms: O_16  and  C_17 
ROOT
HETATM    1  C   UNL     1      -4.282   2.211 -31.554  1.00  0.00     0.273 C 
HETATM    2  N   UNL     1      -3.867   3.036 -32.574  1.00  0.00    -0.351 N 
HETATM    3  O   UNL     1      -5.031   2.574 -30.653  1.00  0.00    -0.266 OA
HETATM    4  H   UNL     1      -3.231   2.619 -33.250  1.00  0.00     0.163 HD
ENDROOT
BRANCH   2   5
HETATM    5  C   UNL     1      -4.311   4.397 -32.722  1.00  0.00     0.161 C 
BRANCH   5   6
HETATM    6  C   UNL     1      -3.201   5.306 -33.180  1.00  0.00    -0.035 A 
HETATM    7  C   UNL     1      -3.010   6.571 -32.613  1.00  0.00     0.066 A 
HETATM    8  C   UNL     1      -1.961   7.354 -33.065  1.00  0.00     0.164 A 
HETATM    9  N   UNL     1      -1.079   6.966 -34.009  1.00  0.00    -0.237 NA
HETATM   10  C   UNL     1      -1.259   5.731 -34.521  1.00  0.00     0.120 A 
HETATM   11  C   UNL     1      -2.286   4.877 -34.147  1.00  0.00     0.028 A 
BRANCH   8  12
HETATM   12  O   UNL     1      -1.841   8.610 -32.500  1.00  0.00    -0.329 OA
BRANCH  12  13
HETATM   13  C   UNL     1      -2.417   8.773 -31.187  1.00  0.00     0.130 C 
HETATM   14  C   UNL     1      -1.521   8.401 -29.974  1.00  0.00     0.032 C 
HETATM   15  C   UNL     1      -2.086   9.638 -29.255  1.00  0.00     0.005 C 
HETATM   16  C   UNL     1      -2.386  10.226 -30.645  1.00  0.00     0.032 C 
ENDBRANCH  12  13
ENDBRANCH   8  12
ENDBRANCH   5   6
ENDBRANCH   2   5
BRANCH   1  17
HETATM   17  C   UNL     1      -3.749   0.844 -31.665  1.00  0.00     0.157 A 
HETATM   18  C   UNL     1      -4.270  -0.226 -32.452  1.00  0.00     0.029 A 
HETATM   19  C   UNL     1      -5.364  -0.405 -33.323  1.00  0.00     0.023 A 
HETATM   20  C   UNL     1      -3.406  -1.290 -32.234  1.00  0.00     0.063 A 
HETATM   21  C   UNL     1      -5.554  -1.649 -33.947  1.00  0.00    -0.061 A 
HETATM   22  C   UNL     1      -6.710  -1.860 -34.882  1.00  0.00     0.048 C 
HETATM   23  C   UNL     1      -4.658  -2.697 -33.699  1.00  0.00     0.009 A 
HETATM   24  C   UNL     1      -3.566  -2.540 -32.838  1.00  0.00     0.032 A 
HETATM   25  N   UNL     1      -2.463  -0.817 -31.365  1.00  0.00    -0.277 N 
HETATM   26  H   UNL     1      -1.670  -1.323 -30.986  1.00  0.00     0.189 HD
HETATM   27  N   UNL     1      -2.635   0.466 -30.998  1.00  0.00    -0.168 NA
ENDBRANCH   1  17
TORSDOF 5
ENDMDL
MODEL 4
REMARK VINA RESULT:      -8.6      1.704      2.376
REMARK  5 active torsions:
REMARK  status: ('A' for Active; 'I' for Inactive)
REMARK    1  A    between atoms: C_9  and  C_10 
REMARK       I    between atoms: C_10  and  N_11 
REMARK    2  A    between atoms: N_11  and  C_12 
REMARK    3  A    between atoms: C_12  and  C_13 
REMARK    4  A    between atoms: C_15  and  O_16 
REMARK    5  A    between atoms: O_16  and  C_17 
ROOT
HETATM    1  C   UNL     1      -3.164   0.132 -31.746  1.00  0.00     0.273 C 
HETATM    2  N   UNL     1      -3.794   1.269 -32.197  1.00  0.00    -0.351 N 
HETATM    3  O   UNL     1      -2.305   0.135 -30.871  1.00  0.00    -0.266 OA
HETATM    4  H   UNL     1      -4.474   1.133 -32.941  1.00  0.00     0.163 HD
ENDROOT
BRANCH   2   5
HETATM    5  C   UNL     1      -3.549   2.578 -31.652  1.00  0.00     0.161 C 
BRANCH   5   6
HETATM    6  C   UNL     1      -3.619   3.651 -32.706  1.00  0.00    -0.035 A 
HETATM    7  C   UNL     1      -2.495   4.407 -33.056  1.00  0.00     0.066 A 
HETATM    8  C   UNL     1      -2.618   5.368 -34.045  1.00  0.00     0.164 A 
HETATM    9  N   UNL     1      -3.757   5.612 -34.726  1.00  0.00    -0.237 NA
HETATM   10  C   UNL     1      -4.822   4.852 -34.397  1.00  0.00     0.120 A 
HETATM   11  C   UNL     1      -4.805   3.875 -33.413  1.00  0.00     0.028 A 
BRANCH   8  12
HETATM   12  O   UNL     1      -1.488   6.114 -34.325  1.00  0.00    -0.329 OA
BRANCH  12  13
HETATM   13  C   UNL     1      -1.243   7.244 -33.461  1.00  0.00     0.130 C 
HETATM   14  C   UNL     1      -2.404   7.681 -32.529  1.00  0.00     0.032 C 
HETATM   15  C   UNL     1      -1.353   7.915 -31.430  1.00  0.00     0.005 C 
HETATM   16  C   UNL     1      -0.455   6.907 -32.168  1.00  0.00     0.032 C 
ENDBRANCH  12  13
ENDBRANCH   8  12
ENDBRANCH   5   6
ENDBRANCH   2   5
BRANCH   1  17
HETATM   17  C   UNL     1      -3.641  -1.093 -32.411  1.00  0.00     0.157 A 
HETATM   18  C   UNL     1      -4.748  -1.217 -33.302  1.00  0.00     0.029 A 
HETATM   19  C   UNL     1      -5.720  -0.350 -33.839  1.00  0.00     0.023 A 
HETATM   20  C   UNL     1      -4.768  -2.556 -33.669  1.00  0.00     0.063 A 
HETATM   21  C   UNL     1      -6.682  -0.856 -34.729  1.00  0.00    -0.061 A 
HETATM   22  C   UNL     1      -7.724   0.052 -35.317  1.00  0.00     0.048 C 
HETATM   23  C   UNL     1      -6.667  -2.214 -35.073  1.00  0.00     0.009 A 
HETATM   24  C   UNL     1      -5.710  -3.092 -34.551  1.00  0.00     0.032 A 
HETATM   25  N   UNL     1      -3.721  -3.129 -33.002  1.00  0.00    -0.277 N 
HETATM   26  H   UNL     1      -3.432  -4.100 -33.034  1.00  0.00     0.189 HD
HETATM   27  N   UNL     1      -3.017  -2.279 -32.232  1.00  0.00    -0.168 NA
ENDBRANCH   1  17
TORSDOF 5
ENDMDL
MODEL 5
REMARK VINA RESULT:      -8.5      1.927      2.643
REMARK  5 active torsions:
REMARK  status: ('A' for Active; 'I' for Inactive)
REMARK    1  A    between atoms: C_9  and  C_10 
REMARK       I    between atoms: C_10  and  N_11 
REMARK    2  A    between atoms: N_11  and  C_12 
REMARK    3  A    between atoms: C_12  and  C_13 
REMARK    4  A    between atoms: C_15  and  O_16 
REMARK    5  A    between atoms: O_16  and  C_17 
ROOT
HETATM    1  C   UNL     1      -4.136   0.832 -31.966  1.00  0.00     0.273 C 
HETATM    2  N   UNL     1      -3.853   2.147 -32.253  1.00  0.00    -0.351 N 
HETATM    3  O   UNL     1      -3.714   0.251 -30.971  1.00  0.00    -0.266 OA
HETATM    4  H   UNL     1      -4.247   2.506 -33.119  1.00  0.00     0.163 HD
ENDROOT
BRANCH   2   5
HETATM    5  C   UNL     1      -3.077   2.997 -31.389  1.00  0.00     0.161 C 
BRANCH   5   6
HETATM    6  C   UNL     1      -2.416   4.119 -32.146  1.00  0.00    -0.035 A 
HETATM    7  C   UNL     1      -1.698   5.123 -31.487  1.00  0.00     0.066 A 
HETATM    8  C   UNL     1      -1.099   6.119 -32.239  1.00  0.00     0.164 A 
HETATM    9  N   UNL     1      -1.135   6.176 -33.586  1.00  0.00    -0.237 NA
HETATM   10  C   UNL     1      -1.805   5.182 -34.206  1.00  0.00     0.120 A 
HETATM   11  C   UNL     1      -2.450   4.149 -33.544  1.00  0.00     0.028 A 
BRANCH   8  12
HETATM   12  O   UNL     1      -0.435   7.108 -31.537  1.00  0.00    -0.329 OA
BRANCH  12  13
HETATM   13  C   UNL     1      -0.614   7.098 -30.105  1.00  0.00     0.130 C 
HETATM   14  C   UNL     1       0.604   7.526 -29.241  1.00  0.00     0.032 C 
HETATM   15  C   UNL     1      -0.383   8.278 -28.331  1.00  0.00     0.005 C 
HETATM   16  C   UNL     1      -1.337   8.348 -29.537  1.00  0.00     0.032 C 
ENDBRANCH  12  13
ENDBRANCH   8  12
ENDBRANCH   5   6
ENDBRANCH   2   5
BRANCH   1  17
HETATM   17  C   UNL     1      -5.010   0.199 -32.967  1.00  0.00     0.157 A 
HETATM   18  C   UNL     1      -4.931  -1.137 -33.461  1.00  0.00     0.029 A 
HETATM   19  C   UNL     1      -4.099  -2.253 -33.242  1.00  0.00     0.023 A 
HETATM   20  C   UNL     1      -5.982  -1.252 -34.362  1.00  0.00     0.063 A 
HETATM   21  C   UNL     1      -4.349  -3.449 -33.934  1.00  0.00    -0.061 A 
HETATM   22  C   UNL     1      -3.477  -4.651 -33.711  1.00  0.00     0.048 C 
HETATM   23  C   UNL     1      -5.420  -3.522 -34.834  1.00  0.00     0.009 A 
HETATM   24  C   UNL     1      -6.259  -2.426 -35.066  1.00  0.00     0.032 A 
HETATM   25  N   UNL     1      -6.597  -0.031 -34.356  1.00  0.00    -0.277 N 
HETATM   26  H   UNL     1      -7.409   0.249 -34.895  1.00  0.00     0.189 HD
HETATM   27  N   UNL     1      -6.041   0.872 -33.527  1.00  0.00    -0.168 NA
ENDBRANCH   1  17
TORSDOF 5
ENDMDL
MODEL 6
REMARK VINA RESULT:      -8.4      2.096      2.948
REMARK  5 active torsions:
REMARK  status: ('A' for Active; 'I' for Inactive)
REMARK    1  A    between atoms: C_9  and  C_10 
REMARK       I    between atoms: C_10  and  N_11 
REMARK    2  A    between atoms: N_11  and  C_12 
REMARK    3  A    between atoms: C_12  and  C_13 
REMARK    4  A    between atoms: C_15  and  O_16 
REMARK    5  A    between atoms: O_16  and  C_17 
ROOT
HETATM    1  C   UNL     1      -3.922   2.283 -31.466  1.00  0.00     0.273 C 
HETATM    2  N   UNL     1      -3.424   3.100 -32.454  1.00  0.00    -0.351 N 
HETATM    3  O   UNL     1      -4.606   2.690 -30.532  1.00  0.00    -0.266 OA
HETATM    4  H   UNL     1      -2.854   2.642 -33.162  1.00  0.00     0.163 HD
ENDROOT
BRANCH   2   5
HETATM    5  C   UNL     1      -3.696   4.511 -32.527  1.00  0.00     0.161 C 
BRANCH   5   6
HETATM    6  C   UNL     1      -2.452   5.337 -32.331  1.00  0.00    -0.035 A 
HETATM    7  C   UNL     1      -1.649   5.193 -31.194  1.00  0.00     0.066 A 
HETATM    8  C   UNL     1      -0.509   5.969 -31.079  1.00  0.00     0.164 A 
HETATM    9  N   UNL     1      -0.095   6.849 -32.013  1.00  0.00    -0.237 NA
HETATM   10  C   UNL     1      -0.863   6.951 -33.117  1.00  0.00     0.120 A 
HETATM   11  C   UNL     1      -2.030   6.230 -33.321  1.00  0.00     0.028 A 
BRANCH   8  12
HETATM   12  O   UNL     1       0.227   5.816 -29.918  1.00  0.00    -0.329 OA
BRANCH  12  13
HETATM   13  C   UNL     1      -0.068   6.744 -28.852  1.00  0.00     0.130 C 
HETATM   14  C   UNL     1       0.288   6.293 -27.410  1.00  0.00     0.032 C 
HETATM   15  C   UNL     1       0.771   7.730 -27.145  1.00  0.00     0.005 C 
HETATM   16  C   UNL     1       0.988   7.864 -28.662  1.00  0.00     0.032 C 
ENDBRANCH  12  13
ENDBRANCH   8  12
ENDBRANCH   5   6
ENDBRANCH   2   5
BRANCH   1  17
HETATM   17  C   UNL     1      -3.565   0.867 -31.654  1.00  0.00     0.157 A 
HETATM   18  C   UNL     1      -4.218  -0.085 -32.492  1.00  0.00     0.029 A 
HETATM   19  C   UNL     1      -5.326  -0.078 -33.363  1.00  0.00     0.023 A 
HETATM   20  C   UNL     1      -3.494  -1.260 -32.337  1.00  0.00     0.063 A 
HETATM   21  C   UNL     1      -5.672  -1.253 -34.050  1.00  0.00    -0.061 A 
HETATM   22  C   UNL     1      -6.846  -1.267 -34.987  1.00  0.00     0.048 C 
HETATM   23  C   UNL     1      -4.915  -2.417 -33.866  1.00  0.00     0.009 A 
HETATM   24  C   UNL     1      -3.811  -2.445 -33.006  1.00  0.00     0.032 A 
HETATM   25  N   UNL     1      -2.498  -0.955 -31.451  1.00  0.00    -0.277 N 
HETATM   26  H   UNL     1      -1.775  -1.577 -31.106  1.00  0.00     0.189 HD
HETATM   27  N   UNL     1      -2.507   0.317 -31.015  1.00  0.00    -0.168 NA
ENDBRANCH   1  17
TORSDOF 5
ENDMDL
MODEL 7
REMARK VINA RESULT:      -8.4      4.244      7.179
REMARK  5 active torsions:
REMARK  status: ('A' for Active; 'I' for Inactive)
REMARK    1  A    between atoms: C_9  and  C_10 
REMARK       I    between atoms: C_10  and  N_11 
REMARK    2  A    between atoms: N_11  and  C_12 
REMARK    3  A    between atoms: C_12  and  C_13 
REMARK    4  A    between atoms: C_15  and  O_16 
REMARK    5  A    between atoms: O_16  and  C_17 
ROOT
HETATM    1  C   UNL     1      -5.202   0.226 -32.389  1.00  0.00     0.273 C 
HETATM    2  N   UNL     1      -6.221   0.245 -31.465  1.00  0.00    -0.351 N 
HETATM    3  O   UNL     1      -4.970   1.151 -33.160  1.00  0.00    -0.266 OA
HETATM    4  H   UNL     1      -6.320  -0.593 -30.897  1.00  0.00     0.163 HD
ENDROOT
BRANCH   2   5
HETATM    5  C   UNL     1      -7.090   1.375 -31.269  1.00  0.00     0.161 C 
BRANCH   5   6
HETATM    6  C   UNL     1      -8.160   1.455 -32.325  1.00  0.00    -0.035 A 
HETATM    7  C   UNL     1      -9.317   0.671 -32.256  1.00  0.00     0.066 A 
HETATM    8  C   UNL     1     -10.272   0.801 -33.250  1.00  0.00     0.164 A 
HETATM    9  N   UNL     1     -10.178   1.665 -34.281  1.00  0.00    -0.237 NA
HETATM   10  C   UNL     1      -9.071   2.435 -34.315  1.00  0.00     0.120 A 
HETATM   11  C   UNL     1      -8.051   2.370 -33.377  1.00  0.00     0.028 A 
BRANCH   8  12
HETATM   12  O   UNL     1     -11.378  -0.024 -33.155  1.00  0.00    -0.329 OA
BRANCH  12  13
HETATM   13  C   UNL     1     -12.543   0.388 -33.899  1.00  0.00     0.130 C 
HETATM   14  C   UNL     1     -13.859  -0.392 -33.635  1.00  0.00     0.032 C 
HETATM   15  C   UNL     1     -14.601   0.954 -33.705  1.00  0.00     0.005 C 
HETATM   16  C   UNL     1     -13.273   1.629 -33.319  1.00  0.00     0.032 C 
ENDBRANCH  12  13
ENDBRANCH   8  12
ENDBRANCH   5   6
ENDBRANCH   2   5
BRANCH   1  17
HETATM   17  C   UNL     1      -4.407  -1.013 -32.344  1.00  0.00     0.157 A 
HETATM   18  C   UNL     1      -4.627  -2.207 -33.093  1.00  0.00     0.029 A 
HETATM   19  C   UNL     1      -5.565  -2.648 -34.048  1.00  0.00     0.023 A 
HETATM   20  C   UNL     1      -3.603  -3.065 -32.714  1.00  0.00     0.063 A 
HETATM   21  C   UNL     1      -5.445  -3.938 -34.591  1.00  0.00    -0.061 A 
HETATM   22  C   UNL     1      -6.431  -4.425 -35.613  1.00  0.00     0.048 C 
HETATM   23  C   UNL     1      -4.397  -4.772 -34.180  1.00  0.00     0.009 A 
HETATM   24  C   UNL     1      -3.455  -4.353 -33.234  1.00  0.00     0.032 A 
HETATM   25  N   UNL     1      -2.868  -2.366 -31.797  1.00  0.00    -0.277 N 
HETATM   26  H   UNL     1      -2.038  -2.683 -31.308  1.00  0.00     0.189 HD
HETATM   27  N   UNL     1      -3.321  -1.124 -31.547  1.00  0.00    -0.168 NA
ENDBRANCH   1  17
TORSDOF 5
ENDMDL
MODEL 8
REMARK VINA RESULT:      -8.2      2.638      9.256
REMARK  5 active torsions:
REMARK  status: ('A' for Active; 'I' for Inactive)
REMARK    1  A    between atoms: C_9  and  C_10 
REMARK       I    between atoms: C_10  and  N_11 
REMARK    2  A    between atoms: N_11  and  C_12 
REMARK    3  A    between atoms: C_12  and  C_13 
REMARK    4  A    between atoms: C_15  and  O_16 
REMARK    5  A    between atoms: O_16  and  C_17 
ROOT
HETATM    1  C   UNL     1      -1.576   4.797 -31.528  1.00  0.00     0.273 C 
HETATM    2  N   UNL     1      -2.754   4.277 -31.043  1.00  0.00    -0.351 N 
HETATM    3  O   UNL     1      -1.353   4.971 -32.721  1.00  0.00    -0.266 OA
HETATM    4  H   UNL     1      -2.807   4.165 -30.034  1.00  0.00     0.163 HD
ENDROOT
BRANCH   2   5
HETATM    5  C   UNL     1      -3.871   3.932 -31.883  1.00  0.00     0.161 C 
BRANCH   5   6
HETATM    6  C   UNL     1      -4.307   2.505 -31.683  1.00  0.00    -0.035 A 
HETATM    7  C   UNL     1      -3.938   1.494 -32.578  1.00  0.00     0.066 A 
HETATM    8  C   UNL     1      -4.356   0.198 -32.332  1.00  0.00     0.164 A 
HETATM    9  N   UNL     1      -5.083  -0.171 -31.257  1.00  0.00    -0.237 NA
HETATM   10  C   UNL     1      -5.404   0.810 -30.389  1.00  0.00     0.120 A 
HETATM   11  C   UNL     1      -5.046   2.140 -30.553  1.00  0.00     0.028 A 
BRANCH   8  12
HETATM   12  O   UNL     1      -3.996  -0.755 -33.267  1.00  0.00    -0.329 OA
BRANCH  12  13
HETATM   13  C   UNL     1      -4.940  -1.826 -33.478  1.00  0.00     0.130 C 
HETATM   14  C   UNL     1      -6.122  -1.541 -34.443  1.00  0.00     0.032 C 
HETATM   15  C   UNL     1      -5.941  -2.968 -34.989  1.00  0.00     0.005 C 
HETATM   16  C   UNL     1      -4.483  -2.896 -34.503  1.00  0.00     0.032 C 
ENDBRANCH  12  13
ENDBRANCH   8  12
ENDBRANCH   5   6
ENDBRANCH   2   5
BRANCH   1  17
HETATM   17  C   UNL     1      -0.617   5.139 -30.464  1.00  0.00     0.157 A 
HETATM   18  C   UNL     1      -0.559   6.349 -29.710  1.00  0.00     0.029 A 
HETATM   19  C   UNL     1      -1.283   7.557 -29.673  1.00  0.00     0.023 A 
HETATM   20  C   UNL     1       0.497   6.173 -28.826  1.00  0.00     0.063 A 
HETATM   21  C   UNL     1      -0.921   8.552 -28.749  1.00  0.00    -0.061 A 
HETATM   22  C   UNL     1      -1.682   9.845 -28.690  1.00  0.00     0.048 C 
HETATM   23  C   UNL     1       0.151   8.334 -27.875  1.00  0.00     0.009 A 
HETATM   24  C   UNL     1       0.882   7.141 -27.894  1.00  0.00     0.032 A 
HETATM   25  N   UNL     1       0.989   4.926 -29.095  1.00  0.00    -0.277 N 
HETATM   26  H   UNL     1       1.766   4.462 -28.637  1.00  0.00     0.189 HD
HETATM   27  N   UNL     1       0.344   4.270 -30.077  1.00  0.00    -0.168 NA
ENDBRANCH   1  17
TORSDOF 5
ENDMDL
MODEL 9
REMARK VINA RESULT:      -8.2      2.039      8.485
REMARK  5 active torsions:
REMARK  status: ('A' for Active; 'I' for Inactive)
REMARK    1  A    between atoms: C_9  and  C_10 
REMARK       I    between atoms: C_10  and  N_11 
REMARK    2  A    between atoms: N_11  and  C_12 
REMARK    3  A    between atoms: C_12  and  C_13 
REMARK    4  A    between atoms: C_15  and  O_16 
REMARK    5  A    between atoms: O_16  and  C_17 
ROOT
HETATM    1  C   UNL     1      -3.710   2.874 -32.499  1.00  0.00     0.273 C 
HETATM    2  N   UNL     1      -5.072   2.878 -32.305  1.00  0.00    -0.351 N 
HETATM    3  O   UNL     1      -3.002   1.891 -32.304  1.00  0.00    -0.266 OA
HETATM    4  H   UNL     1      -5.542   3.762 -32.484  1.00  0.00     0.163 HD
ENDROOT
BRANCH   2   5
HETATM    5  C   UNL     1      -5.818   1.716 -31.902  1.00  0.00     0.161 C 
BRANCH   5   6
HETATM    6  C   UNL     1      -6.215   0.864 -33.079  1.00  0.00    -0.035 A 
HETATM    7  C   UNL     1      -6.158  -0.533 -33.024  1.00  0.00     0.066 A 
HETATM    8  C   UNL     1      -6.551  -1.262 -34.133  1.00  0.00     0.164 A 
HETATM    9  N   UNL     1      -7.021  -0.712 -35.272  1.00  0.00    -0.237 NA
HETATM   10  C   UNL     1      -7.099   0.634 -35.296  1.00  0.00     0.120 A 
HETATM   11  C   UNL     1      -6.716   1.453 -34.244  1.00  0.00     0.028 A 
BRANCH   8  12
HETATM   12  O   UNL     1      -6.438  -2.637 -34.040  1.00  0.00    -0.329 OA
BRANCH  12  13
HETATM   13  C   UNL     1      -5.206  -3.207 -34.530  1.00  0.00     0.130 C 
HETATM   14  C   UNL     1      -4.003  -3.229 -33.549  1.00  0.00     0.032 C 
HETATM   15  C   UNL     1      -3.670  -4.632 -34.084  1.00  0.00     0.005 C 
HETATM   16  C   UNL     1      -5.150  -4.757 -34.486  1.00  0.00     0.032 C 
ENDBRANCH  12  13
ENDBRANCH   8  12
ENDBRANCH   5   6
ENDBRANCH   2   5
BRANCH   1  17
HETATM   17  C   UNL     1      -3.193   4.164 -32.983  1.00  0.00     0.157 A 
HETATM   18  C   UNL     1      -2.172   4.964 -32.389  1.00  0.00     0.029 A 
HETATM   19  C   UNL     1      -1.351   4.876 -31.247  1.00  0.00     0.023 A 
HETATM   20  C   UNL     1      -2.036   6.061 -33.229  1.00  0.00     0.063 A 
HETATM   21  C   UNL     1      -0.418   5.893 -30.986  1.00  0.00    -0.061 A 
HETATM   22  C   UNL     1       0.470   5.817 -29.778  1.00  0.00     0.048 C 
HETATM   23  C   UNL     1      -0.313   6.983 -31.860  1.00  0.00     0.009 A 
HETATM   24  C   UNL     1      -1.119   7.089 -32.999  1.00  0.00     0.032 A 
HETATM   25  N   UNL     1      -2.946   5.863 -34.230  1.00  0.00    -0.277 N 
HETATM   26  H   UNL     1      -3.123   6.467 -35.025  1.00  0.00     0.189 HD
HETATM   27  N   UNL     1      -3.664   4.731 -34.118  1.00  0.00    -0.168 NA
ENDBRANCH   1  17
TORSDOF 5
ENDMDL
MODEL 10
REMARK VINA RESULT:      -7.9      1.524      1.898
REMARK  5 active torsions:
REMARK  status: ('A' for Active; 'I' for Inactive)
REMARK    1  A    between atoms: C_9  and  C_10 
REMARK       I    between atoms: C_10  and  N_11 
REMARK    2  A    between atoms: N_11  and  C_12 
REMARK    3  A    between atoms: C_12  and  C_13 
REMARK    4  A    between atoms: C_15  and  O_16 
REMARK    5  A    between atoms: O_16  and  C_17 
ROOT
HETATM    1  C   UNL     1      -5.428   0.483 -33.088  1.00  0.00     0.273 C 
HETATM    2  N   UNL     1      -5.525   1.392 -32.059  1.00  0.00    -0.351 N 
HETATM    3  O   UNL     1      -5.976   0.631 -34.175  1.00  0.00    -0.266 OA
HETATM    4  H   UNL     1      -5.039   1.143 -31.201  1.00  0.00     0.163 HD
ENDROOT
BRANCH   2   5
HETATM    5  C   UNL     1      -6.238   2.637 -32.168  1.00  0.00     0.161 C 
BRANCH   5   6
HETATM    6  C   UNL     1      -5.509   3.766 -31.488  1.00  0.00    -0.035 A 
HETATM    7  C   UNL     1      -4.412   4.395 -32.086  1.00  0.00     0.066 A 
HETATM    8  C   UNL     1      -3.794   5.438 -31.417  1.00  0.00     0.164 A 
HETATM    9  N   UNL     1      -4.199   5.917 -30.223  1.00  0.00    -0.237 NA
HETATM   10  C   UNL     1      -5.277   5.319 -29.676  1.00  0.00     0.120 A 
HETATM   11  C   UNL     1      -5.956   4.259 -30.258  1.00  0.00     0.028 A 
BRANCH   8  12
HETATM   12  O   UNL     1      -2.691   5.999 -32.035  1.00  0.00    -0.329 OA
BRANCH  12  13
HETATM   13  C   UNL     1      -1.579   6.325 -31.174  1.00  0.00     0.130 C 
HETATM   14  C   UNL     1      -0.638   5.159 -30.770  1.00  0.00     0.032 C 
HETATM   15  C   UNL     1       0.542   6.129 -30.951  1.00  0.00     0.005 C 
HETATM   16  C   UNL     1      -0.355   6.936 -31.905  1.00  0.00     0.032 C 
ENDBRANCH  12  13
ENDBRANCH   8  12
ENDBRANCH   5   6
ENDBRANCH   2   5
BRANCH   1  17
HETATM   17  C   UNL     1      -4.582  -0.675 -32.755  1.00  0.00     0.157 A 
HETATM   18  C   UNL     1      -4.661  -1.989 -33.307  1.00  0.00     0.029 A 
HETATM   19  C   UNL     1      -5.468  -2.643 -34.259  1.00  0.00     0.023 A 
HETATM   20  C   UNL     1      -3.643  -2.702 -32.687  1.00  0.00     0.063 A 
HETATM   21  C   UNL     1      -5.227  -3.994 -34.558  1.00  0.00    -0.061 A 
HETATM   22  C   UNL     1      -6.072  -4.708 -35.574  1.00  0.00     0.048 C 
HETATM   23  C   UNL     1      -4.189  -4.677 -33.911  1.00  0.00     0.009 A 
HETATM   24  C   UNL     1      -3.376  -4.046 -32.962  1.00  0.00     0.032 A 
HETATM   25  N   UNL     1      -3.046  -1.814 -31.837  1.00  0.00    -0.277 N 
HETATM   26  H   UNL     1      -2.259  -1.989 -31.221  1.00  0.00     0.189 HD
HETATM   27  N   UNL     1      -3.584  -0.581 -31.848  1.00  0.00    -0.168 NA
ENDBRANCH   1  17
TORSDOF 5
ENDMDL
