MODEL 1
REMARK VINA RESULT:      -9.0      0.000      0.000
REMARK  8 active torsions:
REMARK  status: ('A' for Active; 'I' for Inactive)
REMARK    1  A    between atoms: O_2  and  C_3 
REMARK    2  A    between atoms: C_6  and  N_7 
REMARK    3  A    between atoms: N_7  and  C_8 
REMARK    4  A    between atoms: C_11  and  C_12 
REMARK    5  A    between atoms: C_15  and  C_16 
REMARK       I    between atoms: C_16  and  N_17 
REMARK    6  A    between atoms: N_17  and  C_18 
REMARK    7  A    between atoms: C_18  and  C_19 
REMARK    8  A    between atoms: C_19  and  O_20 
ROOT
HETATM    1  C   UNL     1      -4.368   2.609 -32.693  1.00  0.00     0.161 A 
HETATM    2  N   UNL     1      -5.442   3.422 -32.775  1.00  0.00    -0.131 NA
HETATM    3  N   UNL     1      -6.698   2.917 -32.947  1.00  0.00    -0.147 NA
HETATM    4  C   UNL     1      -6.889   1.582 -33.033  1.00  0.00     0.100 A 
HETATM    5  C   UNL     1      -5.818   0.673 -32.959  1.00  0.00     0.009 A 
HETATM    6  C   UNL     1      -4.519   1.205 -32.774  1.00  0.00     0.024 A 
HETATM    7  C   UNL     1      -5.967  -0.733 -33.067  1.00  0.00     0.015 A 
HETATM    8  C   UNL     1      -4.876  -1.596 -32.966  1.00  0.00     0.001 A 
HETATM    9  C   UNL     1      -3.607  -1.079 -32.757  1.00  0.00     0.001 A 
HETATM   10  C   UNL     1      -3.431   0.302 -32.664  1.00  0.00     0.016 A 
ENDROOT
BRANCH   4  11
HETATM   11  C   UNL     1      -8.301   1.207 -33.206  1.00  0.00    -0.005 A 
HETATM   12  C   UNL     1      -9.123   1.930 -34.087  1.00  0.00     0.015 A 
HETATM   13  C   UNL     1     -10.478   1.616 -34.234  1.00  0.00     0.018 A 
HETATM   14  C   UNL     1     -11.039   0.577 -33.484  1.00  0.00     0.032 A 
HETATM   15  C   UNL     1     -10.228  -0.162 -32.614  1.00  0.00     0.018 A 
HETATM   16  C   UNL     1      -8.874   0.157 -32.470  1.00  0.00     0.015 A 
BRANCH  14  17
HETATM   17  C   UNL     1     -12.481   0.222 -33.580  1.00  0.00     0.251 C 
HETATM   18  N   UNL     1     -13.356   1.262 -33.809  1.00  0.00    -0.355 N 
HETATM   19  H   UNL     1     -13.030   2.218 -33.769  1.00  0.00     0.162 HD
HETATM   20  O   UNL     1     -12.845  -0.937 -33.414  1.00  0.00    -0.268 OA
BRANCH  18  21
HETATM   21  C   UNL     1     -14.793   1.046 -33.861  1.00  0.00     0.148 C 
BRANCH  21  22
HETATM   22  C   UNL     1     -15.549   1.926 -32.865  1.00  0.00     0.183 C 
BRANCH  22  23
HETATM   23  O   UNL     1     -15.049   1.711 -31.545  1.00  0.00    -0.399 OA
HETATM   24  H   UNL     1     -15.832   1.697 -30.965  1.00  0.00     0.209 HD
ENDBRANCH  22  23
ENDBRANCH  21  22
ENDBRANCH  18  21
ENDBRANCH  14  17
ENDBRANCH   4  11
BRANCH   1  25
HETATM   25  N   UNL     1      -3.067   3.166 -32.561  1.00  0.00    -0.339 N 
HETATM   26  H   UNL     1      -2.420   2.608 -33.108  1.00  0.00     0.167 HD
BRANCH  25  27
HETATM   27  C   UNL     1      -2.721   4.535 -32.567  1.00  0.00     0.033 A 
HETATM   28  C   UNL     1      -2.509   5.248 -33.752  1.00  0.00     0.032 A 
HETATM   29  C   UNL     1      -2.248   6.625 -33.738  1.00  0.00     0.039 A 
HETATM   30  C   UNL     1      -2.215   7.319 -32.531  1.00  0.00     0.068 A 
HETATM   31  C   UNL     1      -2.445   6.622 -31.345  1.00  0.00     0.039 A 
HETATM   32  C   UNL     1      -2.712   5.249 -31.362  1.00  0.00     0.032 A 
BRANCH  30  33
HETATM   33  O   UNL     1      -1.981   8.657 -32.378  1.00  0.00    -0.356 OA
HETATM   34  C   UNL     1      -2.379   9.237 -31.142  1.00  0.00     0.210 C 
ENDBRANCH  30  33
ENDBRANCH  25  27
ENDBRANCH   1  25
TORSDOF 8
ENDMDL
MODEL 2
REMARK VINA RESULT:      -9.0      4.401      6.756
REMARK  8 active torsions:
REMARK  status: ('A' for Active; 'I' for Inactive)
REMARK    1  A    between atoms: O_2  and  C_3 
REMARK    2  A    between atoms: C_6  and  N_7 
REMARK    3  A    between atoms: N_7  and  C_8 
REMARK    4  A    between atoms: C_11  and  C_12 
REMARK    5  A    between atoms: C_15  and  C_16 
REMARK       I    between atoms: C_16  and  N_17 
REMARK    6  A    between atoms: N_17  and  C_18 
REMARK    7  A    between atoms: C_18  and  C_19 
REMARK    8  A    between atoms: C_19  and  O_20 
ROOT
HETATM    1  C   UNL     1      -2.960   6.522 -31.050  1.00  0.00     0.161 A 
HETATM    2  N   UNL     1      -3.799   5.737 -30.342  1.00  0.00    -0.131 NA
HETATM    3  N   UNL     1      -4.195   4.520 -30.817  1.00  0.00    -0.147 NA
HETATM    4  C   UNL     1      -3.743   4.075 -32.011  1.00  0.00     0.100 A 
HETATM    5  C   UNL     1      -2.867   4.839 -32.804  1.00  0.00     0.009 A 
HETATM    6  C   UNL     1      -2.457   6.097 -32.301  1.00  0.00     0.024 A 
HETATM    7  C   UNL     1      -2.386   4.424 -34.072  1.00  0.00     0.015 A 
HETATM    8  C   UNL     1      -1.502   5.208 -34.813  1.00  0.00     0.001 A 
HETATM    9  C   UNL     1      -1.078   6.428 -34.310  1.00  0.00     0.001 A 
HETATM   10  C   UNL     1      -1.550   6.867 -33.072  1.00  0.00     0.016 A 
ENDROOT
BRANCH   4  11
HETATM   11  C   UNL     1      -4.256   2.744 -32.366  1.00  0.00    -0.005 A 
HETATM   12  C   UNL     1      -3.524   1.590 -32.034  1.00  0.00     0.015 A 
HETATM   13  C   UNL     1      -3.974   0.317 -32.400  1.00  0.00     0.018 A 
HETATM   14  C   UNL     1      -5.164   0.179 -33.123  1.00  0.00     0.032 A 
HETATM   15  C   UNL     1      -5.911   1.317 -33.446  1.00  0.00     0.018 A 
HETATM   16  C   UNL     1      -5.456   2.588 -33.079  1.00  0.00     0.015 A 
BRANCH  14  17
HETATM   17  C   UNL     1      -5.671  -1.148 -33.563  1.00  0.00     0.251 C 
HETATM   18  N   UNL     1      -4.745  -2.009 -34.113  1.00  0.00    -0.355 N 
HETATM   19  H   UNL     1      -3.812  -1.683 -34.325  1.00  0.00     0.162 HD
HETATM   20  O   UNL     1      -6.864  -1.416 -33.471  1.00  0.00    -0.268 OA
BRANCH  18  21
HETATM   21  C   UNL     1      -5.135  -3.310 -34.634  1.00  0.00     0.148 C 
BRANCH  21  22
HETATM   22  C   UNL     1      -4.215  -4.429 -34.148  1.00  0.00     0.183 C 
BRANCH  22  23
HETATM   23  O   UNL     1      -4.737  -5.698 -34.543  1.00  0.00    -0.399 OA
HETATM   24  H   UNL     1      -4.026  -6.130 -35.051  1.00  0.00     0.209 HD
ENDBRANCH  22  23
ENDBRANCH  21  22
ENDBRANCH  18  21
ENDBRANCH  14  17
ENDBRANCH   4  11
BRANCH   1  25
HETATM   25  N   UNL     1      -2.603   7.805 -30.551  1.00  0.00    -0.339 N 
HETATM   26  H   UNL     1      -3.451   8.296 -30.286  1.00  0.00     0.167 HD
BRANCH  25  27
HETATM   27  C   UNL     1      -1.522   8.118 -29.699  1.00  0.00     0.033 A 
HETATM   28  C   UNL     1      -1.618   9.088 -28.694  1.00  0.00     0.032 A 
HETATM   29  C   UNL     1      -0.560   9.325 -27.807  1.00  0.00     0.039 A 
HETATM   30  C   UNL     1       0.611   8.577 -27.897  1.00  0.00     0.068 A 
HETATM   31  C   UNL     1       0.711   7.594 -28.882  1.00  0.00     0.039 A 
HETATM   32  C   UNL     1      -0.349   7.355 -29.763  1.00  0.00     0.032 A 
BRANCH  30  33
HETATM   33  O   UNL     1       1.710   8.700 -27.093  1.00  0.00    -0.356 OA
HETATM   34  C   UNL     1       1.698   7.963 -25.877  1.00  0.00     0.210 C 
ENDBRANCH  30  33
ENDBRANCH  25  27
ENDBRANCH   1  25
TORSDOF 8
ENDMDL
MODEL 3
REMARK VINA RESULT:      -8.6      2.270      9.694
REMARK  8 active torsions:
REMARK  status: ('A' for Active; 'I' for Inactive)
REMARK    1  A    between atoms: O_2  and  C_3 
REMARK    2  A    between atoms: C_6  and  N_7 
REMARK    3  A    between atoms: N_7  and  C_8 
REMARK    4  A    between atoms: C_11  and  C_12 
REMARK    5  A    between atoms: C_15  and  C_16 
REMARK       I    between atoms: C_16  and  N_17 
REMARK    6  A    between atoms: N_17  and  C_18 
REMARK    7  A    between atoms: C_18  and  C_19 
REMARK    8  A    between atoms: C_19  and  O_20 
ROOT
HETATM    1  C   UNL     1      -8.784   1.823 -34.324  1.00  0.00     0.161 A 
HETATM    2  N   UNL     1      -8.572   3.111 -33.983  1.00  0.00    -0.131 NA
HETATM    3  N   UNL     1      -7.357   3.527 -33.521  1.00  0.00    -0.147 NA
HETATM    4  C   UNL     1      -6.336   2.649 -33.403  1.00  0.00     0.100 A 
HETATM    5  C   UNL     1      -6.484   1.290 -33.738  1.00  0.00     0.009 A 
HETATM    6  C   UNL     1      -7.745   0.868 -34.222  1.00  0.00     0.024 A 
HETATM    7  C   UNL     1      -5.449   0.329 -33.609  1.00  0.00     0.015 A 
HETATM    8  C   UNL     1      -5.638  -1.004 -33.974  1.00  0.00     0.001 A 
HETATM    9  C   UNL     1      -6.864  -1.413 -34.474  1.00  0.00     0.001 A 
HETATM   10  C   UNL     1      -7.903  -0.490 -34.596  1.00  0.00     0.016 A 
ENDROOT
BRANCH   4  11
HETATM   11  C   UNL     1      -5.097   3.263 -32.903  1.00  0.00    -0.005 A 
HETATM   12  C   UNL     1      -4.457   4.272 -33.644  1.00  0.00     0.015 A 
HETATM   13  C   UNL     1      -3.255   4.839 -33.206  1.00  0.00     0.018 A 
HETATM   14  C   UNL     1      -2.663   4.391 -32.021  1.00  0.00     0.032 A 
HETATM   15  C   UNL     1      -3.297   3.398 -31.265  1.00  0.00     0.018 A 
HETATM   16  C   UNL     1      -4.498   2.833 -31.708  1.00  0.00     0.015 A 
BRANCH  14  17
HETATM   17  C   UNL     1      -1.371   4.938 -31.527  1.00  0.00     0.251 C 
HETATM   18  N   UNL     1      -1.402   5.577 -30.306  1.00  0.00    -0.355 N 
HETATM   19  H   UNL     1      -2.286   5.775 -29.857  1.00  0.00     0.162 HD
HETATM   20  O   UNL     1      -0.359   4.852 -32.213  1.00  0.00    -0.268 OA
BRANCH  18  21
HETATM   21  C   UNL     1      -0.214   6.206 -29.749  1.00  0.00     0.148 C 
BRANCH  21  22
HETATM   22  C   UNL     1       0.540   5.280 -28.796  1.00  0.00     0.183 C 
BRANCH  22  23
HETATM   23  O   UNL     1       1.032   4.142 -29.505  1.00  0.00    -0.399 OA
HETATM   24  H   UNL     1       1.467   3.582 -28.837  1.00  0.00     0.209 HD
ENDBRANCH  22  23
ENDBRANCH  21  22
ENDBRANCH  18  21
ENDBRANCH  14  17
ENDBRANCH   4  11
BRANCH   1  25
HETATM   25  N   UNL     1     -10.074   1.409 -34.757  1.00  0.00    -0.339 N 
HETATM   26  H   UNL     1     -10.018   0.442 -35.059  1.00  0.00     0.167 HD
BRANCH  25  27
HETATM   27  C   UNL     1     -11.313   1.705 -34.149  1.00  0.00     0.033 A 
HETATM   28  C   UNL     1     -11.723   3.016 -33.884  1.00  0.00     0.032 A 
HETATM   29  C   UNL     1     -12.991   3.292 -33.356  1.00  0.00     0.039 A 
HETATM   30  C   UNL     1     -13.884   2.254 -33.103  1.00  0.00     0.068 A 
HETATM   31  C   UNL     1     -13.494   0.944 -33.381  1.00  0.00     0.039 A 
HETATM   32  C   UNL     1     -12.229   0.672 -33.914  1.00  0.00     0.032 A 
BRANCH  30  33
HETATM   33  O   UNL     1     -15.148   2.384 -32.598  1.00  0.00    -0.356 OA
HETATM   34  C   UNL     1     -15.481   3.643 -32.027  1.00  0.00     0.210 C 
ENDBRANCH  30  33
ENDBRANCH  25  27
ENDBRANCH   1  25
TORSDOF 8
ENDMDL
MODEL 4
REMARK VINA RESULT:      -8.5      5.355     12.714
REMARK  8 active torsions:
REMARK  status: ('A' for Active; 'I' for Inactive)
REMARK    1  A    between atoms: O_2  and  C_3 
REMARK    2  A    between atoms: C_6  and  N_7 
REMARK    3  A    between atoms: N_7  and  C_8 
REMARK    4  A    between atoms: C_11  and  C_12 
REMARK    5  A    between atoms: C_15  and  C_16 
REMARK       I    between atoms: C_16  and  N_17 
REMARK    6  A    between atoms: N_17  and  C_18 
REMARK    7  A    between atoms: C_18  and  C_19 
REMARK    8  A    between atoms: C_19  and  O_20 
ROOT
HETATM    1  C   UNL     1      -1.655   5.148 -31.519  1.00  0.00     0.161 A 
HETATM    2  N   UNL     1      -0.594   4.643 -30.855  1.00  0.00    -0.131 NA
HETATM    3  N   UNL     1      -0.004   5.336 -29.838  1.00  0.00    -0.147 NA
HETATM    4  C   UNL     1      -0.480   6.547 -29.473  1.00  0.00     0.100 A 
HETATM    5  C   UNL     1      -1.581   7.137 -30.121  1.00  0.00     0.009 A 
HETATM    6  C   UNL     1      -2.192   6.409 -31.170  1.00  0.00     0.024 A 
HETATM    7  C   UNL     1      -2.101   8.414 -29.787  1.00  0.00     0.015 A 
HETATM    8  C   UNL     1      -3.209   8.949 -30.445  1.00  0.00     0.001 A 
HETATM    9  C   UNL     1      -3.825   8.225 -31.454  1.00  0.00     0.001 A 
HETATM   10  C   UNL     1      -3.323   6.974 -31.812  1.00  0.00     0.016 A 
ENDROOT
BRANCH   4  11
HETATM   11  C   UNL     1       0.262   7.150 -28.356  1.00  0.00    -0.005 A 
HETATM   12  C   UNL     1       0.052   6.701 -27.041  1.00  0.00     0.015 A 
HETATM   13  C   UNL     1       0.717   7.290 -25.960  1.00  0.00     0.018 A 
HETATM   14  C   UNL     1       1.597   8.355 -26.179  1.00  0.00     0.032 A 
HETATM   15  C   UNL     1       1.828   8.803 -27.485  1.00  0.00     0.018 A 
HETATM   16  C   UNL     1       1.159   8.211 -28.562  1.00  0.00     0.015 A 
BRANCH  14  17
HETATM   17  C   UNL     1       2.306   9.037 -25.063  1.00  0.00     0.251 C 
HETATM   18  N   UNL     1       3.017   8.228 -24.202  1.00  0.00    -0.355 N 
HETATM   19  H   UNL     1       2.931   7.222 -24.262  1.00  0.00     0.162 HD
HETATM   20  O   UNL     1       2.207  10.249 -24.915  1.00  0.00    -0.268 OA
BRANCH  18  21
HETATM   21  C   UNL     1       3.700   8.773 -23.039  1.00  0.00     0.148 C 
BRANCH  21  22
HETATM   22  C   UNL     1       5.180   9.047 -23.311  1.00  0.00     0.183 C 
BRANCH  22  23
HETATM   23  O   UNL     1       5.319   9.898 -24.448  1.00  0.00    -0.399 OA
HETATM   24  H   UNL     1       6.168  10.362 -24.329  1.00  0.00     0.209 HD
ENDBRANCH  22  23
ENDBRANCH  21  22
ENDBRANCH  18  21
ENDBRANCH  14  17
ENDBRANCH   4  11
BRANCH   1  25
HETATM   25  N   UNL     1      -2.220   4.424 -32.604  1.00  0.00    -0.339 N 
HETATM   26  H   UNL     1      -1.466   4.089 -33.196  1.00  0.00     0.167 HD
BRANCH  25  27
HETATM   27  C   UNL     1      -3.298   3.513 -32.554  1.00  0.00     0.033 A 
HETATM   28  C   UNL     1      -3.268   2.363 -31.757  1.00  0.00     0.032 A 
HETATM   29  C   UNL     1      -4.380   1.516 -31.657  1.00  0.00     0.039 A 
HETATM   30  C   UNL     1      -5.555   1.820 -32.341  1.00  0.00     0.068 A 
HETATM   31  C   UNL     1      -5.603   2.975 -33.122  1.00  0.00     0.039 A 
HETATM   32  C   UNL     1      -4.493   3.822 -33.215  1.00  0.00     0.032 A 
BRANCH  30  33
HETATM   33  O   UNL     1      -6.709   1.087 -32.324  1.00  0.00    -0.356 OA
HETATM   34  C   UNL     1      -6.588  -0.286 -31.977  1.00  0.00     0.210 C 
ENDBRANCH  30  33
ENDBRANCH  25  27
ENDBRANCH   1  25
TORSDOF 8
ENDMDL
MODEL 5
REMARK VINA RESULT:      -8.3      5.339      8.749
REMARK  8 active torsions:
REMARK  status: ('A' for Active; 'I' for Inactive)
REMARK    1  A    between atoms: O_2  and  C_3 
REMARK    2  A    between atoms: C_6  and  N_7 
REMARK    3  A    between atoms: N_7  and  C_8 
REMARK    4  A    between atoms: C_11  and  C_12 
REMARK    5  A    between atoms: C_15  and  C_16 
REMARK       I    between atoms: C_16  and  N_17 
REMARK    6  A    between atoms: N_17  and  C_18 
REMARK    7  A    between atoms: C_18  and  C_19 
REMARK    8  A    between atoms: C_19  and  O_20 
ROOT
HETATM    1  C   UNL     1     -11.602   4.027 -34.132  1.00  0.00     0.161 A 
HETATM    2  N   UNL     1     -10.275   4.269 -34.178  1.00  0.00    -0.131 NA
HETATM    3  N   UNL     1      -9.369   3.256 -34.058  1.00  0.00    -0.147 NA
HETATM    4  C   UNL     1      -9.789   1.981 -33.898  1.00  0.00     0.100 A 
HETATM    5  C   UNL     1     -11.156   1.653 -33.839  1.00  0.00     0.009 A 
HETATM    6  C   UNL     1     -12.090   2.709 -33.970  1.00  0.00     0.024 A 
HETATM    7  C   UNL     1     -11.643   0.335 -33.648  1.00  0.00     0.015 A 
HETATM    8  C   UNL     1     -13.010   0.056 -33.618  1.00  0.00     0.001 A 
HETATM    9  C   UNL     1     -13.925   1.085 -33.773  1.00  0.00     0.001 A 
HETATM   10  C   UNL     1     -13.472   2.393 -33.946  1.00  0.00     0.016 A 
ENDROOT
BRANCH   4  11
HETATM   11  C   UNL     1      -8.686   1.014 -33.797  1.00  0.00    -0.005 A 
HETATM   12  C   UNL     1      -8.088   0.749 -32.553  1.00  0.00     0.015 A 
HETATM   13  C   UNL     1      -7.010  -0.136 -32.443  1.00  0.00     0.018 A 
HETATM   14  C   UNL     1      -6.500  -0.761 -33.586  1.00  0.00     0.032 A 
HETATM   15  C   UNL     1      -7.096  -0.518 -34.829  1.00  0.00     0.018 A 
HETATM   16  C   UNL     1      -8.173   0.369 -34.934  1.00  0.00     0.015 A 
BRANCH  14  17
HETATM   17  C   UNL     1      -5.337  -1.687 -33.529  1.00  0.00     0.251 C 
HETATM   18  N   UNL     1      -5.247  -2.622 -34.537  1.00  0.00    -0.355 N 
HETATM   19  H   UNL     1      -6.011  -2.746 -35.186  1.00  0.00     0.162 HD
HETATM   20  O   UNL     1      -4.543  -1.626 -32.596  1.00  0.00    -0.268 OA
BRANCH  18  21
HETATM   21  C   UNL     1      -4.188  -3.620 -34.553  1.00  0.00     0.148 C 
BRANCH  21  22
HETATM   22  C   UNL     1      -4.708  -5.024 -34.249  1.00  0.00     0.183 C 
BRANCH  22  23
HETATM   23  O   UNL     1      -5.789  -5.346 -35.125  1.00  0.00    -0.399 OA
HETATM   24  H   UNL     1      -5.614  -6.252 -35.439  1.00  0.00     0.209 HD
ENDBRANCH  22  23
ENDBRANCH  21  22
ENDBRANCH  18  21
ENDBRANCH  14  17
ENDBRANCH   4  11
BRANCH   1  25
HETATM   25  N   UNL     1     -12.522   5.108 -34.212  1.00  0.00    -0.339 N 
HETATM   26  H   UNL     1     -12.635   5.505 -33.285  1.00  0.00     0.167 HD
BRANCH  25  27
HETATM   27  C   UNL     1     -12.596   6.092 -35.222  1.00  0.00     0.033 A 
HETATM   28  C   UNL     1     -13.760   6.313 -35.967  1.00  0.00     0.032 A 
HETATM   29  C   UNL     1     -13.839   7.349 -36.907  1.00  0.00     0.039 A 
HETATM   30  C   UNL     1     -12.754   8.200 -37.103  1.00  0.00     0.068 A 
HETATM   31  C   UNL     1     -11.595   8.002 -36.352  1.00  0.00     0.039 A 
HETATM   32  C   UNL     1     -11.522   6.970 -35.410  1.00  0.00     0.032 A 
BRANCH  30  33
HETATM   33  O   UNL     1     -12.701   9.249 -37.978  1.00  0.00    -0.356 OA
HETATM   34  C   UNL     1     -12.398   8.936 -39.332  1.00  0.00     0.210 C 
ENDBRANCH  30  33
ENDBRANCH  25  27
ENDBRANCH   1  25
TORSDOF 8
ENDMDL
MODEL 6
REMARK VINA RESULT:      -8.1     16.956     18.373
REMARK  8 active torsions:
REMARK  status: ('A' for Active; 'I' for Inactive)
REMARK    1  A    between atoms: O_2  and  C_3 
REMARK    2  A    between atoms: C_6  and  N_7 
REMARK    3  A    between atoms: N_7  and  C_8 
REMARK    4  A    between atoms: C_11  and  C_12 
REMARK    5  A    between atoms: C_15  and  C_16 
REMARK       I    between atoms: C_16  and  N_17 
REMARK    6  A    between atoms: N_17  and  C_18 
REMARK    7  A    between atoms: C_18  and  C_19 
REMARK    8  A    between atoms: C_19  and  O_20 
ROOT
HETATM    1  C   UNL     1      -3.773 -13.031 -37.975  1.00  0.00     0.161 A 
HETATM    2  N   UNL     1      -4.109 -13.080 -39.281  1.00  0.00    -0.131 NA
HETATM    3  N   UNL     1      -5.386 -13.360 -39.671  1.00  0.00    -0.147 NA
HETATM    4  C   UNL     1      -6.345 -13.589 -38.747  1.00  0.00     0.100 A 
HETATM    5  C   UNL     1      -6.069 -13.558 -37.368  1.00  0.00     0.009 A 
HETATM    6  C   UNL     1      -4.743 -13.260 -36.972  1.00  0.00     0.024 A 
HETATM    7  C   UNL     1      -7.036 -13.815 -36.363  1.00  0.00     0.015 A 
HETATM    8  C   UNL     1      -6.719 -13.752 -35.006  1.00  0.00     0.001 A 
HETATM    9  C   UNL     1      -5.428 -13.434 -34.617  1.00  0.00     0.001 A 
HETATM   10  C   UNL     1      -4.453 -13.192 -35.585  1.00  0.00     0.016 A 
ENDROOT
BRANCH   4  11
HETATM   11  C   UNL     1      -7.665 -13.864 -39.335  1.00  0.00    -0.005 A 
HETATM   12  C   UNL     1      -8.033 -15.179 -39.666  1.00  0.00     0.015 A 
HETATM   13  C   UNL     1      -9.267 -15.456 -40.265  1.00  0.00     0.018 A 
HETATM   14  C   UNL     1     -10.150 -14.412 -40.558  1.00  0.00     0.032 A 
HETATM   15  C   UNL     1      -9.803 -13.099 -40.220  1.00  0.00     0.018 A 
HETATM   16  C   UNL     1      -8.568 -12.827 -39.622  1.00  0.00     0.015 A 
BRANCH  14  17
HETATM   17  C   UNL     1     -11.461 -14.648 -41.221  1.00  0.00     0.251 C 
HETATM   18  N   UNL     1     -11.509 -15.676 -42.138  1.00  0.00    -0.355 N 
HETATM   19  H   UNL     1     -10.658 -16.137 -42.431  1.00  0.00     0.162 HD
HETATM   20  O   UNL     1     -12.417 -13.921 -40.979  1.00  0.00    -0.268 OA
BRANCH  18  21
HETATM   21  C   UNL     1     -12.718 -15.962 -42.894  1.00  0.00     0.148 C 
BRANCH  21  22
HETATM   22  C   UNL     1     -13.632 -16.953 -42.174  1.00  0.00     0.183 C 
BRANCH  22  23
HETATM   23  O   UNL     1     -14.603 -16.250 -41.398  1.00  0.00    -0.399 OA
HETATM   24  H   UNL     1     -15.465 -16.455 -41.803  1.00  0.00     0.209 HD
ENDBRANCH  22  23
ENDBRANCH  21  22
ENDBRANCH  18  21
ENDBRANCH  14  17
ENDBRANCH   4  11
BRANCH   1  25
HETATM   25  N   UNL     1      -2.424 -12.784 -37.600  1.00  0.00    -0.339 N 
HETATM   26  H   UNL     1      -2.421 -12.275 -36.722  1.00  0.00     0.167 HD
BRANCH  25  27
HETATM   27  C   UNL     1      -1.334 -13.675 -37.699  1.00  0.00     0.033 A 
HETATM   28  C   UNL     1      -0.368 -13.568 -38.706  1.00  0.00     0.032 A 
HETATM   29  C   UNL     1       0.750 -14.411 -38.737  1.00  0.00     0.039 A 
HETATM   30  C   UNL     1       0.933 -15.368 -37.743  1.00  0.00     0.068 A 
HETATM   31  C   UNL     1      -0.013 -15.472 -36.723  1.00  0.00     0.039 A 
HETATM   32  C   UNL     1      -1.126 -14.625 -36.691  1.00  0.00     0.032 A 
BRANCH  30  33
HETATM   33  O   UNL     1       1.978 -16.245 -37.651  1.00  0.00    -0.356 OA
HETATM   34  C   UNL     1       1.888 -17.242 -36.640  1.00  0.00     0.210 C 
ENDBRANCH  30  33
ENDBRANCH  25  27
ENDBRANCH   1  25
TORSDOF 8
ENDMDL
MODEL 7
REMARK VINA RESULT:      -8.1      1.776      2.174
REMARK  8 active torsions:
REMARK  status: ('A' for Active; 'I' for Inactive)
REMARK    1  A    between atoms: O_2  and  C_3 
REMARK    2  A    between atoms: C_6  and  N_7 
REMARK    3  A    between atoms: N_7  and  C_8 
REMARK    4  A    between atoms: C_11  and  C_12 
REMARK    5  A    between atoms: C_15  and  C_16 
REMARK       I    between atoms: C_16  and  N_17 
REMARK    6  A    between atoms: N_17  and  C_18 
REMARK    7  A    between atoms: C_18  and  C_19 
REMARK    8  A    between atoms: C_19  and  O_20 
ROOT
HETATM    1  C   UNL     1      -3.943   4.144 -33.375  1.00  0.00     0.161 A 
HETATM    2  N   UNL     1      -4.849   4.767 -34.157  1.00  0.00    -0.131 NA
HETATM    3  N   UNL     1      -6.116   4.279 -34.296  1.00  0.00    -0.147 NA
HETATM    4  C   UNL     1      -6.488   3.157 -33.642  1.00  0.00     0.100 A 
HETATM    5  C   UNL     1      -5.598   2.452 -32.811  1.00  0.00     0.009 A 
HETATM    6  C   UNL     1      -4.288   2.969 -32.667  1.00  0.00     0.024 A 
HETATM    7  C   UNL     1      -5.937   1.258 -32.124  1.00  0.00     0.015 A 
HETATM    8  C   UNL     1      -5.025   0.606 -31.294  1.00  0.00     0.001 A 
HETATM    9  C   UNL     1      -3.750   1.126 -31.131  1.00  0.00     0.001 A 
HETATM   10  C   UNL     1      -3.387   2.290 -31.808  1.00  0.00     0.016 A 
ENDROOT
BRANCH   4  11
HETATM   11  C   UNL     1      -7.886   2.775 -33.892  1.00  0.00    -0.005 A 
HETATM   12  C   UNL     1      -8.923   3.697 -33.666  1.00  0.00     0.015 A 
HETATM   13  C   UNL     1     -10.263   3.341 -33.858  1.00  0.00     0.018 A 
HETATM   14  C   UNL     1     -10.588   2.044 -34.267  1.00  0.00     0.032 A 
HETATM   15  C   UNL     1      -9.565   1.120 -34.511  1.00  0.00     0.018 A 
HETATM   16  C   UNL     1      -8.227   1.481 -34.316  1.00  0.00     0.015 A 
BRANCH  14  17
HETATM   17  C   UNL     1     -11.997   1.605 -34.456  1.00  0.00     0.251 C 
HETATM   18  N   UNL     1     -12.690   1.255 -33.317  1.00  0.00    -0.355 N 
HETATM   19  H   UNL     1     -12.207   1.173 -32.433  1.00  0.00     0.162 HD
HETATM   20  O   UNL     1     -12.474   1.524 -35.583  1.00  0.00    -0.268 OA
BRANCH  18  21
HETATM   21  C   UNL     1     -14.053   0.752 -33.384  1.00  0.00     0.148 C 
BRANCH  21  22
HETATM   22  C   UNL     1     -15.081   1.805 -32.970  1.00  0.00     0.183 C 
BRANCH  22  23
HETATM   23  O   UNL     1     -15.341   1.712 -31.569  1.00  0.00    -0.399 OA
HETATM   24  H   UNL     1     -15.547   2.619 -31.278  1.00  0.00     0.209 HD
ENDBRANCH  22  23
ENDBRANCH  21  22
ENDBRANCH  18  21
ENDBRANCH  14  17
ENDBRANCH   4  11
BRANCH   1  25
HETATM   25  N   UNL     1      -2.617   4.650 -33.287  1.00  0.00    -0.339 N 
HETATM   26  H   UNL     1      -2.339   4.987 -34.203  1.00  0.00     0.167 HD
BRANCH  25  27
HETATM   27  C   UNL     1      -2.070   5.431 -32.246  1.00  0.00     0.033 A 
HETATM   28  C   UNL     1      -0.720   5.353 -31.883  1.00  0.00     0.032 A 
HETATM   29  C   UNL     1      -0.179   6.196 -30.903  1.00  0.00     0.039 A 
HETATM   30  C   UNL     1      -0.980   7.151 -30.282  1.00  0.00     0.068 A 
HETATM   31  C   UNL     1      -2.321   7.252 -30.650  1.00  0.00     0.039 A 
HETATM   32  C   UNL     1      -2.858   6.412 -31.633  1.00  0.00     0.032 A 
BRANCH  30  33
HETATM   33  O   UNL     1      -0.578   8.037 -29.321  1.00  0.00    -0.356 OA
HETATM   34  C   UNL     1       0.620   7.721 -28.623  1.00  0.00     0.210 C 
ENDBRANCH  30  33
ENDBRANCH  25  27
ENDBRANCH   1  25
TORSDOF 8
ENDMDL
MODEL 8
REMARK VINA RESULT:      -8.0      4.428      6.512
REMARK  8 active torsions:
REMARK  status: ('A' for Active; 'I' for Inactive)
REMARK    1  A    between atoms: O_2  and  C_3 
REMARK    2  A    between atoms: C_6  and  N_7 
REMARK    3  A    between atoms: N_7  and  C_8 
REMARK    4  A    between atoms: C_11  and  C_12 
REMARK    5  A    between atoms: C_15  and  C_16 
REMARK       I    between atoms: C_16  and  N_17 
REMARK    6  A    between atoms: N_17  and  C_18 
REMARK    7  A    between atoms: C_18  and  C_19 
REMARK    8  A    between atoms: C_19  and  O_20 
ROOT
HETATM    1  C   UNL     1      -7.743   1.334 -33.862  1.00  0.00     0.161 A 
HETATM    2  N   UNL     1      -8.799   1.174 -34.687  1.00  0.00    -0.131 NA
HETATM    3  N   UNL     1     -10.045   1.599 -34.329  1.00  0.00    -0.147 NA
HETATM    4  C   UNL     1     -10.243   2.198 -33.134  1.00  0.00     0.100 A 
HETATM    5  C   UNL     1      -9.191   2.396 -32.221  1.00  0.00     0.009 A 
HETATM    6  C   UNL     1      -7.901   1.958 -32.602  1.00  0.00     0.024 A 
HETATM    7  C   UNL     1      -9.356   2.998 -30.947  1.00  0.00     0.015 A 
HETATM    8  C   UNL     1      -8.278   3.192 -30.083  1.00  0.00     0.001 A 
HETATM    9  C   UNL     1      -7.009   2.789 -30.467  1.00  0.00     0.001 A 
HETATM   10  C   UNL     1      -6.823   2.179 -31.708  1.00  0.00     0.016 A 
ENDROOT
BRANCH   4  11
HETATM   11  C   UNL     1     -11.639   2.603 -32.912  1.00  0.00    -0.005 A 
HETATM   12  C   UNL     1     -11.931   3.860 -32.353  1.00  0.00     0.015 A 
HETATM   13  C   UNL     1     -13.250   4.248 -32.095  1.00  0.00     0.018 A 
HETATM   14  C   UNL     1     -14.303   3.372 -32.379  1.00  0.00     0.032 A 
HETATM   15  C   UNL     1     -14.029   2.124 -32.950  1.00  0.00     0.018 A 
HETATM   16  C   UNL     1     -12.708   1.741 -33.205  1.00  0.00     0.015 A 
BRANCH  14  17
HETATM   17  C   UNL     1     -15.721   3.723 -32.096  1.00  0.00     0.251 C 
HETATM   18  N   UNL     1     -16.656   2.738 -32.330  1.00  0.00    -0.355 N 
HETATM   19  H   UNL     1     -16.389   1.884 -32.800  1.00  0.00     0.162 HD
HETATM   20  O   UNL     1     -16.016   4.852 -31.720  1.00  0.00    -0.268 OA
BRANCH  18  21
HETATM   21  C   UNL     1     -18.079   2.984 -32.149  1.00  0.00     0.148 C 
BRANCH  21  22
HETATM   22  C   UNL     1     -18.741   3.524 -33.416  1.00  0.00     0.183 C 
BRANCH  22  23
HETATM   23  O   UNL     1     -19.284   2.448 -34.181  1.00  0.00    -0.399 OA
HETATM   24  H   UNL     1     -19.175   2.705 -35.114  1.00  0.00     0.209 HD
ENDBRANCH  22  23
ENDBRANCH  21  22
ENDBRANCH  18  21
ENDBRANCH  14  17
ENDBRANCH   4  11
BRANCH   1  25
HETATM   25  N   UNL     1      -6.467   0.839 -34.242  1.00  0.00    -0.339 N 
HETATM   26  H   UNL     1      -5.756   1.468 -33.883  1.00  0.00     0.167 HD
BRANCH  25  27
HETATM   27  C   UNL     1      -6.036  -0.506 -34.234  1.00  0.00     0.033 A 
HETATM   28  C   UNL     1      -6.699  -1.508 -34.952  1.00  0.00     0.032 A 
HETATM   29  C   UNL     1      -6.208  -2.819 -34.997  1.00  0.00     0.039 A 
HETATM   30  C   UNL     1      -5.025  -3.146 -34.339  1.00  0.00     0.068 A 
HETATM   31  C   UNL     1      -4.344  -2.152 -33.637  1.00  0.00     0.039 A 
HETATM   32  C   UNL     1      -4.835  -0.842 -33.598  1.00  0.00     0.032 A 
BRANCH  30  33
HETATM   33  O   UNL     1      -4.434  -4.379 -34.309  1.00  0.00    -0.356 OA
HETATM   34  C   UNL     1      -3.417  -4.576 -33.334  1.00  0.00     0.210 C 
ENDBRANCH  30  33
ENDBRANCH  25  27
ENDBRANCH   1  25
TORSDOF 8
ENDMDL
MODEL 9
REMARK VINA RESULT:      -7.9      4.932      8.812
REMARK  8 active torsions:
REMARK  status: ('A' for Active; 'I' for Inactive)
REMARK    1  A    between atoms: O_2  and  C_3 
REMARK    2  A    between atoms: C_6  and  N_7 
REMARK    3  A    between atoms: N_7  and  C_8 
REMARK    4  A    between atoms: C_11  and  C_12 
REMARK    5  A    between atoms: C_15  and  C_16 
REMARK       I    between atoms: C_16  and  N_17 
REMARK    6  A    between atoms: N_17  and  C_18 
REMARK    7  A    between atoms: C_18  and  C_19 
REMARK    8  A    between atoms: C_19  and  O_20 
ROOT
HETATM    1  C   UNL     1     -12.260   3.641 -34.312  1.00  0.00     0.161 A 
HETATM    2  N   UNL     1     -10.978   4.054 -34.403  1.00  0.00    -0.131 NA
HETATM    3  N   UNL     1      -9.943   3.179 -34.243  1.00  0.00    -0.147 NA
HETATM    4  C   UNL     1     -10.186   1.873 -33.995  1.00  0.00     0.100 A 
HETATM    5  C   UNL     1     -11.496   1.372 -33.884  1.00  0.00     0.009 A 
HETATM    6  C   UNL     1     -12.565   2.284 -34.057  1.00  0.00     0.024 A 
HETATM    7  C   UNL     1     -11.800   0.015 -33.601  1.00  0.00     0.015 A 
HETATM    8  C   UNL     1     -13.116  -0.440 -33.521  1.00  0.00     0.001 A 
HETATM    9  C   UNL     1     -14.163   0.446 -33.718  1.00  0.00     0.001 A 
HETATM   10  C   UNL     1     -13.891   1.789 -33.982  1.00  0.00     0.016 A 
ENDROOT
BRANCH   4  11
HETATM   11  C   UNL     1      -8.962   1.069 -33.861  1.00  0.00    -0.005 A 
HETATM   12  C   UNL     1      -8.381   0.471 -34.992  1.00  0.00     0.015 A 
HETATM   13  C   UNL     1      -7.241  -0.332 -34.881  1.00  0.00     0.018 A 
HETATM   14  C   UNL     1      -6.671  -0.563 -33.625  1.00  0.00     0.032 A 
HETATM   15  C   UNL     1      -7.229   0.040 -32.491  1.00  0.00     0.018 A 
HETATM   16  C   UNL     1      -8.370   0.841 -32.609  1.00  0.00     0.015 A 
BRANCH  14  17
HETATM   17  C   UNL     1      -5.476  -1.432 -33.447  1.00  0.00     0.251 C 
HETATM   18  N   UNL     1      -4.713  -1.205 -32.321  1.00  0.00    -0.355 N 
HETATM   19  H   UNL     1      -4.893  -0.398 -31.740  1.00  0.00     0.162 HD
HETATM   20  O   UNL     1      -5.186  -2.267 -34.296  1.00  0.00    -0.268 OA
BRANCH  18  21
HETATM   21  C   UNL     1      -3.490  -1.951 -32.072  1.00  0.00     0.148 C 
BRANCH  21  22
HETATM   22  C   UNL     1      -2.320  -1.039 -31.700  1.00  0.00     0.183 C 
BRANCH  22  23
HETATM   23  O   UNL     1      -2.803   0.258 -31.348  1.00  0.00    -0.399 OA
HETATM   24  H   UNL     1      -3.394   0.122 -30.585  1.00  0.00     0.209 HD
ENDBRANCH  22  23
ENDBRANCH  21  22
ENDBRANCH  18  21
ENDBRANCH  14  17
ENDBRANCH   4  11
BRANCH   1  25
HETATM   25  N   UNL     1     -13.317   4.583 -34.436  1.00  0.00    -0.339 N 
HETATM   26  H   UNL     1     -13.897   4.529 -33.606  1.00  0.00     0.167 HD
BRANCH  25  27
HETATM   27  C   UNL     1     -13.230   5.901 -34.936  1.00  0.00     0.033 A 
HETATM   28  C   UNL     1     -13.432   6.203 -36.288  1.00  0.00     0.032 A 
HETATM   29  C   UNL     1     -13.423   7.526 -36.749  1.00  0.00     0.039 A 
HETATM   30  C   UNL     1     -13.233   8.577 -35.856  1.00  0.00     0.068 A 
HETATM   31  C   UNL     1     -13.051   8.290 -34.503  1.00  0.00     0.039 A 
HETATM   32  C   UNL     1     -13.066   6.968 -34.045  1.00  0.00     0.032 A 
BRANCH  30  33
HETATM   33  O   UNL     1     -13.211   9.908 -36.171  1.00  0.00    -0.356 OA
HETATM   34  C   UNL     1     -12.239  10.704 -35.504  1.00  0.00     0.210 C 
ENDBRANCH  30  33
ENDBRANCH  25  27
ENDBRANCH   1  25
TORSDOF 8
ENDMDL
MODEL 10
REMARK VINA RESULT:      -7.8      5.162      8.382
REMARK  8 active torsions:
REMARK  status: ('A' for Active; 'I' for Inactive)
REMARK    1  A    between atoms: O_2  and  C_3 
REMARK    2  A    between atoms: C_6  and  N_7 
REMARK    3  A    between atoms: N_7  and  C_8 
REMARK    4  A    between atoms: C_11  and  C_12 
REMARK    5  A    between atoms: C_15  and  C_16 
REMARK       I    between atoms: C_16  and  N_17 
REMARK    6  A    between atoms: N_17  and  C_18 
REMARK    7  A    between atoms: C_18  and  C_19 
REMARK    8  A    between atoms: C_19  and  O_20 
ROOT
HETATM    1  C   UNL     1      -9.791   1.244 -33.388  1.00  0.00     0.161 A 
HETATM    2  N   UNL     1      -9.044   2.351 -33.582  1.00  0.00    -0.131 NA
HETATM    3  N   UNL     1      -9.588   3.485 -34.113  1.00  0.00    -0.147 NA
HETATM    4  C   UNL     1     -10.896   3.520 -34.450  1.00  0.00     0.100 A 
HETATM    5  C   UNL     1     -11.736   2.404 -34.278  1.00  0.00     0.009 A 
HETATM    6  C   UNL     1     -11.166   1.234 -33.721  1.00  0.00     0.024 A 
HETATM    7  C   UNL     1     -13.108   2.386 -34.638  1.00  0.00     0.015 A 
HETATM    8  C   UNL     1     -13.906   1.261 -34.429  1.00  0.00     0.001 A 
HETATM    9  C   UNL     1     -13.356   0.124 -33.858  1.00  0.00     0.001 A 
HETATM   10  C   UNL     1     -12.005   0.110 -33.510  1.00  0.00     0.016 A 
ENDROOT
BRANCH   4  11
HETATM   11  C   UNL     1     -11.321   4.817 -34.996  1.00  0.00    -0.005 A 
HETATM   12  C   UNL     1     -12.664   5.029 -35.355  1.00  0.00     0.015 A 
HETATM   13  C   UNL     1     -13.080   6.241 -35.915  1.00  0.00     0.018 A 
HETATM   14  C   UNL     1     -12.150   7.261 -36.140  1.00  0.00     0.032 A 
HETATM   15  C   UNL     1     -10.813   7.071 -35.773  1.00  0.00     0.018 A 
HETATM   16  C   UNL     1     -10.402   5.855 -35.214  1.00  0.00     0.015 A 
BRANCH  14  17
HETATM   17  C   UNL     1     -12.535   8.558 -36.760  1.00  0.00     0.251 C 
HETATM   18  N   UNL     1     -11.713   9.028 -37.762  1.00  0.00    -0.355 N 
HETATM   19  H   UNL     1     -10.830   8.573 -37.950  1.00  0.00     0.162 HD
HETATM   20  O   UNL     1     -13.510   9.176 -36.348  1.00  0.00    -0.268 OA
BRANCH  18  21
HETATM   21  C   UNL     1     -11.953  10.313 -38.400  1.00  0.00     0.148 C 
BRANCH  21  22
HETATM   22  C   UNL     1     -11.152  10.478 -39.691  1.00  0.00     0.183 C 
BRANCH  22  23
HETATM   23  O   UNL     1      -9.754  10.389 -39.416  1.00  0.00    -0.399 OA
HETATM   24  H   UNL     1      -9.321  10.277 -40.281  1.00  0.00     0.209 HD
ENDBRANCH  22  23
ENDBRANCH  21  22
ENDBRANCH  18  21
ENDBRANCH  14  17
ENDBRANCH   4  11
BRANCH   1  25
HETATM   25  N   UNL     1      -9.186   0.064 -32.877  1.00  0.00    -0.339 N 
HETATM   26  H   UNL     1      -9.859  -0.694 -32.933  1.00  0.00     0.167 HD
BRANCH  25  27
HETATM   27  C   UNL     1      -7.866  -0.383 -33.100  1.00  0.00     0.033 A 
HETATM   28  C   UNL     1      -6.828  -0.131 -32.196  1.00  0.00     0.032 A 
HETATM   29  C   UNL     1      -5.543  -0.654 -32.395  1.00  0.00     0.039 A 
HETATM   30  C   UNL     1      -5.280  -1.461 -33.499  1.00  0.00     0.068 A 
HETATM   31  C   UNL     1      -6.312  -1.736 -34.397  1.00  0.00     0.039 A 
HETATM   32  C   UNL     1      -7.595  -1.217 -34.192  1.00  0.00     0.032 A 
BRANCH  30  33
HETATM   33  O   UNL     1      -4.080  -2.039 -33.807  1.00  0.00    -0.356 OA
HETATM   34  C   UNL     1      -4.128  -3.297 -34.468  1.00  0.00     0.210 C 
ENDBRANCH  30  33
ENDBRANCH  25  27
ENDBRANCH   1  25
TORSDOF 8
ENDMDL
