MODEL 1
REMARK VINA RESULT:      -8.9      0.000      0.000
REMARK  3 active torsions:
REMARK  status: ('A' for Active; 'I' for Inactive)
REMARK    1  A    between atoms: C_11  and  N_12 
REMARK       I    between atoms: N_12  and  C_13 
REMARK    2  A    between atoms: C_13  and  C_14 
REMARK    3  A    between atoms: C_18  and  C_19 
ROOT
HETATM    1  N   UNL     1      -3.734   3.209 -32.360  1.00  0.00    -0.351 N 
HETATM    2  C   UNL     1      -4.564   2.313 -31.703  1.00  0.00     0.272 C 
HETATM    3  O   UNL     1      -4.860   2.407 -30.518  1.00  0.00    -0.266 OA
HETATM    4  H   UNL     1      -3.436   2.823 -33.258  1.00  0.00     0.163 HD
ENDROOT
BRANCH   1   5
HETATM    5  C   UNL     1      -2.922   4.189 -31.670  1.00  0.00     0.089 C 
HETATM    6  C   UNL     1      -3.703   5.368 -31.073  1.00  0.00     0.063 C 
HETATM    7  C   UNL     1      -4.257   6.365 -32.096  1.00  0.00     0.121 C 
HETATM    8  N   UNL     1      -3.156   6.767 -33.058  1.00  0.00    -0.059 N 
HETATM    9  C   UNL     1      -5.481   5.863 -32.869  1.00  0.00     0.046 C 
HETATM   10  C   UNL     1      -4.675   7.658 -31.365  1.00  0.00     0.046 C 
HETATM   11  C   UNL     1      -2.230   5.723 -33.645  1.00  0.00     0.121 C 
HETATM   12  H   UNL     1      -2.567   7.452 -32.564  1.00  0.00     0.279 HD
HETATM   13  H   UNL     1      -3.578   7.308 -33.827  1.00  0.00     0.279 HD
HETATM   14  C   UNL     1      -2.881   5.069 -34.868  1.00  0.00     0.046 C 
HETATM   15  C   UNL     1      -0.987   6.491 -34.144  1.00  0.00     0.046 C 
HETATM   16  C   UNL     1      -1.797   4.722 -32.560  1.00  0.00     0.063 C 
ENDBRANCH   1   5
BRANCH   2  17
HETATM   17  C   UNL     1      -5.055   1.248 -32.586  1.00  0.00     0.146 A 
HETATM   18  N   UNL     1      -5.923   1.511 -33.586  1.00  0.00    -0.169 NA
HETATM   19  N   UNL     1      -6.135   0.303 -34.146  1.00  0.00    -0.277 N 
HETATM   20  H   UNL     1      -6.788   0.239 -34.920  1.00  0.00     0.189 HD
HETATM   21  C   UNL     1      -5.430  -0.723 -33.570  1.00  0.00     0.063 A 
HETATM   22  C   UNL     1      -4.728  -0.128 -32.542  1.00  0.00     0.071 A 
BRANCH  21  23
HETATM   23  C   UNL     1      -5.504  -2.115 -34.018  1.00  0.00    -0.008 A 
HETATM   24  C   UNL     1      -6.684  -2.649 -34.556  1.00  0.00     0.014 A 
HETATM   25  C   UNL     1      -6.738  -3.981 -34.978  1.00  0.00     0.001 A 
HETATM   26  C   UNL     1      -5.614  -4.795 -34.871  1.00  0.00     0.000 A 
HETATM   27  C   UNL     1      -4.434  -4.278 -34.344  1.00  0.00     0.001 A 
HETATM   28  C   UNL     1      -4.379  -2.948 -33.922  1.00  0.00     0.014 A 
ENDBRANCH  21  23
ENDBRANCH   2  17
TORSDOF 3
ENDMDL
MODEL 2
REMARK VINA RESULT:      -8.6      5.408      6.979
REMARK  3 active torsions:
REMARK  status: ('A' for Active; 'I' for Inactive)
REMARK    1  A    between atoms: C_11  and  N_12 
REMARK       I    between atoms: N_12  and  C_13 
REMARK    2  A    between atoms: C_13  and  C_14 
REMARK    3  A    between atoms: C_18  and  C_19 
ROOT
HETATM    1  N   UNL     1     -10.350   2.511 -33.342  1.00  0.00    -0.351 N 
HETATM    2  C   UNL     1      -9.368   1.859 -32.611  1.00  0.00     0.272 C 
HETATM    3  O   UNL     1      -9.165   2.059 -31.420  1.00  0.00    -0.266 OA
HETATM    4  H   UNL     1     -10.198   2.374 -34.343  1.00  0.00     0.163 HD
ENDROOT
BRANCH   1   5
HETATM    5  C   UNL     1     -11.059   3.675 -32.854  1.00  0.00     0.089 C 
HETATM    6  C   UNL     1     -12.346   3.369 -32.075  1.00  0.00     0.063 C 
HETATM    7  C   UNL     1     -13.514   2.860 -32.926  1.00  0.00     0.121 C 
HETATM    8  N   UNL     1     -13.709   3.777 -34.118  1.00  0.00    -0.059 N 
HETATM    9  C   UNL     1     -13.373   1.407 -33.390  1.00  0.00     0.046 C 
HETATM   10  C   UNL     1     -14.815   2.954 -32.102  1.00  0.00     0.046 C 
HETATM   11  C   UNL     1     -12.518   4.256 -34.920  1.00  0.00     0.121 C 
HETATM   12  H   UNL     1     -14.198   4.614 -33.770  1.00  0.00     0.279 HD
HETATM   13  H   UNL     1     -14.387   3.339 -34.758  1.00  0.00     0.279 HD
HETATM   14  C   UNL     1     -12.124   3.202 -35.960  1.00  0.00     0.046 C 
HETATM   15  C   UNL     1     -13.001   5.503 -35.692  1.00  0.00     0.046 C 
HETATM   16  C   UNL     1     -11.369   4.664 -33.981  1.00  0.00     0.063 C 
ENDBRANCH   1   5
BRANCH   2  17
HETATM   17  C   UNL     1      -8.608   0.898 -33.420  1.00  0.00     0.146 A 
HETATM   18  N   UNL     1      -8.536   1.015 -34.763  1.00  0.00    -0.169 NA
HETATM   19  N   UNL     1      -7.776  -0.035 -35.131  1.00  0.00    -0.277 N 
HETATM   20  H   UNL     1      -7.599  -0.180 -36.120  1.00  0.00     0.189 HD
HETATM   21  C   UNL     1      -7.336  -0.814 -34.090  1.00  0.00     0.063 A 
HETATM   22  C   UNL     1      -7.880  -0.226 -32.965  1.00  0.00     0.071 A 
BRANCH  21  23
HETATM   23  C   UNL     1      -6.497  -2.001 -34.257  1.00  0.00    -0.008 A 
HETATM   24  C   UNL     1      -5.120  -1.968 -33.990  1.00  0.00     0.014 A 
HETATM   25  C   UNL     1      -4.333  -3.111 -34.155  1.00  0.00     0.001 A 
HETATM   26  C   UNL     1      -4.910  -4.302 -34.586  1.00  0.00     0.000 A 
HETATM   27  C   UNL     1      -6.276  -4.353 -34.850  1.00  0.00     0.001 A 
HETATM   28  C   UNL     1      -7.064  -3.211 -34.686  1.00  0.00     0.014 A 
ENDBRANCH  21  23
ENDBRANCH   2  17
TORSDOF 3
ENDMDL
MODEL 3
REMARK VINA RESULT:      -8.6      3.985      5.688
REMARK  3 active torsions:
REMARK  status: ('A' for Active; 'I' for Inactive)
REMARK    1  A    between atoms: C_11  and  N_12 
REMARK       I    between atoms: N_12  and  C_13 
REMARK    2  A    between atoms: C_13  and  C_14 
REMARK    3  A    between atoms: C_18  and  C_19 
ROOT
HETATM    1  N   UNL     1      -8.157   2.717 -33.571  1.00  0.00    -0.351 N 
HETATM    2  C   UNL     1      -6.810   2.706 -33.899  1.00  0.00     0.272 C 
HETATM    3  O   UNL     1      -6.197   3.697 -34.278  1.00  0.00    -0.266 OA
HETATM    4  H   UNL     1      -8.515   1.762 -33.509  1.00  0.00     0.163 HD
ENDROOT
BRANCH   1   5
HETATM    5  C   UNL     1      -9.040   3.820 -33.886  1.00  0.00     0.089 C 
HETATM    6  C   UNL     1      -9.456   4.679 -32.683  1.00  0.00     0.063 C 
HETATM    7  C   UNL     1     -10.436   4.008 -31.714  1.00  0.00     0.121 C 
HETATM    8  N   UNL     1     -11.596   3.421 -32.494  1.00  0.00    -0.059 N 
HETATM    9  C   UNL     1      -9.804   2.941 -30.815  1.00  0.00     0.046 C 
HETATM   10  C   UNL     1     -11.046   5.084 -30.791  1.00  0.00     0.046 C 
HETATM   11  C   UNL     1     -11.349   2.641 -33.767  1.00  0.00     0.121 C 
HETATM   12  H   UNL     1     -12.218   4.207 -32.734  1.00  0.00     0.279 HD
HETATM   13  H   UNL     1     -12.159   2.843 -31.853  1.00  0.00     0.279 HD
HETATM   14  C   UNL     1     -11.005   1.185 -33.435  1.00  0.00     0.046 C 
HETATM   15  C   UNL     1     -12.694   2.632 -34.526  1.00  0.00     0.046 C 
HETATM   16  C   UNL     1     -10.292   3.349 -34.632  1.00  0.00     0.063 C 
ENDBRANCH   1   5
BRANCH   2  17
HETATM   17  C   UNL     1      -6.200   1.381 -33.734  1.00  0.00     0.146 A 
HETATM   18  N   UNL     1      -5.159   1.189 -32.897  1.00  0.00    -0.169 NA
HETATM   19  N   UNL     1      -4.885  -0.125 -33.030  1.00  0.00    -0.277 N 
HETATM   20  H   UNL     1      -4.105  -0.510 -32.508  1.00  0.00     0.189 HD
HETATM   21  C   UNL     1      -5.713  -0.794 -33.896  1.00  0.00     0.063 A 
HETATM   22  C   UNL     1      -6.571   0.175 -34.375  1.00  0.00     0.071 A 
BRANCH  21  23
HETATM   23  C   UNL     1      -5.601  -2.224 -34.190  1.00  0.00    -0.008 A 
HETATM   24  C   UNL     1      -4.401  -2.921 -33.986  1.00  0.00     0.014 A 
HETATM   25  C   UNL     1      -4.311  -4.287 -34.273  1.00  0.00     0.001 A 
HETATM   26  C   UNL     1      -5.417  -4.973 -34.763  1.00  0.00     0.000 A 
HETATM   27  C   UNL     1      -6.617  -4.296 -34.967  1.00  0.00     0.001 A 
HETATM   28  C   UNL     1      -6.708  -2.932 -34.680  1.00  0.00     0.014 A 
ENDBRANCH  21  23
ENDBRANCH   2  17
TORSDOF 3
ENDMDL
MODEL 4
REMARK VINA RESULT:      -8.5      2.002      3.417
REMARK  3 active torsions:
REMARK  status: ('A' for Active; 'I' for Inactive)
REMARK    1  A    between atoms: C_11  and  N_12 
REMARK       I    between atoms: N_12  and  C_13 
REMARK    2  A    between atoms: C_13  and  C_14 
REMARK    3  A    between atoms: C_18  and  C_19 
ROOT
HETATM    1  N   UNL     1      -5.989   3.438 -33.594  1.00  0.00    -0.351 N 
HETATM    2  C   UNL     1      -7.257   2.954 -33.875  1.00  0.00     0.272 C 
HETATM    3  O   UNL     1      -8.264   3.651 -33.878  1.00  0.00    -0.266 OA
HETATM    4  H   UNL     1      -5.344   2.665 -33.417  1.00  0.00     0.163 HD
ENDROOT
BRANCH   1   5
HETATM    5  C   UNL     1      -5.749   4.746 -33.021  1.00  0.00     0.089 C 
HETATM    6  C   UNL     1      -4.283   5.200 -33.039  1.00  0.00     0.063 C 
HETATM    7  C   UNL     1      -3.364   4.465 -32.057  1.00  0.00     0.121 C 
HETATM    8  N   UNL     1      -3.998   4.455 -30.680  1.00  0.00    -0.059 N 
HETATM    9  C   UNL     1      -2.994   3.040 -32.483  1.00  0.00     0.046 C 
HETATM   10  C   UNL     1      -2.047   5.257 -31.912  1.00  0.00     0.046 C 
HETATM   11  C   UNL     1      -5.468   4.135 -30.515  1.00  0.00     0.121 C 
HETATM   12  H   UNL     1      -3.844   5.391 -30.277  1.00  0.00     0.279 HD
HETATM   13  H   UNL     1      -3.450   3.828 -30.074  1.00  0.00     0.279 HD
HETATM   14  C   UNL     1      -5.676   2.616 -30.479  1.00  0.00     0.046 C 
HETATM   15  C   UNL     1      -5.869   4.685 -29.129  1.00  0.00     0.046 C 
HETATM   16  C   UNL     1      -6.297   4.850 -31.595  1.00  0.00     0.063 C 
ENDBRANCH   1   5
BRANCH   2  17
HETATM   17  C   UNL     1      -7.258   1.517 -34.177  1.00  0.00     0.146 A 
HETATM   18  N   UNL     1      -8.325   0.923 -34.752  1.00  0.00    -0.169 NA
HETATM   19  N   UNL     1      -7.950  -0.368 -34.853  1.00  0.00    -0.277 N 
HETATM   20  H   UNL     1      -8.612  -1.034 -35.239  1.00  0.00     0.189 HD
HETATM   21  C   UNL     1      -6.685  -0.633 -34.392  1.00  0.00     0.063 A 
HETATM   22  C   UNL     1      -6.221   0.584 -33.935  1.00  0.00     0.071 A 
BRANCH  21  23
HETATM   23  C   UNL     1      -6.073  -1.962 -34.407  1.00  0.00    -0.008 A 
HETATM   24  C   UNL     1      -4.735  -2.156 -34.033  1.00  0.00     0.014 A 
HETATM   25  C   UNL     1      -4.164  -3.432 -34.055  1.00  0.00     0.001 A 
HETATM   26  C   UNL     1      -4.923  -4.531 -34.447  1.00  0.00     0.000 A 
HETATM   27  C   UNL     1      -6.254  -4.356 -34.817  1.00  0.00     0.001 A 
HETATM   28  C   UNL     1      -6.825  -3.081 -34.796  1.00  0.00     0.014 A 
ENDBRANCH  21  23
ENDBRANCH   2  17
TORSDOF 3
ENDMDL
MODEL 5
REMARK VINA RESULT:      -8.4      2.743      8.160
REMARK  3 active torsions:
REMARK  status: ('A' for Active; 'I' for Inactive)
REMARK    1  A    between atoms: C_11  and  N_12 
REMARK       I    between atoms: N_12  and  C_13 
REMARK    2  A    between atoms: C_13  and  C_14 
REMARK    3  A    between atoms: C_18  and  C_19 
ROOT
HETATM    1  N   UNL     1      -6.283   2.291 -33.534  1.00  0.00    -0.351 N 
HETATM    2  C   UNL     1      -5.954   3.638 -33.550  1.00  0.00     0.272 C 
HETATM    3  O   UNL     1      -6.494   4.459 -34.281  1.00  0.00    -0.266 OA
HETATM    4  H   UNL     1      -5.568   1.757 -33.036  1.00  0.00     0.163 HD
ENDROOT
BRANCH   1   5
HETATM    5  C   UNL     1      -7.103   1.664 -34.549  1.00  0.00     0.089 C 
HETATM    6  C   UNL     1      -8.605   1.632 -34.237  1.00  0.00     0.063 C 
HETATM    7  C   UNL     1      -9.017   0.659 -33.127  1.00  0.00     0.121 C 
HETATM    8  N   UNL     1      -8.405  -0.702 -33.394  1.00  0.00    -0.059 N 
HETATM    9  C   UNL     1      -8.668   1.130 -31.711  1.00  0.00     0.046 C 
HETATM   10  C   UNL     1     -10.546   0.454 -33.178  1.00  0.00     0.046 C 
HETATM   11  C   UNL     1      -6.958  -0.823 -33.822  1.00  0.00     0.121 C 
HETATM   12  H   UNL     1      -8.977  -1.144 -34.129  1.00  0.00     0.279 HD
HETATM   13  H   UNL     1      -8.558  -1.296 -32.566  1.00  0.00     0.279 HD
HETATM   14  C   UNL     1      -6.041  -0.796 -32.594  1.00  0.00     0.046 C 
HETATM   15  C   UNL     1      -6.821  -2.219 -34.466  1.00  0.00     0.046 C 
HETATM   16  C   UNL     1      -6.619   0.248 -34.874  1.00  0.00     0.063 C 
ENDBRANCH   1   5
BRANCH   2  17
HETATM   17  C   UNL     1      -4.894   3.971 -32.590  1.00  0.00     0.146 A 
HETATM   18  N   UNL     1      -4.828   3.369 -31.384  1.00  0.00    -0.169 NA
HETATM   19  N   UNL     1      -3.751   3.938 -30.806  1.00  0.00    -0.277 N 
HETATM   20  H   UNL     1      -3.508   3.661 -29.860  1.00  0.00     0.189 HD
HETATM   21  C   UNL     1      -3.106   4.863 -31.588  1.00  0.00     0.063 A 
HETATM   22  C   UNL     1      -3.846   4.907 -32.753  1.00  0.00     0.071 A 
BRANCH  21  23
HETATM   23  C   UNL     1      -1.915   5.600 -31.165  1.00  0.00    -0.008 A 
HETATM   24  C   UNL     1      -0.625   5.166 -31.507  1.00  0.00     0.014 A 
HETATM   25  C   UNL     1       0.503   5.882 -31.094  1.00  0.00     0.001 A 
HETATM   26  C   UNL     1       0.357   7.041 -30.338  1.00  0.00     0.000 A 
HETATM   27  C   UNL     1      -0.916   7.488 -29.995  1.00  0.00     0.001 A 
HETATM   28  C   UNL     1      -2.044   6.773 -30.407  1.00  0.00     0.014 A 
ENDBRANCH  21  23
ENDBRANCH   2  17
TORSDOF 3
ENDMDL
MODEL 6
REMARK VINA RESULT:      -7.7      2.963      4.728
REMARK  3 active torsions:
REMARK  status: ('A' for Active; 'I' for Inactive)
REMARK    1  A    between atoms: C_11  and  N_12 
REMARK       I    between atoms: N_12  and  C_13 
REMARK    2  A    between atoms: C_13  and  C_14 
REMARK    3  A    between atoms: C_18  and  C_19 
ROOT
HETATM    1  N   UNL     1      -1.300   5.588 -31.709  1.00  0.00    -0.351 N 
HETATM    2  C   UNL     1      -1.816   4.899 -32.797  1.00  0.00     0.272 C 
HETATM    3  O   UNL     1      -1.531   5.158 -33.959  1.00  0.00    -0.266 OA
HETATM    4  H   UNL     1      -1.837   5.372 -30.866  1.00  0.00     0.163 HD
ENDROOT
BRANCH   1   5
HETATM    5  C   UNL     1      -0.585   6.840 -31.831  1.00  0.00     0.089 C 
HETATM    6  C   UNL     1       0.478   7.084 -30.751  1.00  0.00     0.063 C 
HETATM    7  C   UNL     1      -0.073   7.392 -29.355  1.00  0.00     0.121 C 
HETATM    8  N   UNL     1      -1.123   8.481 -29.454  1.00  0.00    -0.059 N 
HETATM    9  C   UNL     1      -0.636   6.174 -28.615  1.00  0.00     0.046 C 
HETATM   10  C   UNL     1       1.060   7.974 -28.483  1.00  0.00     0.046 C 
HETATM   11  C   UNL     1      -2.175   8.435 -30.542  1.00  0.00     0.121 C 
HETATM   12  H   UNL     1      -0.617   9.372 -29.558  1.00  0.00     0.279 HD
HETATM   13  H   UNL     1      -1.592   8.564 -28.540  1.00  0.00     0.279 HD
HETATM   14  C   UNL     1      -3.338   7.532 -30.114  1.00  0.00     0.046 C 
HETATM   15  C   UNL     1      -2.729   9.872 -30.656  1.00  0.00     0.046 C 
HETATM   16  C   UNL     1      -1.540   8.036 -31.885  1.00  0.00     0.063 C 
ENDBRANCH   1   5
BRANCH   2  17
HETATM   17  C   UNL     1      -2.733   3.823 -32.400  1.00  0.00     0.146 A 
HETATM   18  N   UNL     1      -2.495   3.069 -31.306  1.00  0.00    -0.169 NA
HETATM   19  N   UNL     1      -3.532   2.207 -31.286  1.00  0.00    -0.277 N 
HETATM   20  H   UNL     1      -3.562   1.505 -30.554  1.00  0.00     0.189 HD
HETATM   21  C   UNL     1      -4.438   2.382 -32.302  1.00  0.00     0.063 A 
HETATM   22  C   UNL     1      -3.927   3.426 -33.047  1.00  0.00     0.071 A 
BRANCH  21  23
HETATM   23  C   UNL     1      -5.639   1.562 -32.474  1.00  0.00    -0.008 A 
HETATM   24  C   UNL     1      -5.713   0.571 -33.464  1.00  0.00     0.014 A 
HETATM   25  C   UNL     1      -6.868  -0.202 -33.615  1.00  0.00     0.001 A 
HETATM   26  C   UNL     1      -7.961   0.003 -32.779  1.00  0.00     0.000 A 
HETATM   27  C   UNL     1      -7.901   0.979 -31.788  1.00  0.00     0.001 A 
HETATM   28  C   UNL     1      -6.748   1.752 -31.636  1.00  0.00     0.014 A 
ENDBRANCH  21  23
ENDBRANCH   2  17
TORSDOF 3
ENDMDL
MODEL 7
REMARK VINA RESULT:      -7.6      3.040      7.994
REMARK  3 active torsions:
REMARK  status: ('A' for Active; 'I' for Inactive)
REMARK    1  A    between atoms: C_11  and  N_12 
REMARK       I    between atoms: N_12  and  C_13 
REMARK    2  A    between atoms: C_13  and  C_14 
REMARK    3  A    between atoms: C_18  and  C_19 
ROOT
HETATM    1  N   UNL     1      -5.341   3.753 -33.196  1.00  0.00    -0.351 N 
HETATM    2  C   UNL     1      -4.528   4.642 -33.883  1.00  0.00     0.272 C 
HETATM    3  O   UNL     1      -4.845   5.170 -34.942  1.00  0.00    -0.266 OA
HETATM    4  H   UNL     1      -4.803   3.263 -32.479  1.00  0.00     0.163 HD
ENDROOT
BRANCH   1   5
HETATM    5  C   UNL     1      -6.524   3.152 -33.774  1.00  0.00     0.089 C 
HETATM    6  C   UNL     1      -7.796   3.284 -32.924  1.00  0.00     0.063 C 
HETATM    7  C   UNL     1      -7.824   2.420 -31.659  1.00  0.00     0.121 C 
HETATM    8  N   UNL     1      -7.453   0.993 -32.013  1.00  0.00    -0.059 N 
HETATM    9  C   UNL     1      -6.934   2.934 -30.523  1.00  0.00     0.046 C 
HETATM   10  C   UNL     1      -9.269   2.362 -31.121  1.00  0.00     0.046 C 
HETATM   11  C   UNL     1      -6.287   0.708 -32.934  1.00  0.00     0.121 C 
HETATM   12  H   UNL     1      -8.289   0.568 -32.440  1.00  0.00     0.279 HD
HETATM   13  H   UNL     1      -7.323   0.464 -31.138  1.00  0.00     0.279 HD
HETATM   14  C   UNL     1      -4.975   0.715 -32.142  1.00  0.00     0.046 C 
HETATM   15  C   UNL     1      -6.499  -0.729 -33.456  1.00  0.00     0.046 C 
HETATM   16  C   UNL     1      -6.297   1.679 -34.127  1.00  0.00     0.063 C 
ENDBRANCH   1   5
BRANCH   2  17
HETATM   17  C   UNL     1      -3.253   4.887 -33.197  1.00  0.00     0.146 A 
HETATM   18  N   UNL     1      -2.077   4.538 -33.760  1.00  0.00    -0.169 NA
HETATM   19  N   UNL     1      -1.164   4.908 -32.840  1.00  0.00    -0.277 N 
HETATM   20  H   UNL     1      -0.185   4.719 -33.028  1.00  0.00     0.189 HD
HETATM   21  C   UNL     1      -1.692   5.499 -31.719  1.00  0.00     0.063 A 
HETATM   22  C   UNL     1      -3.056   5.483 -31.929  1.00  0.00     0.071 A 
BRANCH  21  23
HETATM   23  C   UNL     1      -0.887   5.981 -30.596  1.00  0.00    -0.008 A 
HETATM   24  C   UNL     1      -0.992   7.301 -30.133  1.00  0.00     0.014 A 
HETATM   25  C   UNL     1      -0.215   7.746 -29.059  1.00  0.00     0.001 A 
HETATM   26  C   UNL     1       0.673   6.877 -28.432  1.00  0.00     0.000 A 
HETATM   27  C   UNL     1       0.785   5.562 -28.875  1.00  0.00     0.001 A 
HETATM   28  C   UNL     1       0.010   5.117 -29.949  1.00  0.00     0.014 A 
ENDBRANCH  21  23
ENDBRANCH   2  17
TORSDOF 3
ENDMDL
MODEL 8
REMARK VINA RESULT:      -7.6     16.016     18.038
REMARK  3 active torsions:
REMARK  status: ('A' for Active; 'I' for Inactive)
REMARK    1  A    between atoms: C_11  and  N_12 
REMARK       I    between atoms: N_12  and  C_13 
REMARK    2  A    between atoms: C_13  and  C_14 
REMARK    3  A    between atoms: C_18  and  C_19 
ROOT
HETATM    1  N   UNL     1      -3.471 -13.779 -38.310  1.00  0.00    -0.351 N 
HETATM    2  C   UNL     1      -3.844 -12.474 -38.599  1.00  0.00     0.272 C 
HETATM    3  O   UNL     1      -3.182 -11.495 -38.279  1.00  0.00    -0.266 OA
HETATM    4  H   UNL     1      -4.260 -14.413 -38.453  1.00  0.00     0.163 HD
ENDROOT
BRANCH   1   5
HETATM    5  C   UNL     1      -2.411 -14.113 -37.383  1.00  0.00     0.089 C 
HETATM    6  C   UNL     1      -0.993 -13.814 -37.888  1.00  0.00     0.063 C 
HETATM    7  C   UNL     1      -0.488 -14.746 -38.995  1.00  0.00     0.121 C 
HETATM    8  N   UNL     1      -0.713 -16.188 -38.584  1.00  0.00    -0.059 N 
HETATM    9  C   UNL     1      -1.104 -14.482 -40.373  1.00  0.00     0.046 C 
HETATM   10  C   UNL     1       1.040 -14.579 -39.135  1.00  0.00     0.046 C 
HETATM   11  C   UNL     1      -2.028 -16.613 -37.965  1.00  0.00     0.121 C 
HETATM   12  H   UNL     1       0.030 -16.423 -37.911  1.00  0.00     0.279 HD
HETATM   13  H   UNL     1      -0.517 -16.792 -39.396  1.00  0.00     0.279 HD
HETATM   14  C   UNL     1      -3.059 -16.900 -39.062  1.00  0.00     0.046 C 
HETATM   15  C   UNL     1      -1.744 -17.947 -37.243  1.00  0.00     0.046 C 
HETATM   16  C   UNL     1      -2.493 -15.574 -36.931  1.00  0.00     0.063 C 
ENDBRANCH   1   5
BRANCH   2  17
HETATM   17  C   UNL     1      -5.112 -12.400 -39.335  1.00  0.00     0.146 A 
HETATM   18  N   UNL     1      -5.212 -11.704 -40.487  1.00  0.00    -0.169 NA
HETATM   19  N   UNL     1      -6.502 -11.865 -40.842  1.00  0.00    -0.277 N 
HETATM   20  H   UNL     1      -6.834 -11.400 -41.681  1.00  0.00     0.189 HD
HETATM   21  C   UNL     1      -7.235 -12.648 -39.986  1.00  0.00     0.063 A 
HETATM   22  C   UNL     1      -6.346 -12.998 -38.989  1.00  0.00     0.071 A 
BRANCH  21  23
HETATM   23  C   UNL     1      -8.653 -12.959 -40.177  1.00  0.00    -0.008 A 
HETATM   24  C   UNL     1      -9.633 -11.956 -40.144  1.00  0.00     0.014 A 
HETATM   25  C   UNL     1     -10.983 -12.270 -40.327  1.00  0.00     0.001 A 
HETATM   26  C   UNL     1     -11.371 -13.588 -40.547  1.00  0.00     0.000 A 
HETATM   27  C   UNL     1     -10.410 -14.595 -40.588  1.00  0.00     0.001 A 
HETATM   28  C   UNL     1      -9.060 -14.282 -40.405  1.00  0.00     0.014 A 
ENDBRANCH  21  23
ENDBRANCH   2  17
TORSDOF 3
ENDMDL
MODEL 9
REMARK VINA RESULT:      -7.6      3.540      4.948
REMARK  3 active torsions:
REMARK  status: ('A' for Active; 'I' for Inactive)
REMARK    1  A    between atoms: C_11  and  N_12 
REMARK       I    between atoms: N_12  and  C_13 
REMARK    2  A    between atoms: C_13  and  C_14 
REMARK    3  A    between atoms: C_18  and  C_19 
ROOT
HETATM    1  N   UNL     1      -7.557   4.142 -32.414  1.00  0.00    -0.351 N 
HETATM    2  C   UNL     1      -6.650   3.888 -33.432  1.00  0.00     0.272 C 
HETATM    3  O   UNL     1      -6.346   4.709 -34.288  1.00  0.00    -0.266 OA
HETATM    4  H   UNL     1      -7.836   3.269 -31.962  1.00  0.00     0.163 HD
ENDROOT
BRANCH   1   5
HETATM    5  C   UNL     1      -8.432   5.295 -32.402  1.00  0.00     0.089 C 
HETATM    6  C   UNL     1      -8.091   6.354 -31.345  1.00  0.00     0.063 C 
HETATM    7  C   UNL     1      -8.398   5.951 -29.899  1.00  0.00     0.121 C 
HETATM    8  N   UNL     1      -9.814   5.416 -29.813  1.00  0.00    -0.059 N 
HETATM    9  C   UNL     1      -7.411   4.943 -29.301  1.00  0.00     0.046 C 
HETATM   10  C   UNL     1      -8.365   7.210 -29.007  1.00  0.00     0.046 C 
HETATM   11  C   UNL     1     -10.333   4.446 -30.852  1.00  0.00     0.121 C 
HETATM   12  H   UNL     1     -10.440   6.234 -29.821  1.00  0.00     0.279 HD
HETATM   13  H   UNL     1      -9.950   5.006 -28.877  1.00  0.00     0.279 HD
HETATM   14  C   UNL     1      -9.910   3.016 -30.497  1.00  0.00     0.046 C 
HETATM   15  C   UNL     1     -11.872   4.505 -30.757  1.00  0.00     0.046 C 
HETATM   16  C   UNL     1      -9.902   4.890 -32.261  1.00  0.00     0.063 C 
ENDBRANCH   1   5
BRANCH   2  17
HETATM   17  C   UNL     1      -6.090   2.533 -33.363  1.00  0.00     0.146 A 
HETATM   18  N   UNL     1      -5.001   2.262 -32.613  1.00  0.00    -0.169 NA
HETATM   19  N   UNL     1      -4.798   0.945 -32.815  1.00  0.00    -0.277 N 
HETATM   20  H   UNL     1      -4.001   0.506 -32.367  1.00  0.00     0.189 HD
HETATM   21  C   UNL     1      -5.714   0.347 -33.643  1.00  0.00     0.063 A 
HETATM   22  C   UNL     1      -6.560   1.371 -34.021  1.00  0.00     0.071 A 
BRANCH  21  23
HETATM   23  C   UNL     1      -5.689  -1.072 -34.000  1.00  0.00    -0.008 A 
HETATM   24  C   UNL     1      -6.845  -1.740 -34.428  1.00  0.00     0.014 A 
HETATM   25  C   UNL     1      -6.804  -3.097 -34.763  1.00  0.00     0.001 A 
HETATM   26  C   UNL     1      -5.607  -3.802 -34.678  1.00  0.00     0.000 A 
HETATM   27  C   UNL     1      -4.449  -3.152 -34.260  1.00  0.00     0.001 A 
HETATM   28  C   UNL     1      -4.490  -1.797 -33.924  1.00  0.00     0.014 A 
ENDBRANCH  21  23
ENDBRANCH   2  17
TORSDOF 3
ENDMDL
MODEL 10
REMARK VINA RESULT:      -7.6     16.470     18.305
REMARK  3 active torsions:
REMARK  status: ('A' for Active; 'I' for Inactive)
REMARK    1  A    between atoms: C_11  and  N_12 
REMARK       I    between atoms: N_12  and  C_13 
REMARK    2  A    between atoms: C_13  and  C_14 
REMARK    3  A    between atoms: C_18  and  C_19 
ROOT
HETATM    1  N   UNL     1      -6.909 -14.406 -38.037  1.00  0.00    -0.351 N 
HETATM    2  C   UNL     1      -6.162 -13.800 -37.038  1.00  0.00     0.272 C 
HETATM    3  O   UNL     1      -6.614 -13.508 -35.937  1.00  0.00    -0.266 OA
HETATM    4  H   UNL     1      -6.418 -14.346 -38.931  1.00  0.00     0.163 HD
ENDROOT
BRANCH   1   5
HETATM    5  C   UNL     1      -8.351 -14.519 -37.990  1.00  0.00     0.089 C 
HETATM    6  C   UNL     1      -8.931 -15.705 -38.775  1.00  0.00     0.063 C 
HETATM    7  C   UNL     1      -8.867 -15.568 -40.300  1.00  0.00     0.121 C 
HETATM    8  N   UNL     1      -9.419 -14.217 -40.710  1.00  0.00    -0.059 N 
HETATM    9  C   UNL     1      -7.470 -15.774 -40.895  1.00  0.00     0.046 C 
HETATM   10  C   UNL     1      -9.798 -16.618 -40.939  1.00  0.00     0.046 C 
HETATM   11  C   UNL     1      -9.025 -12.965 -39.956  1.00  0.00     0.121 C 
HETATM   12  H   UNL     1     -10.446 -14.290 -40.661  1.00  0.00     0.279 HD
HETATM   13  H   UNL     1      -9.225 -14.077 -41.712  1.00  0.00     0.279 HD
HETATM   14  C   UNL     1      -7.687 -12.432 -40.482  1.00  0.00     0.046 C 
HETATM   15  C   UNL     1     -10.101 -11.910 -40.291  1.00  0.00     0.046 C 
HETATM   16  C   UNL     1      -9.037 -13.226 -38.440  1.00  0.00     0.063 C 
ENDBRANCH   1   5
BRANCH   2  17
HETATM   17  C   UNL     1      -4.772 -13.555 -37.441  1.00  0.00     0.146 A 
HETATM   18  N   UNL     1      -4.260 -12.306 -37.468  1.00  0.00    -0.169 NA
HETATM   19  N   UNL     1      -2.993 -12.494 -37.889  1.00  0.00    -0.277 N 
HETATM   20  H   UNL     1      -2.402 -11.679 -38.018  1.00  0.00     0.189 HD
HETATM   21  C   UNL     1      -2.656 -13.804 -38.115  1.00  0.00     0.063 A 
HETATM   22  C   UNL     1      -3.809 -14.512 -37.839  1.00  0.00     0.071 A 
BRANCH  21  23
HETATM   23  C   UNL     1      -1.335 -14.240 -38.573  1.00  0.00    -0.008 A 
HETATM   24  C   UNL     1      -0.973 -14.179 -39.926  1.00  0.00     0.014 A 
HETATM   25  C   UNL     1       0.293 -14.600 -40.347  1.00  0.00     0.001 A 
HETATM   26  C   UNL     1       1.212 -15.083 -39.421  1.00  0.00     0.000 A 
HETATM   27  C   UNL     1       0.870 -15.144 -38.073  1.00  0.00     0.001 A 
HETATM   28  C   UNL     1      -0.394 -14.724 -37.652  1.00  0.00     0.014 A 
ENDBRANCH  21  23
ENDBRANCH   2  17
TORSDOF 3
ENDMDL
