MODEL 1
REMARK VINA RESULT:      -9.6      0.000      0.000
REMARK  6 active torsions:
REMARK  status: ('A' for Active; 'I' for Inactive)
REMARK    1  A    between atoms: C_6  and  C_7 
REMARK    2  A    between atoms: C_10  and  O_11 
REMARK    3  A    between atoms: C_15  and  C_16 
REMARK    4  A    between atoms: C_16  and  C_17 
REMARK       I    between atoms: C_17  and  N_18 
REMARK    5  A    between atoms: N_18  and  C_19 
REMARK    6  A    between atoms: C_19  and  C_20 
ROOT
HETATM    1  C   UNL     1      -5.158   2.881 -32.567  1.00  0.00     0.146 C 
ENDROOT
BRANCH   1   2
HETATM    2  C   UNL     1      -5.680   2.033 -31.453  1.00  0.00     0.006 A 
HETATM    3  C   UNL     1      -5.982   2.480 -30.176  1.00  0.00     0.033 A 
HETATM    4  C   UNL     1      -5.902   3.820 -29.546  1.00  0.00     0.070 C 
HETATM    5  N   UNL     1      -6.418   1.387 -29.491  1.00  0.00    -0.282 N 
HETATM    6  H   UNL     1      -6.734   1.333 -28.528  1.00  0.00     0.189 HD
HETATM    7  N   UNL     1      -6.400   0.264 -30.209  1.00  0.00    -0.173 NA
HETATM    8  C   UNL     1      -5.981   0.628 -31.434  1.00  0.00     0.096 A 
BRANCH   8   9
HETATM    9  C   UNL     1      -5.865  -0.394 -32.487  1.00  0.00    -0.005 A 
HETATM   10  C   UNL     1      -6.936  -0.752 -33.310  1.00  0.00     0.016 A 
HETATM   11  C   UNL     1      -6.785  -1.743 -34.290  1.00  0.00     0.037 A 
HETATM   12  C   UNL     1      -5.575  -2.418 -34.442  1.00  0.00     0.068 A 
HETATM   13  C   UNL     1      -4.498  -2.071 -33.631  1.00  0.00     0.037 A 
HETATM   14  C   UNL     1      -4.646  -1.068 -32.665  1.00  0.00     0.016 A 
BRANCH  12  15
HETATM   15  O   UNL     1      -5.565  -3.378 -35.416  1.00  0.00    -0.356 OA
HETATM   16  C   UNL     1      -6.460  -4.469 -35.231  1.00  0.00     0.210 C 
ENDBRANCH  12  15
ENDBRANCH   8   9
ENDBRANCH   1   2
BRANCH   1  17
HETATM   17  C   UNL     1      -3.662   3.141 -32.541  1.00  0.00     0.222 C 
HETATM   18  N   UNL     1      -3.242   4.347 -33.047  1.00  0.00    -0.350 N 
HETATM   19  H   UNL     1      -3.919   5.059 -33.293  1.00  0.00     0.163 HD
HETATM   20  O   UNL     1      -2.877   2.270 -32.168  1.00  0.00    -0.273 OA
BRANCH  18  21
HETATM   21  C   UNL     1      -1.844   4.613 -33.348  1.00  0.00     0.150 C 
HETATM   22  C   UNL     1      -1.758   5.503 -34.585  1.00  0.00     0.040 C 
BRANCH  21  23
HETATM   23  C   UNL     1      -1.186   5.236 -32.156  1.00  0.00     0.127 A 
HETATM   24  N   UNL     1      -0.351   4.659 -31.313  1.00  0.00    -0.231 NA
HETATM   25  C   UNL     1      -0.147   5.571 -30.307  1.00  0.00     0.085 A 
HETATM   26  C   UNL     1      -0.839   6.750 -30.559  1.00  0.00     0.062 A 
HETATM   27  C   UNL     1       0.606   5.452 -29.130  1.00  0.00     0.034 A 
HETATM   28  N   UNL     1      -1.475   6.521 -31.751  1.00  0.00    -0.341 N 
HETATM   29  C   UNL     1      -0.818   7.847 -29.695  1.00  0.00     0.032 A 
HETATM   30  H   UNL     1      -2.089   7.163 -32.235  1.00  0.00     0.167 HD
HETATM   31  C   UNL     1      -0.065   7.709 -28.521  1.00  0.00     0.002 A 
HETATM   32  C   UNL     1       0.635   6.533 -28.241  1.00  0.00     0.002 A 
ENDBRANCH  21  23
ENDBRANCH  18  21
ENDBRANCH   1  17
TORSDOF 6
ENDMDL
MODEL 2
REMARK VINA RESULT:      -9.3      2.222      3.839
REMARK  6 active torsions:
REMARK  status: ('A' for Active; 'I' for Inactive)
REMARK    1  A    between atoms: C_6  and  C_7 
REMARK    2  A    between atoms: C_10  and  O_11 
REMARK    3  A    between atoms: C_15  and  C_16 
REMARK    4  A    between atoms: C_16  and  C_17 
REMARK       I    between atoms: C_17  and  N_18 
REMARK    5  A    between atoms: N_18  and  C_19 
REMARK    6  A    between atoms: C_19  and  C_20 
ROOT
HETATM    1  C   UNL     1      -7.441   0.458 -31.213  1.00  0.00     0.146 C 
ENDROOT
BRANCH   1   2
HETATM    2  C   UNL     1      -7.618   0.850 -32.644  1.00  0.00     0.006 A 
HETATM    3  C   UNL     1      -8.258   1.997 -33.089  1.00  0.00     0.033 A 
HETATM    4  C   UNL     1      -8.913   3.115 -32.369  1.00  0.00     0.070 C 
HETATM    5  N   UNL     1      -8.194   1.954 -34.449  1.00  0.00    -0.282 N 
HETATM    6  H   UNL     1      -8.552   2.631 -35.116  1.00  0.00     0.189 HD
HETATM    7  N   UNL     1      -7.591   0.864 -34.922  1.00  0.00    -0.173 NA
HETATM    8  C   UNL     1      -7.194   0.175 -33.839  1.00  0.00     0.096 A 
BRANCH   8   9
HETATM    9  C   UNL     1      -6.468  -1.093 -34.020  1.00  0.00    -0.005 A 
HETATM   10  C   UNL     1      -5.095  -1.215 -33.789  1.00  0.00     0.016 A 
HETATM   11  C   UNL     1      -4.442  -2.439 -33.990  1.00  0.00     0.037 A 
HETATM   12  C   UNL     1      -5.140  -3.552 -34.458  1.00  0.00     0.068 A 
HETATM   13  C   UNL     1      -6.508  -3.446 -34.691  1.00  0.00     0.037 A 
HETATM   14  C   UNL     1      -7.162  -2.228 -34.472  1.00  0.00     0.016 A 
BRANCH  12  15
HETATM   15  O   UNL     1      -4.383  -4.677 -34.636  1.00  0.00    -0.356 OA
HETATM   16  C   UNL     1      -3.443  -4.971 -33.610  1.00  0.00     0.210 C 
ENDBRANCH  12  15
ENDBRANCH   8   9
ENDBRANCH   1   2
BRANCH   1  17
HETATM   17  C   UNL     1      -6.135   0.898 -30.574  1.00  0.00     0.222 C 
HETATM   18  N   UNL     1      -5.210   1.476 -31.410  1.00  0.00    -0.350 N 
HETATM   19  H   UNL     1      -5.461   1.707 -32.365  1.00  0.00     0.163 HD
HETATM   20  O   UNL     1      -5.899   0.659 -29.391  1.00  0.00    -0.273 OA
BRANCH  18  21
HETATM   21  C   UNL     1      -3.828   1.681 -31.008  1.00  0.00     0.150 C 
HETATM   22  C   UNL     1      -3.029   0.412 -31.294  1.00  0.00     0.040 C 
BRANCH  21  23
HETATM   23  C   UNL     1      -3.271   2.873 -31.722  1.00  0.00     0.127 A 
HETATM   24  N   UNL     1      -3.222   3.072 -33.026  1.00  0.00    -0.231 NA
HETATM   25  C   UNL     1      -2.487   4.217 -33.201  1.00  0.00     0.085 A 
HETATM   26  C   UNL     1      -2.110   4.758 -31.977  1.00  0.00     0.062 A 
HETATM   27  C   UNL     1      -2.081   4.848 -34.387  1.00  0.00     0.034 A 
HETATM   28  N   UNL     1      -2.639   3.898 -31.051  1.00  0.00    -0.341 N 
HETATM   29  C   UNL     1      -1.345   5.921 -31.859  1.00  0.00     0.032 A 
HETATM   30  H   UNL     1      -2.548   3.970 -30.045  1.00  0.00     0.167 HD
HETATM   31  C   UNL     1      -0.945   6.534 -33.053  1.00  0.00     0.002 A 
HETATM   32  C   UNL     1      -1.304   6.009 -34.297  1.00  0.00     0.002 A 
ENDBRANCH  21  23
ENDBRANCH  18  21
ENDBRANCH   1  17
TORSDOF 6
ENDMDL
MODEL 3
REMARK VINA RESULT:      -9.1      2.117      9.337
REMARK  6 active torsions:
REMARK  status: ('A' for Active; 'I' for Inactive)
REMARK    1  A    between atoms: C_6  and  C_7 
REMARK    2  A    between atoms: C_10  and  O_11 
REMARK    3  A    between atoms: C_15  and  C_16 
REMARK    4  A    between atoms: C_16  and  C_17 
REMARK       I    between atoms: C_17  and  N_18 
REMARK    5  A    between atoms: N_18  and  C_19 
REMARK    6  A    between atoms: C_19  and  C_20 
ROOT
HETATM    1  C   UNL     1      -3.933   4.729 -31.746  1.00  0.00     0.146 C 
ENDROOT
BRANCH   1   2
HETATM    2  C   UNL     1      -2.984   5.348 -32.721  1.00  0.00     0.006 A 
HETATM    3  C   UNL     1      -3.182   5.433 -34.091  1.00  0.00     0.033 A 
HETATM    4  C   UNL     1      -4.294   4.988 -34.966  1.00  0.00     0.070 C 
HETATM    5  N   UNL     1      -2.080   6.060 -34.588  1.00  0.00    -0.282 N 
HETATM    6  H   UNL     1      -1.877   6.302 -35.553  1.00  0.00     0.189 HD
HETATM    7  N   UNL     1      -1.174   6.365 -33.660  1.00  0.00    -0.173 NA
HETATM    8  C   UNL     1      -1.709   5.970 -32.492  1.00  0.00     0.096 A 
BRANCH   8   9
HETATM    9  C   UNL     1      -0.955   6.183 -31.246  1.00  0.00    -0.005 A 
HETATM   10  C   UNL     1      -0.210   5.172 -30.634  1.00  0.00     0.016 A 
HETATM   11  C   UNL     1       0.480   5.415 -29.438  1.00  0.00     0.037 A 
HETATM   12  C   UNL     1       0.410   6.661 -28.815  1.00  0.00     0.068 A 
HETATM   13  C   UNL     1      -0.327   7.678 -29.413  1.00  0.00     0.037 A 
HETATM   14  C   UNL     1      -1.000   7.438 -30.618  1.00  0.00     0.016 A 
BRANCH  12  15
HETATM   15  O   UNL     1       1.107   6.762 -27.642  1.00  0.00    -0.356 OA
HETATM   16  C   UNL     1       1.459   8.078 -27.233  1.00  0.00     0.210 C 
ENDBRANCH  12  15
ENDBRANCH   8   9
ENDBRANCH   1   2
BRANCH   1  17
HETATM   17  C   UNL     1      -3.723   3.248 -31.485  1.00  0.00     0.222 C 
HETATM   18  N   UNL     1      -4.857   2.475 -31.402  1.00  0.00    -0.350 N 
HETATM   19  H   UNL     1      -5.760   2.870 -31.639  1.00  0.00     0.163 HD
HETATM   20  O   UNL     1      -2.599   2.797 -31.270  1.00  0.00    -0.273 OA
BRANCH  18  21
HETATM   21  C   UNL     1      -4.829   1.119 -30.880  1.00  0.00     0.150 C 
HETATM   22  C   UNL     1      -5.801   1.013 -29.706  1.00  0.00     0.040 C 
BRANCH  21  23
HETATM   23  C   UNL     1      -5.161   0.154 -31.977  1.00  0.00     0.127 A 
HETATM   24  N   UNL     1      -6.352  -0.096 -32.487  1.00  0.00    -0.231 NA
HETATM   25  C   UNL     1      -6.177  -1.155 -33.341  1.00  0.00     0.085 A 
HETATM   26  C   UNL     1      -4.842  -1.538 -33.389  1.00  0.00     0.062 A 
HETATM   27  C   UNL     1      -7.124  -1.859 -34.100  1.00  0.00     0.034 A 
HETATM   28  N   UNL     1      -4.212  -0.677 -32.530  1.00  0.00    -0.341 N 
HETATM   29  C   UNL     1      -4.380  -2.599 -34.173  1.00  0.00     0.032 A 
HETATM   30  H   UNL     1      -3.226  -0.674 -32.300  1.00  0.00     0.167 HD
HETATM   31  C   UNL     1      -5.340  -3.294 -34.919  1.00  0.00     0.002 A 
HETATM   32  C   UNL     1      -6.689  -2.934 -34.885  1.00  0.00     0.002 A 
ENDBRANCH  21  23
ENDBRANCH  18  21
ENDBRANCH   1  17
TORSDOF 6
ENDMDL
MODEL 4
REMARK VINA RESULT:      -8.7      1.695      2.356
REMARK  6 active torsions:
REMARK  status: ('A' for Active; 'I' for Inactive)
REMARK    1  A    between atoms: C_6  and  C_7 
REMARK    2  A    between atoms: C_10  and  O_11 
REMARK    3  A    between atoms: C_15  and  C_16 
REMARK    4  A    between atoms: C_16  and  C_17 
REMARK       I    between atoms: C_17  and  N_18 
REMARK    5  A    between atoms: N_18  and  C_19 
REMARK    6  A    between atoms: C_19  and  C_20 
ROOT
HETATM    1  C   UNL     1      -5.065   1.992 -31.069  1.00  0.00     0.146 C 
ENDROOT
BRANCH   1   2
HETATM    2  C   UNL     1      -5.894   2.225 -32.290  1.00  0.00     0.006 A 
HETATM    3  C   UNL     1      -6.573   3.397 -32.589  1.00  0.00     0.033 A 
HETATM    4  C   UNL     1      -6.690   4.689 -31.872  1.00  0.00     0.070 C 
HETATM    5  N   UNL     1      -7.194   3.174 -33.780  1.00  0.00    -0.282 N 
HETATM    6  H   UNL     1      -7.778   3.812 -34.313  1.00  0.00     0.189 HD
HETATM    7  N   UNL     1      -6.997   1.949 -34.265  1.00  0.00    -0.173 NA
HETATM    8  C   UNL     1      -6.175   1.344 -33.391  1.00  0.00     0.096 A 
BRANCH   8   9
HETATM    9  C   UNL     1      -5.742  -0.039 -33.648  1.00  0.00    -0.005 A 
HETATM   10  C   UNL     1      -4.514  -0.539 -33.206  1.00  0.00     0.016 A 
HETATM   11  C   UNL     1      -4.135  -1.858 -33.489  1.00  0.00     0.037 A 
HETATM   12  C   UNL     1      -4.959  -2.690 -34.247  1.00  0.00     0.068 A 
HETATM   13  C   UNL     1      -6.185  -2.207 -34.693  1.00  0.00     0.037 A 
HETATM   14  C   UNL     1      -6.570  -0.894 -34.393  1.00  0.00     0.016 A 
BRANCH  12  15
HETATM   15  O   UNL     1      -4.464  -3.945 -34.474  1.00  0.00    -0.356 OA
HETATM   16  C   UNL     1      -3.557  -4.448 -33.499  1.00  0.00     0.210 C 
ENDBRANCH  12  15
ENDBRANCH   8   9
ENDBRANCH   1   2
BRANCH   1  17
HETATM   17  C   UNL     1      -3.606   2.397 -31.186  1.00  0.00     0.222 C 
HETATM   18  N   UNL     1      -3.357   3.734 -31.383  1.00  0.00    -0.350 N 
HETATM   19  H   UNL     1      -4.111   4.407 -31.317  1.00  0.00     0.163 HD
HETATM   20  O   UNL     1      -2.714   1.550 -31.192  1.00  0.00    -0.273 OA
BRANCH  18  21
HETATM   21  C   UNL     1      -2.050   4.222 -31.793  1.00  0.00     0.150 C 
HETATM   22  C   UNL     1      -2.164   4.855 -33.179  1.00  0.00     0.040 C 
BRANCH  21  23
HETATM   23  C   UNL     1      -1.534   5.188 -30.772  1.00  0.00     0.127 A 
HETATM   24  N   UNL     1      -1.927   6.434 -30.580  1.00  0.00    -0.231 NA
HETATM   25  C   UNL     1      -1.062   6.959 -29.653  1.00  0.00     0.085 A 
HETATM   26  C   UNL     1      -0.144   6.003 -29.234  1.00  0.00     0.062 A 
HETATM   27  C   UNL     1      -0.989   8.260 -29.133  1.00  0.00     0.034 A 
HETATM   28  N   UNL     1      -0.478   4.879 -29.942  1.00  0.00    -0.341 N 
HETATM   29  C   UNL     1       0.860   6.267 -28.299  1.00  0.00     0.032 A 
HETATM   30  H   UNL     1      -0.007   3.984 -29.904  1.00  0.00     0.167 HD
HETATM   31  C   UNL     1       0.922   7.573 -27.795  1.00  0.00     0.002 A 
HETATM   32  C   UNL     1       0.015   8.555 -28.204  1.00  0.00     0.002 A 
ENDBRANCH  21  23
ENDBRANCH  18  21
ENDBRANCH   1  17
TORSDOF 6
ENDMDL
MODEL 5
REMARK VINA RESULT:      -8.3      1.271      1.863
REMARK  6 active torsions:
REMARK  status: ('A' for Active; 'I' for Inactive)
REMARK    1  A    between atoms: C_6  and  C_7 
REMARK    2  A    between atoms: C_10  and  O_11 
REMARK    3  A    between atoms: C_15  and  C_16 
REMARK    4  A    between atoms: C_16  and  C_17 
REMARK       I    between atoms: C_17  and  N_18 
REMARK    5  A    between atoms: N_18  and  C_19 
REMARK    6  A    between atoms: C_19  and  C_20 
ROOT
HETATM    1  C   UNL     1      -4.681   3.567 -32.028  1.00  0.00     0.146 C 
ENDROOT
BRANCH   1   2
HETATM    2  C   UNL     1      -5.539   2.806 -31.069  1.00  0.00     0.006 A 
HETATM    3  C   UNL     1      -6.138   3.332 -29.935  1.00  0.00     0.033 A 
HETATM    4  C   UNL     1      -6.136   4.695 -29.350  1.00  0.00     0.070 C 
HETATM    5  N   UNL     1      -6.816   2.301 -29.359  1.00  0.00    -0.282 N 
HETATM    6  H   UNL     1      -7.379   2.314 -28.515  1.00  0.00     0.189 HD
HETATM    7  N   UNL     1      -6.685   1.146 -30.010  1.00  0.00    -0.173 NA
HETATM    8  C   UNL     1      -5.930   1.424 -31.087  1.00  0.00     0.096 A 
BRANCH   8   9
HETATM    9  C   UNL     1      -5.609   0.347 -32.038  1.00  0.00    -0.005 A 
HETATM   10  C   UNL     1      -6.565  -0.220 -32.885  1.00  0.00     0.016 A 
HETATM   11  C   UNL     1      -6.219  -1.256 -33.763  1.00  0.00     0.037 A 
HETATM   12  C   UNL     1      -4.921  -1.768 -33.787  1.00  0.00     0.068 A 
HETATM   13  C   UNL     1      -3.958  -1.212 -32.950  1.00  0.00     0.037 A 
HETATM   14  C   UNL     1      -4.302  -0.165 -32.087  1.00  0.00     0.016 A 
BRANCH  12  15
HETATM   15  O   UNL     1      -4.719  -2.793 -34.669  1.00  0.00    -0.356 OA
HETATM   16  C   UNL     1      -3.995  -3.913 -34.175  1.00  0.00     0.210 C 
ENDBRANCH  12  15
ENDBRANCH   8   9
ENDBRANCH   1   2
BRANCH   1  17
HETATM   17  C   UNL     1      -3.235   3.753 -31.601  1.00  0.00     0.222 C 
HETATM   18  N   UNL     1      -2.708   5.012 -31.762  1.00  0.00    -0.350 N 
HETATM   19  H   UNL     1      -3.307   5.785 -32.027  1.00  0.00     0.163 HD
HETATM   20  O   UNL     1      -2.562   2.797 -31.219  1.00  0.00    -0.273 OA
BRANCH  18  21
HETATM   21  C   UNL     1      -1.280   5.267 -31.669  1.00  0.00     0.150 C 
HETATM   22  C   UNL     1      -0.783   5.830 -32.999  1.00  0.00     0.040 C 
BRANCH  21  23
HETATM   23  C   UNL     1      -1.011   6.197 -30.526  1.00  0.00     0.127 A 
HETATM   24  N   UNL     1      -1.881   6.974 -29.909  1.00  0.00    -0.231 NA
HETATM   25  C   UNL     1      -1.143   7.750 -29.049  1.00  0.00     0.085 A 
HETATM   26  C   UNL     1       0.204   7.413 -29.109  1.00  0.00     0.062 A 
HETATM   27  C   UNL     1      -1.558   8.782 -28.195  1.00  0.00     0.034 A 
HETATM   28  N   UNL     1       0.261   6.408 -30.039  1.00  0.00    -0.341 N 
HETATM   29  C   UNL     1       1.185   8.050 -28.346  1.00  0.00     0.032 A 
HETATM   30  H   UNL     1       1.094   5.929 -30.354  1.00  0.00     0.167 HD
HETATM   31  C   UNL     1       0.754   9.082 -27.503  1.00  0.00     0.002 A 
HETATM   32  C   UNL     1      -0.593   9.445 -27.427  1.00  0.00     0.002 A 
ENDBRANCH  21  23
ENDBRANCH  18  21
ENDBRANCH   1  17
TORSDOF 6
ENDMDL
MODEL 6
REMARK VINA RESULT:      -8.2      5.352      8.775
REMARK  6 active torsions:
REMARK  status: ('A' for Active; 'I' for Inactive)
REMARK    1  A    between atoms: C_6  and  C_7 
REMARK    2  A    between atoms: C_10  and  O_11 
REMARK    3  A    between atoms: C_15  and  C_16 
REMARK    4  A    between atoms: C_16  and  C_17 
REMARK       I    between atoms: C_17  and  N_18 
REMARK    5  A    between atoms: N_18  and  C_19 
REMARK    6  A    between atoms: C_19  and  C_20 
ROOT
HETATM    1  C   UNL     1      -9.062   0.329 -32.065  1.00  0.00     0.146 C 
ENDROOT
BRANCH   1   2
HETATM    2  C   UNL     1      -7.831   1.155 -31.875  1.00  0.00     0.006 A 
HETATM    3  C   UNL     1      -7.794   2.424 -31.319  1.00  0.00     0.033 A 
HETATM    4  C   UNL     1      -8.856   3.303 -30.772  1.00  0.00     0.070 C 
HETATM    5  N   UNL     1      -6.486   2.803 -31.342  1.00  0.00    -0.282 N 
HETATM    6  H   UNL     1      -6.077   3.671 -31.010  1.00  0.00     0.189 HD
HETATM    7  N   UNL     1      -5.677   1.897 -31.890  1.00  0.00    -0.173 NA
HETATM    8  C   UNL     1      -6.465   0.854 -32.203  1.00  0.00     0.096 A 
BRANCH   8   9
HETATM    9  C   UNL     1      -5.866  -0.341 -32.820  1.00  0.00    -0.005 A 
HETATM   10  C   UNL     1      -4.674  -0.909 -32.361  1.00  0.00     0.016 A 
HETATM   11  C   UNL     1      -4.131  -2.037 -32.991  1.00  0.00     0.037 A 
HETATM   12  C   UNL     1      -4.748  -2.597 -34.109  1.00  0.00     0.068 A 
HETATM   13  C   UNL     1      -5.936  -2.043 -34.577  1.00  0.00     0.037 A 
HETATM   14  C   UNL     1      -6.487  -0.927 -33.935  1.00  0.00     0.016 A 
BRANCH  12  15
HETATM   15  O   UNL     1      -4.105  -3.679 -34.645  1.00  0.00    -0.356 OA
HETATM   16  C   UNL     1      -3.538  -4.596 -33.717  1.00  0.00     0.210 C 
ENDBRANCH  12  15
ENDBRANCH   8   9
ENDBRANCH   1   2
BRANCH   1  17
HETATM   17  C   UNL     1      -9.957   0.751 -33.218  1.00  0.00     0.222 C 
HETATM   18  N   UNL     1     -11.310   0.732 -32.979  1.00  0.00    -0.350 N 
HETATM   19  H   UNL     1     -11.659   0.573 -32.041  1.00  0.00     0.163 HD
HETATM   20  O   UNL     1      -9.484   1.003 -34.325  1.00  0.00    -0.273 OA
BRANCH  18  21
HETATM   21  C   UNL     1     -12.284   0.831 -34.053  1.00  0.00     0.150 C 
HETATM   22  C   UNL     1     -13.493  -0.039 -33.716  1.00  0.00     0.040 C 
BRANCH  21  23
HETATM   23  C   UNL     1     -12.660   2.266 -34.257  1.00  0.00     0.127 A 
HETATM   24  N   UNL     1     -12.536   2.976 -35.363  1.00  0.00    -0.231 NA
HETATM   25  C   UNL     1     -12.859   4.264 -35.019  1.00  0.00     0.085 A 
HETATM   26  C   UNL     1     -13.232   4.341 -33.682  1.00  0.00     0.062 A 
HETATM   27  C   UNL     1     -12.838   5.431 -35.797  1.00  0.00     0.034 A 
HETATM   28  N   UNL     1     -13.119   3.055 -33.224  1.00  0.00    -0.341 N 
HETATM   29  C   UNL     1     -13.603   5.536 -33.060  1.00  0.00     0.032 A 
HETATM   30  H   UNL     1     -13.295   2.737 -32.279  1.00  0.00     0.167 HD
HETATM   31  C   UNL     1     -13.571   6.693 -33.851  1.00  0.00     0.002 A 
HETATM   32  C   UNL     1     -13.194   6.644 -35.196  1.00  0.00     0.002 A 
ENDBRANCH  21  23
ENDBRANCH  18  21
ENDBRANCH   1  17
TORSDOF 6
ENDMDL
MODEL 7
REMARK VINA RESULT:      -8.1      2.420      9.295
REMARK  6 active torsions:
REMARK  status: ('A' for Active; 'I' for Inactive)
REMARK    1  A    between atoms: C_6  and  C_7 
REMARK    2  A    between atoms: C_10  and  O_11 
REMARK    3  A    between atoms: C_15  and  C_16 
REMARK    4  A    between atoms: C_16  and  C_17 
REMARK       I    between atoms: C_17  and  N_18 
REMARK    5  A    between atoms: N_18  and  C_19 
REMARK    6  A    between atoms: C_19  and  C_20 
ROOT
HETATM    1  C   UNL     1      -2.318   4.452 -32.091  1.00  0.00     0.146 C 
ENDROOT
BRANCH   1   2
HETATM    2  C   UNL     1      -2.100   5.738 -32.821  1.00  0.00     0.006 A 
HETATM    3  C   UNL     1      -2.384   5.960 -34.160  1.00  0.00     0.033 A 
HETATM    4  C   UNL     1      -2.950   5.085 -35.216  1.00  0.00     0.070 C 
HETATM    5  N   UNL     1      -2.032   7.252 -34.407  1.00  0.00    -0.282 N 
HETATM    6  H   UNL     1      -2.104   7.767 -35.279  1.00  0.00     0.189 HD
HETATM    7  N   UNL     1      -1.519   7.878 -33.348  1.00  0.00    -0.173 NA
HETATM    8  C   UNL     1      -1.573   6.987 -32.343  1.00  0.00     0.096 A 
BRANCH   8   9
HETATM    9  C   UNL     1      -1.091   7.377 -31.009  1.00  0.00    -0.005 A 
HETATM   10  C   UNL     1      -1.769   8.294 -30.201  1.00  0.00     0.016 A 
HETATM   11  C   UNL     1      -1.263   8.649 -28.943  1.00  0.00     0.037 A 
HETATM   12  C   UNL     1      -0.056   8.124 -28.484  1.00  0.00     0.068 A 
HETATM   13  C   UNL     1       0.630   7.209 -29.277  1.00  0.00     0.037 A 
HETATM   14  C   UNL     1       0.114   6.841 -30.525  1.00  0.00     0.016 A 
BRANCH  12  15
HETATM   15  O   UNL     1       0.340   8.570 -27.253  1.00  0.00    -0.356 OA
HETATM   16  C   UNL     1      -0.602   8.419 -26.198  1.00  0.00     0.210 C 
ENDBRANCH  12  15
ENDBRANCH   8   9
ENDBRANCH   1   2
BRANCH   1  17
HETATM   17  C   UNL     1      -3.741   4.203 -31.623  1.00  0.00     0.222 C 
HETATM   18  N   UNL     1      -3.900   3.285 -30.613  1.00  0.00    -0.350 N 
HETATM   19  H   UNL     1      -3.089   2.909 -30.135  1.00  0.00     0.163 HD
HETATM   20  O   UNL     1      -4.695   4.735 -32.190  1.00  0.00    -0.273 OA
BRANCH  18  21
HETATM   21  C   UNL     1      -5.202   2.740 -30.264  1.00  0.00     0.150 C 
HETATM   22  C   UNL     1      -6.153   3.887 -29.933  1.00  0.00     0.040 C 
BRANCH  21  23
HETATM   23  C   UNL     1      -5.708   1.893 -31.391  1.00  0.00     0.127 A 
HETATM   24  N   UNL     1      -5.306   0.679 -31.720  1.00  0.00    -0.231 NA
HETATM   25  C   UNL     1      -5.940   0.385 -32.901  1.00  0.00     0.085 A 
HETATM   26  C   UNL     1      -6.781   1.422 -33.285  1.00  0.00     0.062 A 
HETATM   27  C   UNL     1      -5.828  -0.750 -33.718  1.00  0.00     0.034 A 
HETATM   28  N   UNL     1      -6.633   2.361 -32.298  1.00  0.00    -0.341 N 
HETATM   29  C   UNL     1      -7.544   1.394 -34.456  1.00  0.00     0.032 A 
HETATM   30  H   UNL     1      -7.087   3.264 -32.257  1.00  0.00     0.167 HD
HETATM   31  C   UNL     1      -7.416   0.255 -35.262  1.00  0.00     0.002 A 
HETATM   32  C   UNL     1      -6.573  -0.800 -34.903  1.00  0.00     0.002 A 
ENDBRANCH  21  23
ENDBRANCH  18  21
ENDBRANCH   1  17
TORSDOF 6
ENDMDL
MODEL 8
REMARK VINA RESULT:      -8.1      2.102      2.804
REMARK  6 active torsions:
REMARK  status: ('A' for Active; 'I' for Inactive)
REMARK    1  A    between atoms: C_6  and  C_7 
REMARK    2  A    between atoms: C_10  and  O_11 
REMARK    3  A    between atoms: C_15  and  C_16 
REMARK    4  A    between atoms: C_16  and  C_17 
REMARK       I    between atoms: C_17  and  N_18 
REMARK    5  A    between atoms: N_18  and  C_19 
REMARK    6  A    between atoms: C_19  and  C_20 
ROOT
HETATM    1  C   UNL     1      -6.600   2.722 -33.868  1.00  0.00     0.146 C 
ENDROOT
BRANCH   1   2
HETATM    2  C   UNL     1      -7.417   1.935 -32.896  1.00  0.00     0.006 A 
HETATM    3  C   UNL     1      -8.448   2.440 -32.119  1.00  0.00     0.033 A 
HETATM    4  C   UNL     1      -9.037   3.796 -32.006  1.00  0.00     0.070 C 
HETATM    5  N   UNL     1      -8.909   1.391 -31.383  1.00  0.00    -0.282 N 
HETATM    6  H   UNL     1      -9.666   1.382 -30.707  1.00  0.00     0.189 HD
HETATM    7  N   UNL     1      -8.246   0.255 -31.598  1.00  0.00    -0.173 NA
HETATM    8  C   UNL     1      -7.339   0.543 -32.547  1.00  0.00     0.096 A 
BRANCH   8   9
HETATM    9  C   UNL     1      -6.442  -0.519 -33.031  1.00  0.00    -0.005 A 
HETATM   10  C   UNL     1      -6.826  -1.445 -34.004  1.00  0.00     0.016 A 
HETATM   11  C   UNL     1      -5.944  -2.451 -34.422  1.00  0.00     0.037 A 
HETATM   12  C   UNL     1      -4.677  -2.572 -33.853  1.00  0.00     0.068 A 
HETATM   13  C   UNL     1      -4.279  -1.656 -32.883  1.00  0.00     0.037 A 
HETATM   14  C   UNL     1      -5.155  -0.641 -32.480  1.00  0.00     0.016 A 
BRANCH  12  15
HETATM   15  O   UNL     1      -3.924  -3.609 -34.330  1.00  0.00    -0.356 OA
HETATM   16  C   UNL     1      -4.503  -4.904 -34.230  1.00  0.00     0.210 C 
ENDBRANCH  12  15
ENDBRANCH   8   9
ENDBRANCH   1   2
BRANCH   1  17
HETATM   17  C   UNL     1      -6.231   4.126 -33.422  1.00  0.00     0.222 C 
HETATM   18  N   UNL     1      -5.544   4.230 -32.237  1.00  0.00    -0.350 N 
HETATM   19  H   UNL     1      -5.198   3.398 -31.774  1.00  0.00     0.163 HD
HETATM   20  O   UNL     1      -6.615   5.110 -34.053  1.00  0.00    -0.273 OA
BRANCH  18  21
HETATM   21  C   UNL     1      -5.378   5.501 -31.550  1.00  0.00     0.150 C 
HETATM   22  C   UNL     1      -6.290   5.532 -30.325  1.00  0.00     0.040 C 
BRANCH  21  23
HETATM   23  C   UNL     1      -3.938   5.690 -31.188  1.00  0.00     0.127 A 
HETATM   24  N   UNL     1      -3.441   6.527 -30.297  1.00  0.00    -0.231 NA
HETATM   25  C   UNL     1      -2.078   6.453 -30.434  1.00  0.00     0.085 A 
HETATM   26  C   UNL     1      -1.727   5.518 -31.401  1.00  0.00     0.062 A 
HETATM   27  C   UNL     1      -1.071   7.174 -29.775  1.00  0.00     0.034 A 
HETATM   28  N   UNL     1      -2.925   5.030 -31.851  1.00  0.00    -0.341 N 
HETATM   29  C   UNL     1      -0.403   5.245 -31.753  1.00  0.00     0.032 A 
HETATM   30  H   UNL     1      -3.056   4.338 -32.577  1.00  0.00     0.167 HD
HETATM   31  C   UNL     1       0.589   5.978 -31.089  1.00  0.00     0.002 A 
HETATM   32  C   UNL     1       0.263   6.927 -30.116  1.00  0.00     0.002 A 
ENDBRANCH  21  23
ENDBRANCH  18  21
ENDBRANCH   1  17
TORSDOF 6
ENDMDL
MODEL 9
REMARK VINA RESULT:      -8.1      4.392      8.198
REMARK  6 active torsions:
REMARK  status: ('A' for Active; 'I' for Inactive)
REMARK    1  A    between atoms: C_6  and  C_7 
REMARK    2  A    between atoms: C_10  and  O_11 
REMARK    3  A    between atoms: C_15  and  C_16 
REMARK    4  A    between atoms: C_16  and  C_17 
REMARK       I    between atoms: C_17  and  N_18 
REMARK    5  A    between atoms: N_18  and  C_19 
REMARK    6  A    between atoms: C_19  and  C_20 
ROOT
HETATM    1  C   UNL     1      -7.501   3.126 -32.094  1.00  0.00     0.146 C 
ENDROOT
BRANCH   1   2
HETATM    2  C   UNL     1      -8.156   4.289 -32.766  1.00  0.00     0.006 A 
HETATM    3  C   UNL     1      -7.612   5.559 -32.883  1.00  0.00     0.033 A 
HETATM    4  C   UNL     1      -6.323   6.136 -32.431  1.00  0.00     0.070 C 
HETATM    5  N   UNL     1      -8.537   6.299 -33.555  1.00  0.00    -0.282 N 
HETATM    6  H   UNL     1      -8.481   7.275 -33.829  1.00  0.00     0.189 HD
HETATM    7  N   UNL     1      -9.644   5.623 -33.860  1.00  0.00    -0.173 NA
HETATM    8  C   UNL     1      -9.433   4.371 -33.418  1.00  0.00     0.096 A 
BRANCH   8   9
HETATM    9  C   UNL     1     -10.477   3.353 -33.619  1.00  0.00    -0.005 A 
HETATM   10  C   UNL     1     -10.233   2.145 -34.277  1.00  0.00     0.016 A 
HETATM   11  C   UNL     1     -11.262   1.210 -34.461  1.00  0.00     0.037 A 
HETATM   12  C   UNL     1     -12.558   1.480 -34.022  1.00  0.00     0.068 A 
HETATM   13  C   UNL     1     -12.815   2.678 -33.363  1.00  0.00     0.037 A 
HETATM   14  C   UNL     1     -11.782   3.602 -33.164  1.00  0.00     0.016 A 
BRANCH  12  15
HETATM   15  O   UNL     1     -13.474   0.499 -34.283  1.00  0.00    -0.356 OA
HETATM   16  C   UNL     1     -14.832   0.816 -34.001  1.00  0.00     0.210 C 
ENDBRANCH  12  15
ENDBRANCH   8   9
ENDBRANCH   1   2
BRANCH   1  17
HETATM   17  C   UNL     1      -6.480   2.379 -32.934  1.00  0.00     0.222 C 
HETATM   18  N   UNL     1      -5.727   1.432 -32.282  1.00  0.00    -0.350 N 
HETATM   19  H   UNL     1      -5.952   1.171 -31.329  1.00  0.00     0.163 HD
HETATM   20  O   UNL     1      -6.287   2.682 -34.111  1.00  0.00    -0.273 OA
BRANCH  18  21
HETATM   21  C   UNL     1      -4.535   0.850 -32.877  1.00  0.00     0.150 C 
HETATM   22  C   UNL     1      -3.443   0.747 -31.814  1.00  0.00     0.040 C 
BRANCH  21  23
HETATM   23  C   UNL     1      -4.872  -0.482 -33.472  1.00  0.00     0.127 A 
HETATM   24  N   UNL     1      -6.035  -0.865 -33.966  1.00  0.00    -0.231 NA
HETATM   25  C   UNL     1      -5.901  -2.203 -34.241  1.00  0.00     0.085 A 
HETATM   26  C   UNL     1      -4.615  -2.643 -33.949  1.00  0.00     0.062 A 
HETATM   27  C   UNL     1      -6.849  -3.116 -34.726  1.00  0.00     0.034 A 
HETATM   28  N   UNL     1      -3.973  -1.526 -33.483  1.00  0.00    -0.341 N 
HETATM   29  C   UNL     1      -4.203  -3.966 -34.125  1.00  0.00     0.032 A 
HETATM   30  H   UNL     1      -3.016  -1.477 -33.157  1.00  0.00     0.167 HD
HETATM   31  C   UNL     1      -5.164  -4.866 -34.605  1.00  0.00     0.002 A 
HETATM   32  C   UNL     1      -6.465  -4.451 -34.900  1.00  0.00     0.002 A 
ENDBRANCH  21  23
ENDBRANCH  18  21
ENDBRANCH   1  17
TORSDOF 6
ENDMDL
MODEL 10
REMARK VINA RESULT:      -8.0     16.776     19.553
REMARK  6 active torsions:
REMARK  status: ('A' for Active; 'I' for Inactive)
REMARK    1  A    between atoms: C_6  and  C_7 
REMARK    2  A    between atoms: C_10  and  O_11 
REMARK    3  A    between atoms: C_15  and  C_16 
REMARK    4  A    between atoms: C_16  and  C_17 
REMARK       I    between atoms: C_17  and  N_18 
REMARK    5  A    between atoms: N_18  and  C_19 
REMARK    6  A    between atoms: C_19  and  C_20 
ROOT
HETATM    1  C   UNL     1      -1.105 -16.217 -37.232  1.00  0.00     0.146 C 
ENDROOT
BRANCH   1   2
HETATM    2  C   UNL     1       0.127 -16.166 -38.077  1.00  0.00     0.006 A 
HETATM    3  C   UNL     1       1.427 -16.273 -37.607  1.00  0.00     0.033 A 
HETATM    4  C   UNL     1       1.981 -16.461 -36.245  1.00  0.00     0.070 C 
HETATM    5  N   UNL     1       2.229 -16.170 -38.704  1.00  0.00    -0.282 N 
HETATM    6  H   UNL     1       3.242 -16.211 -38.747  1.00  0.00     0.189 HD
HETATM    7  N   UNL     1       1.559 -15.980 -39.840  1.00  0.00    -0.173 NA
HETATM    8  C   UNL     1       0.259 -16.003 -39.498  1.00  0.00     0.096 A 
BRANCH   8   9
HETATM    9  C   UNL     1      -0.763 -15.836 -40.545  1.00  0.00    -0.005 A 
HETATM   10  C   UNL     1      -1.182 -16.888 -41.363  1.00  0.00     0.016 A 
HETATM   11  C   UNL     1      -2.146 -16.679 -42.359  1.00  0.00     0.037 A 
HETATM   12  C   UNL     1      -2.683 -15.411 -42.578  1.00  0.00     0.068 A 
HETATM   13  C   UNL     1      -2.277 -14.354 -41.770  1.00  0.00     0.037 A 
HETATM   14  C   UNL     1      -1.327 -14.569 -40.763  1.00  0.00     0.016 A 
BRANCH  12  15
HETATM   15  O   UNL     1      -3.595 -15.335 -43.594  1.00  0.00    -0.356 OA
HETATM   16  C   UNL     1      -4.780 -14.596 -43.322  1.00  0.00     0.210 C 
ENDBRANCH  12  15
ENDBRANCH   8   9
ENDBRANCH   1   2
BRANCH   1  17
HETATM   17  C   UNL     1      -1.662 -14.868 -36.811  1.00  0.00     0.222 C 
HETATM   18  N   UNL     1      -2.459 -14.224 -37.726  1.00  0.00    -0.350 N 
HETATM   19  H   UNL     1      -2.753 -14.701 -38.571  1.00  0.00     0.163 HD
HETATM   20  O   UNL     1      -1.333 -14.355 -35.743  1.00  0.00    -0.273 OA
BRANCH  18  21
HETATM   21  C   UNL     1      -2.823 -12.824 -37.582  1.00  0.00     0.150 C 
HETATM   22  C   UNL     1      -1.796 -11.961 -38.312  1.00  0.00     0.040 C 
BRANCH  21  23
HETATM   23  C   UNL     1      -4.211 -12.611 -38.100  1.00  0.00     0.127 A 
HETATM   24  N   UNL     1      -5.342 -12.749 -37.434  1.00  0.00    -0.231 NA
HETATM   25  C   UNL     1      -6.342 -12.607 -38.363  1.00  0.00     0.085 A 
HETATM   26  C   UNL     1      -5.816 -12.333 -39.620  1.00  0.00     0.062 A 
HETATM   27  C   UNL     1      -7.732 -12.718 -38.207  1.00  0.00     0.034 A 
HETATM   28  N   UNL     1      -4.460 -12.319 -39.424  1.00  0.00    -0.341 N 
HETATM   29  C   UNL     1      -6.608 -12.150 -40.756  1.00  0.00     0.032 A 
HETATM   30  H   UNL     1      -3.753 -12.167 -40.132  1.00  0.00     0.167 HD
HETATM   31  C   UNL     1      -7.993 -12.270 -40.583  1.00  0.00     0.002 A 
HETATM   32  C   UNL     1      -8.548 -12.550 -39.332  1.00  0.00     0.002 A 
ENDBRANCH  21  23
ENDBRANCH  18  21
ENDBRANCH   1  17
TORSDOF 6
ENDMDL
