MODEL 1
REMARK VINA RESULT:      -9.7      0.000      0.000
REMARK  3 active torsions:
REMARK  status: ('A' for Active; 'I' for Inactive)
REMARK    1  A    between atoms: C_5  and  C_6 
REMARK    2  A    between atoms: C_10  and  N_11 
REMARK    3  A    between atoms: N_11  and  N_12 
ROOT
HETATM    1  N   UNL     1      -8.125   3.474 -33.985  1.00  0.00    -0.261 N 
HETATM    2  H   UNL     1      -8.377   3.788 -34.926  1.00  0.00     0.191 HD
ENDROOT
BRANCH   1   3
HETATM    3  C   UNL     1      -7.367   2.354 -33.869  1.00  0.00     0.140 A 
HETATM    4  N   UNL     1      -6.220   2.343 -33.132  1.00  0.00    -0.261 N 
HETATM    5  N   UNL     1      -5.591   1.160 -33.106  1.00  0.00    -0.172 NA
HETATM    6  H   UNL     1      -5.802   3.111 -32.623  1.00  0.00     0.191 HD
HETATM    7  C   UNL     1      -6.359   0.349 -33.858  1.00  0.00     0.090 A 
HETATM    8  C   UNL     1      -7.481   1.073 -34.364  1.00  0.00     0.085 A 
BRANCH   7   9
HETATM    9  C   UNL     1      -6.008  -1.070 -34.039  1.00  0.00    -0.006 A 
HETATM   10  C   UNL     1      -6.979  -1.986 -34.478  1.00  0.00     0.014 A 
HETATM   11  C   UNL     1      -6.660  -3.327 -34.718  1.00  0.00     0.007 A 
HETATM   12  C   UNL     1      -5.357  -3.789 -34.520  1.00  0.00    -0.062 A 
HETATM   13  C   UNL     1      -4.991  -5.213 -34.823  1.00  0.00     0.048 C 
HETATM   14  C   UNL     1      -4.386  -2.891 -34.060  1.00  0.00     0.007 A 
HETATM   15  C   UNL     1      -4.708  -1.547 -33.821  1.00  0.00     0.014 A 
ENDBRANCH   7   9
ENDBRANCH   1   3
BRANCH   1  16
HETATM   16  N   UNL     1      -8.965   3.848 -32.974  1.00  0.00    -0.166 NA
HETATM   17  C   UNL     1     -10.238   3.583 -33.085  1.00  0.00     0.169 C 
HETATM   18  C   UNL     1     -11.173   3.889 -31.931  1.00  0.00     0.278 C 
HETATM   19  C   UNL     1     -10.850   3.008 -34.313  1.00  0.00     0.067 C 
HETATM   20  O   UNL     1     -10.804   4.628 -31.023  1.00  0.00    -0.265 OA
HETATM   21  N   UNL     1     -12.470   3.409 -31.928  1.00  0.00    -0.319 N 
HETATM   22  C   UNL     1     -13.187   2.512 -32.764  1.00  0.00     0.064 A 
HETATM   23  H   UNL     1     -12.981   3.783 -31.136  1.00  0.00     0.169 HD
HETATM   24  C   UNL     1     -12.641   1.747 -33.823  1.00  0.00     0.084 A 
HETATM   25  C   UNL     1     -14.557   2.385 -32.481  1.00  0.00     0.032 A 
HETATM   26  C   UNL     1     -13.462   0.863 -34.534  1.00  0.00     0.034 A 
HETATM   27  N   UNL     1     -11.281   1.796 -34.173  1.00  0.00    -0.249 NA
HETATM   28  C   UNL     1     -14.820   0.753 -34.238  1.00  0.00     0.002 A 
HETATM   29  C   UNL     1     -15.370   1.520 -33.217  1.00  0.00     0.002 A 
HETATM   30  C   UNL     1     -11.335   3.981 -35.346  1.00  0.00     0.073 C 
ENDBRANCH   1  16
TORSDOF 3
ENDMDL
MODEL 2
REMARK VINA RESULT:      -9.7      7.133     10.044
REMARK  3 active torsions:
REMARK  status: ('A' for Active; 'I' for Inactive)
REMARK    1  A    between atoms: C_5  and  C_6 
REMARK    2  A    between atoms: C_10  and  N_11 
REMARK    3  A    between atoms: N_11  and  N_12 
ROOT
HETATM    1  N   UNL     1      -3.043   4.383 -31.697  1.00  0.00    -0.261 N 
HETATM    2  H   UNL     1      -3.527   5.248 -31.445  1.00  0.00     0.191 HD
ENDROOT
BRANCH   1   3
HETATM    3  C   UNL     1      -3.788   3.258 -31.856  1.00  0.00     0.140 A 
HETATM    4  N   UNL     1      -4.898   3.026 -31.099  1.00  0.00    -0.261 N 
HETATM    5  N   UNL     1      -5.529   1.879 -31.382  1.00  0.00    -0.172 NA
HETATM    6  H   UNL     1      -5.281   3.607 -30.365  1.00  0.00     0.191 HD
HETATM    7  C   UNL     1      -4.806   1.327 -32.374  1.00  0.00     0.090 A 
HETATM    8  C   UNL     1      -3.694   2.165 -32.690  1.00  0.00     0.085 A 
BRANCH   7   9
HETATM    9  C   UNL     1      -5.214   0.052 -32.989  1.00  0.00    -0.006 A 
HETATM   10  C   UNL     1      -6.546  -0.139 -33.398  1.00  0.00     0.014 A 
HETATM   11  C   UNL     1      -6.949  -1.316 -34.039  1.00  0.00     0.007 A 
HETATM   12  C   UNL     1      -6.028  -2.337 -34.285  1.00  0.00    -0.062 A 
HETATM   13  C   UNL     1      -6.437  -3.581 -35.018  1.00  0.00     0.048 C 
HETATM   14  C   UNL     1      -4.705  -2.167 -33.861  1.00  0.00     0.007 A 
HETATM   15  C   UNL     1      -4.302  -0.987 -33.219  1.00  0.00     0.014 A 
ENDBRANCH   7   9
ENDBRANCH   1   3
BRANCH   1  16
HETATM   16  N   UNL     1      -1.728   4.294 -31.336  1.00  0.00    -0.166 NA
HETATM   17  C   UNL     1      -1.163   5.322 -30.765  1.00  0.00     0.169 C 
HETATM   18  C   UNL     1       0.263   5.212 -30.257  1.00  0.00     0.278 C 
HETATM   19  C   UNL     1      -1.837   6.638 -30.597  1.00  0.00     0.067 C 
HETATM   20  O   UNL     1       0.972   4.280 -30.624  1.00  0.00    -0.265 OA
HETATM   21  N   UNL     1       0.799   6.195 -29.446  1.00  0.00    -0.319 N 
HETATM   22  C   UNL     1       0.262   7.344 -28.808  1.00  0.00     0.064 A 
HETATM   23  H   UNL     1       1.783   6.012 -29.279  1.00  0.00     0.169 HD
HETATM   24  C   UNL     1      -1.106   7.706 -28.763  1.00  0.00     0.084 A 
HETATM   25  C   UNL     1       1.196   8.168 -28.159  1.00  0.00     0.032 A 
HETATM   26  C   UNL     1      -1.497   8.846 -28.051  1.00  0.00     0.034 A 
HETATM   27  N   UNL     1      -2.115   6.938 -29.370  1.00  0.00    -0.249 NA
HETATM   28  C   UNL     1      -0.554   9.652 -27.415  1.00  0.00     0.002 A 
HETATM   29  C   UNL     1       0.794   9.318 -27.477  1.00  0.00     0.002 A 
HETATM   30  C   UNL     1      -1.673   7.628 -31.711  1.00  0.00     0.073 C 
ENDBRANCH   1  16
TORSDOF 3
ENDMDL
MODEL 3
REMARK VINA RESULT:      -9.4      4.938      8.086
REMARK  3 active torsions:
REMARK  status: ('A' for Active; 'I' for Inactive)
REMARK    1  A    between atoms: C_5  and  C_6 
REMARK    2  A    between atoms: C_10  and  N_11 
REMARK    3  A    between atoms: N_11  and  N_12 
ROOT
HETATM    1  N   UNL     1      -6.113   4.172 -32.852  1.00  0.00    -0.261 N 
HETATM    2  H   UNL     1      -6.464   4.749 -33.621  1.00  0.00     0.191 HD
ENDROOT
BRANCH   1   3
HETATM    3  C   UNL     1      -6.303   2.829 -32.923  1.00  0.00     0.140 A 
HETATM    4  N   UNL     1      -7.286   2.210 -32.210  1.00  0.00    -0.261 N 
HETATM    5  N   UNL     1      -7.352   0.885 -32.395  1.00  0.00    -0.172 NA
HETATM    6  H   UNL     1      -7.948   2.631 -31.571  1.00  0.00     0.191 HD
HETATM    7  C   UNL     1      -6.368   0.615 -33.274  1.00  0.00     0.090 A 
HETATM    8  C   UNL     1      -5.679   1.817 -33.619  1.00  0.00     0.085 A 
BRANCH   7   9
HETATM    9  C   UNL     1      -6.145  -0.758 -33.760  1.00  0.00    -0.006 A 
HETATM   10  C   UNL     1      -4.854  -1.315 -33.732  1.00  0.00     0.014 A 
HETATM   11  C   UNL     1      -4.622  -2.636 -34.130  1.00  0.00     0.007 A 
HETATM   12  C   UNL     1      -5.678  -3.436 -34.572  1.00  0.00    -0.062 A 
HETATM   13  C   UNL     1      -5.450  -4.870 -34.952  1.00  0.00     0.048 C 
HETATM   14  C   UNL     1      -6.964  -2.885 -34.625  1.00  0.00     0.007 A 
HETATM   15  C   UNL     1      -7.195  -1.560 -34.226  1.00  0.00     0.014 A 
ENDBRANCH   7   9
ENDBRANCH   1   3
BRANCH   1  16
HETATM   16  N   UNL     1      -5.988   4.789 -31.638  1.00  0.00    -0.166 NA
HETATM   17  C   UNL     1      -4.793   5.081 -31.203  1.00  0.00     0.169 C 
HETATM   18  C   UNL     1      -4.633   5.861 -29.911  1.00  0.00     0.278 C 
HETATM   19  C   UNL     1      -3.545   4.666 -31.898  1.00  0.00     0.067 C 
HETATM   20  O   UNL     1      -5.582   5.970 -29.141  1.00  0.00    -0.265 OA
HETATM   21  N   UNL     1      -3.404   6.383 -29.552  1.00  0.00    -0.319 N 
HETATM   22  C   UNL     1      -2.150   6.485 -30.209  1.00  0.00     0.064 A 
HETATM   23  H   UNL     1      -3.454   6.788 -28.623  1.00  0.00     0.169 HD
HETATM   24  C   UNL     1      -1.888   6.141 -31.558  1.00  0.00     0.084 A 
HETATM   25  C   UNL     1      -1.096   6.987 -29.428  1.00  0.00     0.032 A 
HETATM   26  C   UNL     1      -0.607   6.342 -32.087  1.00  0.00     0.034 A 
HETATM   27  N   UNL     1      -2.879   5.644 -32.421  1.00  0.00    -0.249 NA
HETATM   28  C   UNL     1       0.426   6.840 -31.295  1.00  0.00     0.002 A 
HETATM   29  C   UNL     1       0.184   7.155 -29.962  1.00  0.00     0.002 A 
HETATM   30  C   UNL     1      -2.964   3.339 -31.510  1.00  0.00     0.073 C 
ENDBRANCH   1  16
TORSDOF 3
ENDMDL
MODEL 4
REMARK VINA RESULT:      -9.4      5.003      8.276
REMARK  3 active torsions:
REMARK  status: ('A' for Active; 'I' for Inactive)
REMARK    1  A    between atoms: C_5  and  C_6 
REMARK    2  A    between atoms: C_10  and  N_11 
REMARK    3  A    between atoms: N_11  and  N_12 
ROOT
HETATM    1  N   UNL     1      -5.994   3.726 -32.653  1.00  0.00    -0.261 N 
HETATM    2  H   UNL     1      -6.265   4.199 -31.787  1.00  0.00     0.191 HD
ENDROOT
BRANCH   1   3
HETATM    3  C   UNL     1      -5.930   2.369 -32.646  1.00  0.00     0.140 A 
HETATM    4  N   UNL     1      -5.882   1.664 -31.481  1.00  0.00    -0.261 N 
HETATM    5  N   UNL     1      -5.832   0.335 -31.640  1.00  0.00    -0.172 NA
HETATM    6  H   UNL     1      -5.873   2.027 -30.536  1.00  0.00     0.191 HD
HETATM    7  C   UNL     1      -5.852   0.151 -32.974  1.00  0.00     0.090 A 
HETATM    8  C   UNL     1      -5.902   1.414 -33.639  1.00  0.00     0.085 A 
BRANCH   7   9
HETATM    9  C   UNL     1      -5.847  -1.205 -33.550  1.00  0.00    -0.006 A 
HETATM   10  C   UNL     1      -7.050  -1.792 -33.981  1.00  0.00     0.014 A 
HETATM   11  C   UNL     1      -7.068  -3.052 -34.588  1.00  0.00     0.007 A 
HETATM   12  C   UNL     1      -5.881  -3.763 -34.775  1.00  0.00    -0.062 A 
HETATM   13  C   UNL     1      -5.881  -5.093 -35.471  1.00  0.00     0.048 C 
HETATM   14  C   UNL     1      -4.680  -3.199 -34.329  1.00  0.00     0.007 A 
HETATM   15  C   UNL     1      -4.663  -1.934 -33.721  1.00  0.00     0.014 A 
ENDBRANCH   7   9
ENDBRANCH   1   3
BRANCH   1  16
HETATM   16  N   UNL     1      -5.230   4.448 -33.527  1.00  0.00    -0.166 NA
HETATM   17  C   UNL     1      -4.191   5.092 -33.068  1.00  0.00     0.169 C 
HETATM   18  C   UNL     1      -3.266   5.811 -34.033  1.00  0.00     0.278 C 
HETATM   19  C   UNL     1      -3.862   5.189 -31.621  1.00  0.00     0.067 C 
HETATM   20  O   UNL     1      -3.632   6.029 -35.184  1.00  0.00    -0.265 OA
HETATM   21  N   UNL     1      -2.044   6.296 -33.606  1.00  0.00    -0.319 N 
HETATM   22  C   UNL     1      -1.308   6.179 -32.397  1.00  0.00     0.064 A 
HETATM   23  H   UNL     1      -1.600   6.827 -34.348  1.00  0.00     0.169 HD
HETATM   24  C   UNL     1      -1.648   5.361 -31.294  1.00  0.00     0.084 A 
HETATM   25  C   UNL     1      -0.134   6.948 -32.326  1.00  0.00     0.032 A 
HETATM   26  C   UNL     1      -0.797   5.308 -30.182  1.00  0.00     0.034 A 
HETATM   27  N   UNL     1      -2.794   4.546 -31.276  1.00  0.00    -0.249 NA
HETATM   28  C   UNL     1       0.362   6.080 -30.131  1.00  0.00     0.002 A 
HETATM   29  C   UNL     1       0.689   6.907 -31.199  1.00  0.00     0.002 A 
HETATM   30  C   UNL     1      -4.453   6.344 -30.870  1.00  0.00     0.073 C 
ENDBRANCH   1  16
TORSDOF 3
ENDMDL
MODEL 5
REMARK VINA RESULT:      -9.3      2.364      3.809
REMARK  3 active torsions:
REMARK  status: ('A' for Active; 'I' for Inactive)
REMARK    1  A    between atoms: C_5  and  C_6 
REMARK    2  A    between atoms: C_10  and  N_11 
REMARK    3  A    between atoms: N_11  and  N_12 
ROOT
HETATM    1  N   UNL     1      -9.738   1.778 -33.099  1.00  0.00    -0.261 N 
HETATM    2  H   UNL     1      -9.345   2.614 -32.657  1.00  0.00     0.191 HD
ENDROOT
BRANCH   1   3
HETATM    3  C   UNL     1      -8.877   0.880 -33.643  1.00  0.00     0.140 A 
HETATM    4  N   UNL     1      -8.676   0.810 -34.990  1.00  0.00    -0.261 N 
HETATM    5  N   UNL     1      -7.790  -0.120 -35.369  1.00  0.00    -0.172 NA
HETATM    6  H   UNL     1      -9.117   1.365 -35.712  1.00  0.00     0.191 HD
HETATM    7  C   UNL     1      -7.383  -0.691 -34.220  1.00  0.00     0.090 A 
HETATM    8  C   UNL     1      -8.057  -0.092 -33.112  1.00  0.00     0.085 A 
BRANCH   7   9
HETATM    9  C   UNL     1      -6.362  -1.753 -34.224  1.00  0.00    -0.006 A 
HETATM   10  C   UNL     1      -5.100  -1.521 -33.648  1.00  0.00     0.014 A 
HETATM   11  C   UNL     1      -4.133  -2.530 -33.583  1.00  0.00     0.007 A 
HETATM   12  C   UNL     1      -4.401  -3.800 -34.099  1.00  0.00    -0.062 A 
HETATM   13  C   UNL     1      -3.391  -4.905 -33.988  1.00  0.00     0.048 C 
HETATM   14  C   UNL     1      -5.645  -4.035 -34.696  1.00  0.00     0.007 A 
HETATM   15  C   UNL     1      -6.614  -3.023 -34.760  1.00  0.00     0.014 A 
ENDBRANCH   7   9
ENDBRANCH   1   3
BRANCH   1  16
HETATM   16  N   UNL     1     -11.015   1.885 -33.574  1.00  0.00    -0.166 NA
HETATM   17  C   UNL     1     -11.453   3.059 -33.939  1.00  0.00     0.169 C 
HETATM   18  C   UNL     1     -12.827   3.187 -34.570  1.00  0.00     0.278 C 
HETATM   19  C   UNL     1     -10.681   4.316 -33.748  1.00  0.00     0.067 C 
HETATM   20  O   UNL     1     -13.629   2.262 -34.483  1.00  0.00    -0.265 OA
HETATM   21  N   UNL     1     -13.217   4.367 -35.175  1.00  0.00    -0.319 N 
HETATM   22  C   UNL     1     -12.546   5.578 -35.489  1.00  0.00     0.064 A 
HETATM   23  H   UNL     1     -14.190   4.311 -35.457  1.00  0.00     0.169 HD
HETATM   24  C   UNL     1     -11.160   5.823 -35.341  1.00  0.00     0.084 A 
HETATM   25  C   UNL     1     -13.357   6.604 -36.005  1.00  0.00     0.032 A 
HETATM   26  C   UNL     1     -10.626   7.055 -35.742  1.00  0.00     0.034 A 
HETATM   27  N   UNL     1     -10.266   4.856 -34.848  1.00  0.00    -0.249 NA
HETATM   28  C   UNL     1     -11.449   8.059 -36.249  1.00  0.00     0.002 A 
HETATM   29  C   UNL     1     -12.815   7.837 -36.373  1.00  0.00     0.002 A 
HETATM   30  C   UNL     1     -10.887   5.046 -32.454  1.00  0.00     0.073 C 
ENDBRANCH   1  16
TORSDOF 3
ENDMDL
MODEL 6
REMARK VINA RESULT:      -9.3      5.973      8.386
REMARK  3 active torsions:
REMARK  status: ('A' for Active; 'I' for Inactive)
REMARK    1  A    between atoms: C_5  and  C_6 
REMARK    2  A    between atoms: C_10  and  N_11 
REMARK    3  A    between atoms: N_11  and  N_12 
ROOT
HETATM    1  N   UNL     1      -3.552   2.893 -30.982  1.00  0.00    -0.261 N 
HETATM    2  H   UNL     1      -3.902   3.089 -30.040  1.00  0.00     0.191 HD
ENDROOT
BRANCH   1   3
HETATM    3  C   UNL     1      -3.729   1.642 -31.481  1.00  0.00     0.140 A 
HETATM    4  N   UNL     1      -3.013   0.580 -31.013  1.00  0.00    -0.261 N 
HETATM    5  N   UNL     1      -3.309  -0.587 -31.599  1.00  0.00    -0.172 NA
HETATM    6  H   UNL     1      -2.298   0.581 -30.297  1.00  0.00     0.191 HD
HETATM    7  C   UNL     1      -4.268  -0.285 -32.494  1.00  0.00     0.090 A 
HETATM    8  C   UNL     1      -4.549   1.114 -32.454  1.00  0.00     0.085 A 
BRANCH   7   9
HETATM    9  C   UNL     1      -4.887  -1.336 -33.322  1.00  0.00    -0.006 A 
HETATM   10  C   UNL     1      -4.144  -2.470 -33.693  1.00  0.00     0.014 A 
HETATM   11  C   UNL     1      -4.722  -3.511 -34.427  1.00  0.00     0.007 A 
HETATM   12  C   UNL     1      -6.062  -3.443 -34.815  1.00  0.00    -0.062 A 
HETATM   13  C   UNL     1      -6.707  -4.576 -35.557  1.00  0.00     0.048 C 
HETATM   14  C   UNL     1      -6.806  -2.307 -34.470  1.00  0.00     0.007 A 
HETATM   15  C   UNL     1      -6.224  -1.264 -33.734  1.00  0.00     0.014 A 
ENDBRANCH   7   9
ENDBRANCH   1   3
BRANCH   1  16
HETATM   16  N   UNL     1      -2.517   3.671 -31.420  1.00  0.00    -0.166 NA
HETATM   17  C   UNL     1      -2.660   4.968 -31.412  1.00  0.00     0.169 C 
HETATM   18  C   UNL     1      -1.489   5.855 -31.790  1.00  0.00     0.278 C 
HETATM   19  C   UNL     1      -3.937   5.649 -31.071  1.00  0.00     0.067 C 
HETATM   20  O   UNL     1      -0.517   5.374 -32.365  1.00  0.00    -0.265 OA
HETATM   21  N   UNL     1      -1.538   7.219 -31.566  1.00  0.00    -0.319 N 
HETATM   22  C   UNL     1      -2.454   8.072 -30.898  1.00  0.00     0.064 A 
HETATM   23  H   UNL     1      -0.719   7.668 -31.962  1.00  0.00     0.169 HD
HETATM   24  C   UNL     1      -3.573   7.656 -30.136  1.00  0.00     0.084 A 
HETATM   25  C   UNL     1      -2.193   9.448 -31.009  1.00  0.00     0.032 A 
HETATM   26  C   UNL     1      -4.365   8.613 -29.488  1.00  0.00     0.034 A 
HETATM   27  N   UNL     1      -3.909   6.303 -29.956  1.00  0.00    -0.249 NA
HETATM   28  C   UNL     1      -4.089   9.974 -29.613  1.00  0.00     0.002 A 
HETATM   29  C   UNL     1      -3.008  10.392 -30.380  1.00  0.00     0.002 A 
HETATM   30  C   UNL     1      -4.883   5.917 -32.204  1.00  0.00     0.073 C 
ENDBRANCH   1  16
TORSDOF 3
ENDMDL
MODEL 7
REMARK VINA RESULT:      -9.0      7.431      9.840
REMARK  3 active torsions:
REMARK  status: ('A' for Active; 'I' for Inactive)
REMARK    1  A    between atoms: C_5  and  C_6 
REMARK    2  A    between atoms: C_10  and  N_11 
REMARK    3  A    between atoms: N_11  and  N_12 
ROOT
HETATM    1  N   UNL     1      -2.381   4.377 -31.957  1.00  0.00    -0.261 N 
HETATM    2  H   UNL     1      -2.277   4.620 -32.946  1.00  0.00     0.191 HD
ENDROOT
BRANCH   1   3
HETATM    3  C   UNL     1      -1.978   5.284 -31.031  1.00  0.00     0.140 A 
HETATM    4  N   UNL     1      -2.764   6.340 -30.677  1.00  0.00    -0.261 N 
HETATM    5  N   UNL     1      -2.230   7.139 -29.744  1.00  0.00    -0.172 NA
HETATM    6  H   UNL     1      -3.678   6.581 -31.038  1.00  0.00     0.191 HD
HETATM    7  C   UNL     1      -1.036   6.584 -29.464  1.00  0.00     0.090 A 
HETATM    8  C   UNL     1      -0.839   5.420 -30.266  1.00  0.00     0.085 A 
BRANCH   7   9
HETATM    9  C   UNL     1      -0.154   7.168 -28.438  1.00  0.00    -0.006 A 
HETATM   10  C   UNL     1      -0.220   6.713 -27.109  1.00  0.00     0.014 A 
HETATM   11  C   UNL     1       0.646   7.204 -26.127  1.00  0.00     0.007 A 
HETATM   12  C   UNL     1       1.602   8.171 -26.448  1.00  0.00    -0.062 A 
HETATM   13  C   UNL     1       2.571   8.668 -25.415  1.00  0.00     0.048 C 
HETATM   14  C   UNL     1       1.662   8.649 -27.763  1.00  0.00     0.007 A 
HETATM   15  C   UNL     1       0.792   8.154 -28.746  1.00  0.00     0.014 A 
ENDBRANCH   7   9
ENDBRANCH   1   3
BRANCH   1  16
HETATM   16  N   UNL     1      -2.394   3.043 -31.657  1.00  0.00    -0.166 NA
HETATM   17  C   UNL     1      -3.498   2.371 -31.836  1.00  0.00     0.169 C 
HETATM   18  C   UNL     1      -3.508   0.870 -31.614  1.00  0.00     0.278 C 
HETATM   19  C   UNL     1      -4.786   3.001 -32.230  1.00  0.00     0.067 C 
HETATM   20  O   UNL     1      -2.586   0.335 -31.007  1.00  0.00    -0.265 OA
HETATM   21  N   UNL     1      -4.587   0.105 -32.019  1.00  0.00    -0.319 N 
HETATM   22  C   UNL     1      -5.759   0.381 -32.772  1.00  0.00     0.064 A 
HETATM   23  H   UNL     1      -4.472  -0.854 -31.711  1.00  0.00     0.169 HD
HETATM   24  C   UNL     1      -6.052   1.596 -33.438  1.00  0.00     0.084 A 
HETATM   25  C   UNL     1      -6.687  -0.670 -32.855  1.00  0.00     0.032 A 
HETATM   26  C   UNL     1      -7.230   1.708 -34.188  1.00  0.00     0.034 A 
HETATM   27  N   UNL     1      -5.181   2.699 -33.425  1.00  0.00    -0.249 NA
HETATM   28  C   UNL     1      -8.138   0.653 -34.256  1.00  0.00     0.002 A 
HETATM   29  C   UNL     1      -7.871  -0.534 -33.582  1.00  0.00     0.002 A 
HETATM   30  C   UNL     1      -5.679   3.466 -31.119  1.00  0.00     0.073 C 
ENDBRANCH   1  16
TORSDOF 3
ENDMDL
MODEL 8
REMARK VINA RESULT:      -8.9      7.218     10.351
REMARK  3 active torsions:
REMARK  status: ('A' for Active; 'I' for Inactive)
REMARK    1  A    between atoms: C_5  and  C_6 
REMARK    2  A    between atoms: C_10  and  N_11 
REMARK    3  A    between atoms: N_11  and  N_12 
ROOT
HETATM    1  N   UNL     1      -2.565   4.604 -32.574  1.00  0.00    -0.261 N 
HETATM    2  H   UNL     1      -2.823   5.539 -32.900  1.00  0.00     0.191 HD
ENDROOT
BRANCH   1   3
HETATM    3  C   UNL     1      -3.563   3.750 -32.230  1.00  0.00     0.140 A 
HETATM    4  N   UNL     1      -3.628   3.192 -30.988  1.00  0.00    -0.261 N 
HETATM    5  N   UNL     1      -4.677   2.380 -30.801  1.00  0.00    -0.172 NA
HETATM    6  H   UNL     1      -2.984   3.317 -30.217  1.00  0.00     0.191 HD
HETATM    7  C   UNL     1      -5.340   2.405 -31.972  1.00  0.00     0.090 A 
HETATM    8  C   UNL     1      -4.659   3.249 -32.900  1.00  0.00     0.085 A 
BRANCH   7   9
HETATM    9  C   UNL     1      -6.593   1.649 -32.147  1.00  0.00    -0.006 A 
HETATM   10  C   UNL     1      -7.730   1.985 -31.392  1.00  0.00     0.014 A 
HETATM   11  C   UNL     1      -8.950   1.326 -31.581  1.00  0.00     0.007 A 
HETATM   12  C   UNL     1      -9.063   0.308 -32.529  1.00  0.00    -0.062 A 
HETATM   13  C   UNL     1     -10.379  -0.371 -32.776  1.00  0.00     0.048 C 
HETATM   14  C   UNL     1      -7.931  -0.051 -33.271  1.00  0.00     0.007 A 
HETATM   15  C   UNL     1      -6.709   0.611 -33.081  1.00  0.00     0.014 A 
ENDBRANCH   7   9
ENDBRANCH   1   3
BRANCH   1  16
HETATM   16  N   UNL     1      -1.324   4.476 -32.014  1.00  0.00    -0.166 NA
HETATM   17  C   UNL     1      -0.863   5.452 -31.281  1.00  0.00     0.169 C 
HETATM   18  C   UNL     1       0.463   5.290 -30.561  1.00  0.00     0.278 C 
HETATM   19  C   UNL     1      -1.559   6.757 -31.123  1.00  0.00     0.067 C 
HETATM   20  O   UNL     1       1.226   4.383 -30.880  1.00  0.00    -0.265 OA
HETATM   21  N   UNL     1       0.859   6.203 -29.601  1.00  0.00    -0.319 N 
HETATM   22  C   UNL     1       0.223   7.304 -28.971  1.00  0.00     0.064 A 
HETATM   23  H   UNL     1       1.804   5.999 -29.293  1.00  0.00     0.169 HD
HETATM   24  C   UNL     1      -1.136   7.674 -29.119  1.00  0.00     0.084 A 
HETATM   25  C   UNL     1       1.037   8.068 -28.119  1.00  0.00     0.032 A 
HETATM   26  C   UNL     1      -1.641   8.760 -28.392  1.00  0.00     0.034 A 
HETATM   27  N   UNL     1      -2.032   6.965 -29.937  1.00  0.00    -0.249 NA
HETATM   28  C   UNL     1      -0.815   9.507 -27.554  1.00  0.00     0.002 A 
HETATM   29  C   UNL     1       0.526   9.166 -27.423  1.00  0.00     0.002 A 
HETATM   30  C   UNL     1      -1.221   7.828 -32.116  1.00  0.00     0.073 C 
ENDBRANCH   1  16
TORSDOF 3
ENDMDL
MODEL 9
REMARK VINA RESULT:      -8.6      1.911      3.061
REMARK  3 active torsions:
REMARK  status: ('A' for Active; 'I' for Inactive)
REMARK    1  A    between atoms: C_5  and  C_6 
REMARK    2  A    between atoms: C_10  and  N_11 
REMARK    3  A    between atoms: N_11  and  N_12 
ROOT
HETATM    1  N   UNL     1      -9.258   2.382 -34.750  1.00  0.00    -0.261 N 
HETATM    2  H   UNL     1      -9.167   3.009 -35.554  1.00  0.00     0.191 HD
ENDROOT
BRANCH   1   3
HETATM    3  C   UNL     1      -8.196   1.599 -34.427  1.00  0.00     0.140 A 
HETATM    4  N   UNL     1      -7.158   2.077 -33.683  1.00  0.00    -0.261 N 
HETATM    5  N   UNL     1      -6.193   1.181 -33.441  1.00  0.00    -0.172 NA
HETATM    6  H   UNL     1      -7.040   3.010 -33.310  1.00  0.00     0.191 HD
HETATM    7  C   UNL     1      -6.612   0.056 -34.050  1.00  0.00     0.090 A 
HETATM    8  C   UNL     1      -7.867   0.288 -34.692  1.00  0.00     0.085 A 
BRANCH   7   9
HETATM    9  C   UNL     1      -5.821  -1.185 -33.975  1.00  0.00    -0.006 A 
HETATM   10  C   UNL     1      -6.123  -2.266 -34.821  1.00  0.00     0.014 A 
HETATM   11  C   UNL     1      -5.351  -3.433 -34.814  1.00  0.00     0.007 A 
HETATM   12  C   UNL     1      -4.256  -3.551 -33.956  1.00  0.00    -0.062 A 
HETATM   13  C   UNL     1      -3.390  -4.777 -33.977  1.00  0.00     0.048 C 
HETATM   14  C   UNL     1      -3.959  -2.489 -33.092  1.00  0.00     0.007 A 
HETATM   15  C   UNL     1      -4.734  -1.320 -33.100  1.00  0.00     0.014 A 
ENDBRANCH   7   9
ENDBRANCH   1   3
BRANCH   1  16
HETATM   16  N   UNL     1     -10.527   1.993 -34.423  1.00  0.00    -0.166 NA
HETATM   17  C   UNL     1     -11.125   2.578 -33.422  1.00  0.00     0.169 C 
HETATM   18  C   UNL     1     -12.570   2.240 -33.108  1.00  0.00     0.278 C 
HETATM   19  C   UNL     1     -10.455   3.562 -32.530  1.00  0.00     0.067 C 
HETATM   20  O   UNL     1     -13.084   1.238 -33.595  1.00  0.00    -0.265 OA
HETATM   21  N   UNL     1     -13.294   3.007 -32.213  1.00  0.00    -0.319 N 
HETATM   22  C   UNL     1     -13.037   4.225 -31.530  1.00  0.00     0.064 A 
HETATM   23  H   UNL     1     -14.204   2.589 -32.050  1.00  0.00     0.169 HD
HETATM   24  C   UNL     1     -11.914   5.066 -31.725  1.00  0.00     0.084 A 
HETATM   25  C   UNL     1     -14.009   4.610 -30.592  1.00  0.00     0.032 A 
HETATM   26  C   UNL     1     -11.817   6.268 -31.013  1.00  0.00     0.034 A 
HETATM   27  N   UNL     1     -10.897   4.773 -32.650  1.00  0.00    -0.249 NA
HETATM   28  C   UNL     1     -12.791   6.631 -30.085  1.00  0.00     0.002 A 
HETATM   29  C   UNL     1     -13.884   5.798 -29.868  1.00  0.00     0.002 A 
HETATM   30  C   UNL     1      -9.759   3.015 -31.320  1.00  0.00     0.073 C 
ENDBRANCH   1  16
TORSDOF 3
ENDMDL
MODEL 10
REMARK VINA RESULT:      -8.6      1.977      2.833
REMARK  3 active torsions:
REMARK  status: ('A' for Active; 'I' for Inactive)
REMARK    1  A    between atoms: C_5  and  C_6 
REMARK    2  A    between atoms: C_10  and  N_11 
REMARK    3  A    between atoms: N_11  and  N_12 
ROOT
HETATM    1  N   UNL     1      -5.748   3.890 -31.988  1.00  0.00    -0.261 N 
HETATM    2  H   UNL     1      -5.668   4.511 -32.798  1.00  0.00     0.191 HD
ENDROOT
BRANCH   1   3
HETATM    3  C   UNL     1      -5.598   2.556 -32.190  1.00  0.00     0.140 A 
HETATM    4  N   UNL     1      -5.017   1.754 -31.252  1.00  0.00    -0.261 N 
HETATM    5  N   UNL     1      -4.952   0.461 -31.595  1.00  0.00    -0.172 NA
HETATM    6  H   UNL     1      -4.636   2.024 -30.355  1.00  0.00     0.191 HD
HETATM    7  C   UNL     1      -5.519   0.402 -32.814  1.00  0.00     0.090 A 
HETATM    8  C   UNL     1      -5.928   1.707 -33.225  1.00  0.00     0.085 A 
BRANCH   7   9
HETATM    9  C   UNL     1      -5.668  -0.884 -33.518  1.00  0.00    -0.006 A 
HETATM   10  C   UNL     1      -4.542  -1.688 -33.762  1.00  0.00     0.014 A 
HETATM   11  C   UNL     1      -4.661  -2.941 -34.373  1.00  0.00     0.007 A 
HETATM   12  C   UNL     1      -5.913  -3.422 -34.762  1.00  0.00    -0.062 A 
HETATM   13  C   UNL     1      -6.059  -4.786 -35.371  1.00  0.00     0.048 C 
HETATM   14  C   UNL     1      -7.040  -2.619 -34.545  1.00  0.00     0.007 A 
HETATM   15  C   UNL     1      -6.918  -1.363 -33.931  1.00  0.00     0.014 A 
ENDBRANCH   7   9
ENDBRANCH   1   3
BRANCH   1  16
HETATM   16  N   UNL     1      -6.498   4.350 -30.942  1.00  0.00    -0.166 NA
HETATM   17  C   UNL     1      -7.787   4.477 -31.101  1.00  0.00     0.169 C 
HETATM   18  C   UNL     1      -8.654   4.881 -29.923  1.00  0.00     0.278 C 
HETATM   19  C   UNL     1      -8.475   4.269 -32.403  1.00  0.00     0.067 C 
HETATM   20  O   UNL     1      -8.136   5.357 -28.917  1.00  0.00    -0.265 OA
HETATM   21  N   UNL     1     -10.032   4.795 -30.000  1.00  0.00    -0.319 N 
HETATM   22  C   UNL     1     -10.930   4.260 -30.961  1.00  0.00     0.064 A 
HETATM   23  H   UNL     1     -10.454   5.191 -29.168  1.00  0.00     0.169 HD
HETATM   24  C   UNL     1     -10.570   3.518 -32.112  1.00  0.00     0.084 A 
HETATM   25  C   UNL     1     -12.293   4.492 -30.711  1.00  0.00     0.032 A 
HETATM   26  C   UNL     1     -11.572   3.007 -32.948  1.00  0.00     0.034 A 
HETATM   27  N   UNL     1      -9.236   3.223 -32.440  1.00  0.00    -0.249 NA
HETATM   28  C   UNL     1     -12.918   3.251 -32.683  1.00  0.00     0.002 A 
HETATM   29  C   UNL     1     -13.279   4.000 -31.569  1.00  0.00     0.002 A 
HETATM   30  C   UNL     1      -8.616   5.468 -33.292  1.00  0.00     0.073 C 
ENDBRANCH   1  16
TORSDOF 3
ENDMDL
