MODEL 1
REMARK VINA RESULT:      -7.6      0.000      0.000
REMARK  9 active torsions:
REMARK  status: ('A' for Active; 'I' for Inactive)
REMARK    1  A    between atoms: O_2  and  C_3 
REMARK    2  A    between atoms: C_6  and  C_7 
REMARK    3  A    between atoms: C_7  and  N_8 
REMARK       I    between atoms: N_8  and  C_9 
REMARK    4  A    between atoms: C_9  and  C_10 
REMARK    5  A    between atoms: C_10  and  S_11 
REMARK    6  A    between atoms: S_11  and  C_12 
REMARK    7  A    between atoms: N_13  and  C_14 
REMARK    8  A    between atoms: C_14  and  C_15 
REMARK    9  A    between atoms: C_21  and  C_22 
ROOT
HETATM    1  C   UNL     1      -7.509   0.392 -32.472  1.00  0.00     0.192 A 
HETATM    2  N   UNL     1      -6.310   0.048 -33.038  1.00  0.00    -0.307 N 
HETATM    3  C   UNL     1      -5.361   0.382 -32.101  1.00  0.00     0.135 A 
HETATM    4  N   UNL     1      -5.965   0.818 -31.014  1.00  0.00    -0.134 NA
HETATM    5  N   UNL     1      -7.317   0.822 -31.249  1.00  0.00    -0.123 NA
ENDROOT
BRANCH   1   6
HETATM    6  S   UNL     1      -9.024   0.315 -33.293  1.00  0.00    -0.081 SA
BRANCH   6   7
HETATM    7  C   UNL     1      -9.228   2.010 -33.895  1.00  0.00     0.185 C 
BRANCH   7   8
HETATM    8  C   UNL     1      -8.932   3.134 -32.915  1.00  0.00     0.227 C 
HETATM    9  N   UNL     1      -7.784   3.865 -32.968  1.00  0.00    -0.356 N 
HETATM   10  H   UNL     1      -7.774   4.607 -32.277  1.00  0.00     0.162 HD
HETATM   11  O   UNL     1      -9.793   3.505 -32.111  1.00  0.00    -0.273 OA
BRANCH   9  12
HETATM   12  C   UNL     1      -6.641   3.731 -33.840  1.00  0.00     0.161 C 
BRANCH  12  13
HETATM   13  C   UNL     1      -5.336   3.915 -33.107  1.00  0.00    -0.040 A 
HETATM   14  C   UNL     1      -5.310   4.057 -31.711  1.00  0.00     0.011 A 
HETATM   15  C   UNL     1      -4.096   4.183 -31.025  1.00  0.00     0.037 A 
HETATM   16  C   UNL     1      -2.890   4.152 -31.722  1.00  0.00     0.068 A 
HETATM   17  C   UNL     1      -2.912   4.006 -33.111  1.00  0.00     0.037 A 
HETATM   18  C   UNL     1      -4.121   3.889 -33.801  1.00  0.00     0.011 A 
BRANCH  16  19
HETATM   19  O   UNL     1      -1.640   4.247 -31.176  1.00  0.00    -0.356 OA
HETATM   20  C   UNL     1      -0.768   5.223 -31.732  1.00  0.00     0.210 C 
ENDBRANCH  16  19
ENDBRANCH  12  13
ENDBRANCH   9  12
ENDBRANCH   7   8
ENDBRANCH   6   7
ENDBRANCH   1   6
BRANCH   2  21
HETATM   21  C   UNL     1      -6.058  -0.455 -34.376  1.00  0.00     0.171 C 
BRANCH  21  22
HETATM   22  C   UNL     1      -5.898  -1.957 -34.466  1.00  0.00    -0.040 A 
HETATM   23  C   UNL     1      -6.972  -2.831 -34.689  1.00  0.00     0.009 A 
HETATM   24  C   UNL     1      -6.763  -4.210 -34.769  1.00  0.00     0.001 A 
HETATM   25  C   UNL     1      -5.476  -4.732 -34.658  1.00  0.00     0.000 A 
HETATM   26  C   UNL     1      -4.395  -3.875 -34.471  1.00  0.00     0.001 A 
HETATM   27  C   UNL     1      -4.603  -2.498 -34.379  1.00  0.00     0.009 A 
ENDBRANCH  21  22
ENDBRANCH   2  21
BRANCH   3  28
HETATM   28  C   UNL     1      -3.850   0.279 -32.249  1.00  0.00     0.057 A 
HETATM   29  C   UNL     1      -3.001   0.456 -31.007  1.00  0.00     0.013 A 
HETATM   30  C   UNL     1      -3.154  -0.901 -31.602  1.00  0.00     0.013 A 
ENDBRANCH   3  28
TORSDOF 9
ENDMDL
MODEL 2
REMARK VINA RESULT:      -7.6      2.678      6.199
REMARK  9 active torsions:
REMARK  status: ('A' for Active; 'I' for Inactive)
REMARK    1  A    between atoms: O_2  and  C_3 
REMARK    2  A    between atoms: C_6  and  C_7 
REMARK    3  A    between atoms: C_7  and  N_8 
REMARK       I    between atoms: N_8  and  C_9 
REMARK    4  A    between atoms: C_9  and  C_10 
REMARK    5  A    between atoms: C_10  and  S_11 
REMARK    6  A    between atoms: S_11  and  C_12 
REMARK    7  A    between atoms: N_13  and  C_14 
REMARK    8  A    between atoms: C_14  and  C_15 
REMARK    9  A    between atoms: C_21  and  C_22 
ROOT
HETATM    1  C   UNL     1      -5.277   4.885 -33.774  1.00  0.00     0.192 A 
HETATM    2  N   UNL     1      -4.239   4.920 -32.882  1.00  0.00    -0.307 N 
HETATM    3  C   UNL     1      -3.133   5.245 -33.632  1.00  0.00     0.135 A 
HETATM    4  N   UNL     1      -3.506   5.469 -34.875  1.00  0.00    -0.134 NA
HETATM    5  N   UNL     1      -4.858   5.244 -34.962  1.00  0.00    -0.123 NA
ENDROOT
BRANCH   1   6
HETATM    6  S   UNL     1      -6.878   4.379 -33.375  1.00  0.00    -0.081 SA
BRANCH   6   7
HETATM    7  C   UNL     1      -6.909   2.671 -33.972  1.00  0.00     0.185 C 
BRANCH   7   8
HETATM    8  C   UNL     1      -7.888   1.719 -33.303  1.00  0.00     0.227 C 
HETATM    9  N   UNL     1      -8.133   0.468 -33.780  1.00  0.00    -0.356 N 
HETATM   10  H   UNL     1      -8.770  -0.049 -33.184  1.00  0.00     0.162 HD
HETATM   11  O   UNL     1      -8.403   2.014 -32.219  1.00  0.00    -0.273 OA
BRANCH   9  12
HETATM   12  C   UNL     1      -7.623  -0.188 -34.962  1.00  0.00     0.161 C 
BRANCH  12  13
HETATM   13  C   UNL     1      -6.596  -1.241 -34.635  1.00  0.00    -0.040 A 
HETATM   14  C   UNL     1      -6.799  -2.581 -34.998  1.00  0.00     0.011 A 
HETATM   15  C   UNL     1      -5.826  -3.553 -34.735  1.00  0.00     0.037 A 
HETATM   16  C   UNL     1      -4.628  -3.195 -34.120  1.00  0.00     0.068 A 
HETATM   17  C   UNL     1      -4.420  -1.862 -33.761  1.00  0.00     0.037 A 
HETATM   18  C   UNL     1      -5.392  -0.891 -34.014  1.00  0.00     0.011 A 
BRANCH  16  19
HETATM   19  O   UNL     1      -3.592  -4.037 -33.822  1.00  0.00    -0.356 OA
HETATM   20  C   UNL     1      -3.177  -4.090 -32.463  1.00  0.00     0.210 C 
ENDBRANCH  16  19
ENDBRANCH  12  13
ENDBRANCH   9  12
ENDBRANCH   7   8
ENDBRANCH   6   7
ENDBRANCH   1   6
BRANCH   2  21
HETATM   21  C   UNL     1      -4.252   4.584 -31.471  1.00  0.00     0.171 C 
BRANCH  21  22
HETATM   22  C   UNL     1      -4.334   3.102 -31.175  1.00  0.00    -0.040 A 
HETATM   23  C   UNL     1      -5.395   2.519 -30.465  1.00  0.00     0.009 A 
HETATM   24  C   UNL     1      -5.421   1.142 -30.228  1.00  0.00     0.001 A 
HETATM   25  C   UNL     1      -4.405   0.326 -30.721  1.00  0.00     0.000 A 
HETATM   26  C   UNL     1      -3.363   0.884 -31.456  1.00  0.00     0.001 A 
HETATM   27  C   UNL     1      -3.329   2.261 -31.685  1.00  0.00     0.009 A 
ENDBRANCH  21  22
ENDBRANCH   2  21
BRANCH   3  28
HETATM   28  C   UNL     1      -1.693   5.343 -33.148  1.00  0.00     0.057 A 
HETATM   29  C   UNL     1      -0.817   6.427 -33.741  1.00  0.00     0.013 A 
HETATM   30  C   UNL     1      -1.300   6.562 -32.338  1.00  0.00     0.013 A 
ENDBRANCH   3  28
TORSDOF 9
ENDMDL
MODEL 3
REMARK VINA RESULT:      -7.3      1.796      4.756
REMARK  9 active torsions:
REMARK  status: ('A' for Active; 'I' for Inactive)
REMARK    1  A    between atoms: O_2  and  C_3 
REMARK    2  A    between atoms: C_6  and  C_7 
REMARK    3  A    between atoms: C_7  and  N_8 
REMARK       I    between atoms: N_8  and  C_9 
REMARK    4  A    between atoms: C_9  and  C_10 
REMARK    5  A    between atoms: C_10  and  S_11 
REMARK    6  A    between atoms: S_11  and  C_12 
REMARK    7  A    between atoms: N_13  and  C_14 
REMARK    8  A    between atoms: C_14  and  C_15 
REMARK    9  A    between atoms: C_21  and  C_22 
ROOT
HETATM    1  C   UNL     1      -5.502   0.459 -31.787  1.00  0.00     0.192 A 
HETATM    2  N   UNL     1      -6.264   0.107 -32.868  1.00  0.00    -0.307 N 
HETATM    3  C   UNL     1      -7.565   0.162 -32.425  1.00  0.00     0.135 A 
HETATM    4  N   UNL     1      -7.577   0.599 -31.182  1.00  0.00    -0.134 NA
HETATM    5  N   UNL     1      -6.277   0.787 -30.782  1.00  0.00    -0.123 NA
ENDROOT
BRANCH   1   6
HETATM    6  S   UNL     1      -3.778   0.409 -31.761  1.00  0.00    -0.081 SA
BRANCH   6   7
HETATM    7  C   UNL     1      -3.346   2.075 -31.201  1.00  0.00     0.185 C 
BRANCH   7   8
HETATM    8  C   UNL     1      -3.529   3.210 -32.196  1.00  0.00     0.227 C 
HETATM    9  N   UNL     1      -4.544   4.113 -32.096  1.00  0.00    -0.356 N 
HETATM   10  H   UNL     1      -4.485   4.832 -32.808  1.00  0.00     0.162 HD
HETATM   11  O   UNL     1      -2.676   3.423 -33.064  1.00  0.00    -0.273 OA
BRANCH   9  12
HETATM   12  C   UNL     1      -5.633   4.179 -31.150  1.00  0.00     0.161 C 
BRANCH  12  13
HETATM   13  C   UNL     1      -6.981   4.163 -31.826  1.00  0.00    -0.040 A 
HETATM   14  C   UNL     1      -8.162   4.096 -31.073  1.00  0.00     0.011 A 
HETATM   15  C   UNL     1      -9.416   4.126 -31.697  1.00  0.00     0.037 A 
HETATM   16  C   UNL     1      -9.505   4.242 -33.083  1.00  0.00     0.068 A 
HETATM   17  C   UNL     1      -8.331   4.314 -33.836  1.00  0.00     0.037 A 
HETATM   18  C   UNL     1      -7.079   4.275 -33.218  1.00  0.00     0.011 A 
BRANCH  16  19
HETATM   19  O   UNL     1     -10.659   4.300 -33.814  1.00  0.00    -0.356 OA
HETATM   20  C   UNL     1     -11.864   3.958 -33.141  1.00  0.00     0.210 C 
ENDBRANCH  16  19
ENDBRANCH  12  13
ENDBRANCH   9  12
ENDBRANCH   7   8
ENDBRANCH   6   7
ENDBRANCH   1   6
BRANCH   2  21
HETATM   21  C   UNL     1      -5.820  -0.339 -34.176  1.00  0.00     0.171 C 
BRANCH  21  22
HETATM   22  C   UNL     1      -5.733  -1.841 -34.335  1.00  0.00    -0.040 A 
HETATM   23  C   UNL     1      -6.817  -2.634 -34.739  1.00  0.00     0.009 A 
HETATM   24  C   UNL     1      -6.675  -4.017 -34.875  1.00  0.00     0.001 A 
HETATM   25  C   UNL     1      -5.443  -4.623 -34.638  1.00  0.00     0.000 A 
HETATM   26  C   UNL     1      -4.349  -3.846 -34.269  1.00  0.00     0.001 A 
HETATM   27  C   UNL     1      -4.491  -2.465 -34.122  1.00  0.00     0.009 A 
ENDBRANCH  21  22
ENDBRANCH   2  21
BRANCH   3  28
HETATM   28  C   UNL     1      -8.817  -0.210 -33.206  1.00  0.00     0.057 A 
HETATM   29  C   UNL     1     -10.080   0.585 -32.944  1.00  0.00     0.013 A 
HETATM   30  C   UNL     1      -9.339   0.787 -34.221  1.00  0.00     0.013 A 
ENDBRANCH   3  28
TORSDOF 9
ENDMDL
MODEL 4
REMARK VINA RESULT:      -7.1      2.949      5.543
REMARK  9 active torsions:
REMARK  status: ('A' for Active; 'I' for Inactive)
REMARK    1  A    between atoms: O_2  and  C_3 
REMARK    2  A    between atoms: C_6  and  C_7 
REMARK    3  A    between atoms: C_7  and  N_8 
REMARK       I    between atoms: N_8  and  C_9 
REMARK    4  A    between atoms: C_9  and  C_10 
REMARK    5  A    between atoms: C_10  and  S_11 
REMARK    6  A    between atoms: S_11  and  C_12 
REMARK    7  A    between atoms: N_13  and  C_14 
REMARK    8  A    between atoms: C_14  and  C_15 
REMARK    9  A    between atoms: C_21  and  C_22 
ROOT
HETATM    1  C   UNL     1      -9.563   4.619 -34.117  1.00  0.00     0.192 A 
HETATM    2  N   UNL     1      -9.803   3.289 -33.898  1.00  0.00    -0.307 N 
HETATM    3  C   UNL     1     -10.861   2.975 -34.718  1.00  0.00     0.135 A 
HETATM    4  N   UNL     1     -11.175   4.032 -35.439  1.00  0.00    -0.134 NA
HETATM    5  N   UNL     1     -10.355   5.066 -35.060  1.00  0.00    -0.123 NA
ENDROOT
BRANCH   1   6
HETATM    6  S   UNL     1      -8.422   5.556 -33.225  1.00  0.00    -0.081 SA
BRANCH   6   7
HETATM    7  C   UNL     1      -6.840   4.990 -33.897  1.00  0.00     0.185 C 
BRANCH   7   8
HETATM    8  C   UNL     1      -5.588   5.326 -33.102  1.00  0.00     0.227 C 
HETATM    9  N   UNL     1      -5.316   4.760 -31.893  1.00  0.00    -0.356 N 
HETATM   10  H   UNL     1      -4.417   5.056 -31.529  1.00  0.00     0.162 HD
HETATM   11  O   UNL     1      -4.707   6.037 -33.596  1.00  0.00    -0.273 OA
BRANCH   9  12
HETATM   12  C   UNL     1      -6.100   3.837 -31.107  1.00  0.00     0.161 C 
BRANCH  12  13
HETATM   13  C   UNL     1      -5.660   2.407 -31.295  1.00  0.00    -0.040 A 
HETATM   14  C   UNL     1      -6.251   1.370 -30.557  1.00  0.00     0.011 A 
HETATM   15  C   UNL     1      -5.876   0.037 -30.763  1.00  0.00     0.037 A 
HETATM   16  C   UNL     1      -4.916  -0.280 -31.723  1.00  0.00     0.068 A 
HETATM   17  C   UNL     1      -4.329   0.749 -32.462  1.00  0.00     0.037 A 
HETATM   18  C   UNL     1      -4.695   2.081 -32.254  1.00  0.00     0.011 A 
BRANCH  16  19
HETATM   19  O   UNL     1      -4.472  -1.535 -32.035  1.00  0.00    -0.356 OA
HETATM   20  C   UNL     1      -3.937  -1.722 -33.338  1.00  0.00     0.210 C 
ENDBRANCH  16  19
ENDBRANCH  12  13
ENDBRANCH   9  12
ENDBRANCH   7   8
ENDBRANCH   6   7
ENDBRANCH   1   6
BRANCH   2  21
HETATM   21  C   UNL     1      -9.169   2.407 -32.936  1.00  0.00     0.171 C 
BRANCH  21  22
HETATM   22  C   UNL     1      -8.436   1.231 -33.545  1.00  0.00    -0.040 A 
HETATM   23  C   UNL     1      -8.617  -0.092 -33.116  1.00  0.00     0.009 A 
HETATM   24  C   UNL     1      -7.916  -1.138 -33.721  1.00  0.00     0.001 A 
HETATM   25  C   UNL     1      -7.048  -0.882 -34.780  1.00  0.00     0.000 A 
HETATM   26  C   UNL     1      -6.883   0.422 -35.240  1.00  0.00     0.001 A 
HETATM   27  C   UNL     1      -7.574   1.470 -34.630  1.00  0.00     0.009 A 
ENDBRANCH  21  22
ENDBRANCH   2  21
BRANCH   3  28
HETATM   28  C   UNL     1     -11.583   1.639 -34.812  1.00  0.00     0.057 A 
HETATM   29  C   UNL     1     -12.437   1.208 -33.637  1.00  0.00     0.013 A 
HETATM   30  C   UNL     1     -13.096   1.656 -34.896  1.00  0.00     0.013 A 
ENDBRANCH   3  28
TORSDOF 9
ENDMDL
MODEL 5
REMARK VINA RESULT:      -7.1     15.336     16.799
REMARK  9 active torsions:
REMARK  status: ('A' for Active; 'I' for Inactive)
REMARK    1  A    between atoms: O_2  and  C_3 
REMARK    2  A    between atoms: C_6  and  C_7 
REMARK    3  A    between atoms: C_7  and  N_8 
REMARK       I    between atoms: N_8  and  C_9 
REMARK    4  A    between atoms: C_9  and  C_10 
REMARK    5  A    between atoms: C_10  and  S_11 
REMARK    6  A    between atoms: S_11  and  C_12 
REMARK    7  A    between atoms: N_13  and  C_14 
REMARK    8  A    between atoms: C_14  and  C_15 
REMARK    9  A    between atoms: C_21  and  C_22 
ROOT
HETATM    1  C   UNL     1      -6.187 -15.275 -37.560  1.00  0.00     0.192 A 
HETATM    2  N   UNL     1      -6.418 -14.186 -38.356  1.00  0.00    -0.307 N 
HETATM    3  C   UNL     1      -5.423 -14.217 -39.305  1.00  0.00     0.135 A 
HETATM    4  N   UNL     1      -4.698 -15.303 -39.132  1.00  0.00    -0.134 NA
HETATM    5  N   UNL     1      -5.181 -15.969 -38.034  1.00  0.00    -0.123 NA
ENDROOT
BRANCH   1   6
HETATM    6  S   UNL     1      -7.068 -15.624 -36.118  1.00  0.00    -0.081 SA
BRANCH   6   7
HETATM    7  C   UNL     1      -6.463 -14.359 -34.974  1.00  0.00     0.185 C 
BRANCH   7   8
HETATM    8  C   UNL     1      -5.068 -14.552 -34.400  1.00  0.00     0.227 C 
HETATM    9  N   UNL     1      -3.971 -13.935 -34.921  1.00  0.00    -0.356 N 
HETATM   10  H   UNL     1      -3.134 -14.132 -34.385  1.00  0.00     0.162 HD
HETATM   11  O   UNL     1      -4.907 -15.185 -33.351  1.00  0.00    -0.273 OA
BRANCH   9  12
HETATM   12  C   UNL     1      -3.855 -13.075 -36.075  1.00  0.00     0.161 C 
BRANCH  12  13
HETATM   13  C   UNL     1      -2.624 -13.376 -36.892  1.00  0.00    -0.040 A 
HETATM   14  C   UNL     1      -1.806 -14.473 -36.581  1.00  0.00     0.011 A 
HETATM   15  C   UNL     1      -0.687 -14.780 -37.366  1.00  0.00     0.037 A 
HETATM   16  C   UNL     1      -0.381 -14.004 -38.482  1.00  0.00     0.068 A 
HETATM   17  C   UNL     1      -1.195 -12.914 -38.797  1.00  0.00     0.037 A 
HETATM   18  C   UNL     1      -2.307 -12.599 -38.012  1.00  0.00     0.011 A 
BRANCH  16  19
HETATM   19  O   UNL     1       0.667 -14.203 -39.338  1.00  0.00    -0.356 OA
HETATM   20  C   UNL     1       1.892 -14.641 -38.765  1.00  0.00     0.210 C 
ENDBRANCH  16  19
ENDBRANCH  12  13
ENDBRANCH   9  12
ENDBRANCH   7   8
ENDBRANCH   6   7
ENDBRANCH   1   6
BRANCH   2  21
HETATM   21  C   UNL     1      -7.417 -13.146 -38.192  1.00  0.00     0.171 C 
BRANCH  21  22
HETATM   22  C   UNL     1      -8.659 -13.325 -39.038  1.00  0.00    -0.040 A 
HETATM   23  C   UNL     1      -9.224 -14.580 -39.316  1.00  0.00     0.009 A 
HETATM   24  C   UNL     1     -10.376 -14.683 -40.099  1.00  0.00     0.001 A 
HETATM   25  C   UNL     1     -10.997 -13.536 -40.589  1.00  0.00     0.000 A 
HETATM   26  C   UNL     1     -10.468 -12.282 -40.294  1.00  0.00     0.001 A 
HETATM   27  C   UNL     1      -9.311 -12.177 -39.522  1.00  0.00     0.009 A 
ENDBRANCH  21  22
ENDBRANCH   2  21
BRANCH   3  28
HETATM   28  C   UNL     1      -5.165 -13.188 -40.396  1.00  0.00     0.057 A 
HETATM   29  C   UNL     1      -4.472 -13.654 -41.661  1.00  0.00     0.013 A 
HETATM   30  C   UNL     1      -5.926 -13.331 -41.698  1.00  0.00     0.013 A 
ENDBRANCH   3  28
TORSDOF 9
ENDMDL
MODEL 6
REMARK VINA RESULT:      -7.0      2.305      5.664
REMARK  9 active torsions:
REMARK  status: ('A' for Active; 'I' for Inactive)
REMARK    1  A    between atoms: O_2  and  C_3 
REMARK    2  A    between atoms: C_6  and  C_7 
REMARK    3  A    between atoms: C_7  and  N_8 
REMARK       I    between atoms: N_8  and  C_9 
REMARK    4  A    between atoms: C_9  and  C_10 
REMARK    5  A    between atoms: C_10  and  S_11 
REMARK    6  A    between atoms: S_11  and  C_12 
REMARK    7  A    between atoms: N_13  and  C_14 
REMARK    8  A    between atoms: C_14  and  C_15 
REMARK    9  A    between atoms: C_21  and  C_22 
ROOT
HETATM    1  C   UNL     1      -6.132   2.473 -30.568  1.00  0.00     0.192 A 
HETATM    2  N   UNL     1      -4.836   2.311 -30.977  1.00  0.00    -0.307 N 
HETATM    3  C   UNL     1      -4.666   0.952 -31.106  1.00  0.00     0.135 A 
HETATM    4  N   UNL     1      -5.814   0.351 -30.869  1.00  0.00    -0.134 NA
HETATM    5  N   UNL     1      -6.737   1.311 -30.532  1.00  0.00    -0.123 NA
ENDROOT
BRANCH   1   6
HETATM    6  S   UNL     1      -6.822   3.988 -30.115  1.00  0.00    -0.081 SA
BRANCH   6   7
HETATM    7  C   UNL     1      -8.046   4.265 -31.419  1.00  0.00     0.185 C 
BRANCH   7   8
HETATM    8  C   UNL     1      -9.333   3.459 -31.346  1.00  0.00     0.227 C 
HETATM    9  N   UNL     1      -9.789   2.715 -32.392  1.00  0.00    -0.356 N 
HETATM   10  H   UNL     1     -10.630   2.200 -32.154  1.00  0.00     0.162 HD
HETATM   11  O   UNL     1      -9.943   3.353 -30.278  1.00  0.00    -0.273 OA
BRANCH   9  12
HETATM   12  C   UNL     1      -9.255   2.568 -33.726  1.00  0.00     0.161 C 
BRANCH  12  13
HETATM   13  C   UNL     1      -8.412   1.327 -33.871  1.00  0.00    -0.040 A 
HETATM   14  C   UNL     1      -7.174   1.372 -34.531  1.00  0.00     0.011 A 
HETATM   15  C   UNL     1      -6.369   0.231 -34.629  1.00  0.00     0.037 A 
HETATM   16  C   UNL     1      -6.783  -0.969 -34.052  1.00  0.00     0.068 A 
HETATM   17  C   UNL     1      -8.011  -1.017 -33.391  1.00  0.00     0.037 A 
HETATM   18  C   UNL     1      -8.822   0.118 -33.299  1.00  0.00     0.011 A 
BRANCH  16  19
HETATM   19  O   UNL     1      -6.090  -2.147 -34.059  1.00  0.00    -0.356 OA
HETATM   20  C   UNL     1      -6.700  -3.248 -34.719  1.00  0.00     0.210 C 
ENDBRANCH  16  19
ENDBRANCH  12  13
ENDBRANCH   9  12
ENDBRANCH   7   8
ENDBRANCH   6   7
ENDBRANCH   1   6
BRANCH   2  21
HETATM   21  C   UNL     1      -3.810   3.325 -31.139  1.00  0.00     0.171 C 
BRANCH  21  22
HETATM   22  C   UNL     1      -3.742   3.940 -32.519  1.00  0.00    -0.040 A 
HETATM   23  C   UNL     1      -4.879   4.202 -33.299  1.00  0.00     0.009 A 
HETATM   24  C   UNL     1      -4.755   4.778 -34.566  1.00  0.00     0.001 A 
HETATM   25  C   UNL     1      -3.500   5.127 -35.058  1.00  0.00     0.000 A 
HETATM   26  C   UNL     1      -2.365   4.905 -34.283  1.00  0.00     0.001 A 
HETATM   27  C   UNL     1      -2.485   4.320 -33.022  1.00  0.00     0.009 A 
ENDBRANCH  21  22
ENDBRANCH   2  21
BRANCH   3  28
HETATM   28  C   UNL     1      -3.382   0.218 -31.464  1.00  0.00     0.057 A 
HETATM   29  C   UNL     1      -3.490  -1.226 -31.908  1.00  0.00     0.013 A 
HETATM   30  C   UNL     1      -3.171  -0.173 -32.913  1.00  0.00     0.013 A 
ENDBRANCH   3  28
TORSDOF 9
ENDMDL
MODEL 7
REMARK VINA RESULT:      -7.0      2.513      5.811
REMARK  9 active torsions:
REMARK  status: ('A' for Active; 'I' for Inactive)
REMARK    1  A    between atoms: O_2  and  C_3 
REMARK    2  A    between atoms: C_6  and  C_7 
REMARK    3  A    between atoms: C_7  and  N_8 
REMARK       I    between atoms: N_8  and  C_9 
REMARK    4  A    between atoms: C_9  and  C_10 
REMARK    5  A    between atoms: C_10  and  S_11 
REMARK    6  A    between atoms: S_11  and  C_12 
REMARK    7  A    between atoms: N_13  and  C_14 
REMARK    8  A    between atoms: C_14  and  C_15 
REMARK    9  A    between atoms: C_21  and  C_22 
ROOT
HETATM    1  C   UNL     1      -6.658   2.488 -31.699  1.00  0.00     0.192 A 
HETATM    2  N   UNL     1      -7.083   1.714 -32.745  1.00  0.00    -0.307 N 
HETATM    3  C   UNL     1      -8.305   1.219 -32.353  1.00  0.00     0.135 A 
HETATM    4  N   UNL     1      -8.622   1.734 -31.183  1.00  0.00    -0.134 NA
HETATM    5  N   UNL     1      -7.584   2.534 -30.773  1.00  0.00    -0.123 NA
ENDROOT
BRANCH   1   6
HETATM    6  S   UNL     1      -5.103   3.230 -31.614  1.00  0.00    -0.081 SA
BRANCH   6   7
HETATM    7  C   UNL     1      -5.438   4.908 -32.206  1.00  0.00     0.185 C 
BRANCH   7   8
HETATM    8  C   UNL     1      -5.984   5.049 -33.618  1.00  0.00     0.227 C 
HETATM    9  N   UNL     1      -7.292   5.332 -33.871  1.00  0.00    -0.356 N 
HETATM   10  H   UNL     1      -7.471   5.444 -34.862  1.00  0.00     0.162 HD
HETATM   11  O   UNL     1      -5.218   5.035 -34.588  1.00  0.00    -0.273 OA
BRANCH   9  12
HETATM   12  C   UNL     1      -8.397   5.493 -32.956  1.00  0.00     0.161 C 
BRANCH  12  13
HETATM   13  C   UNL     1      -9.655   4.828 -33.454  1.00  0.00    -0.040 A 
HETATM   14  C   UNL     1     -10.635   4.379 -32.556  1.00  0.00     0.011 A 
HETATM   15  C   UNL     1     -11.824   3.802 -33.019  1.00  0.00     0.037 A 
HETATM   16  C   UNL     1     -12.057   3.681 -34.388  1.00  0.00     0.068 A 
HETATM   17  C   UNL     1     -11.086   4.130 -35.285  1.00  0.00     0.037 A 
HETATM   18  C   UNL     1      -9.895   4.699 -34.827  1.00  0.00     0.011 A 
BRANCH  16  19
HETATM   19  O   UNL     1     -13.176   3.155 -34.972  1.00  0.00    -0.356 OA
HETATM   20  C   UNL     1     -13.678   1.943 -34.423  1.00  0.00     0.210 C 
ENDBRANCH  16  19
ENDBRANCH  12  13
ENDBRANCH   9  12
ENDBRANCH   7   8
ENDBRANCH   6   7
ENDBRANCH   1   6
BRANCH   2  21
HETATM   21  C   UNL     1      -6.373   1.381 -33.966  1.00  0.00     0.171 C 
BRANCH  21  22
HETATM   22  C   UNL     1      -5.785  -0.013 -33.994  1.00  0.00    -0.040 A 
HETATM   23  C   UNL     1      -4.674  -0.393 -33.226  1.00  0.00     0.009 A 
HETATM   24  C   UNL     1      -4.179  -1.698 -33.288  1.00  0.00     0.001 A 
HETATM   25  C   UNL     1      -4.803  -2.648 -34.094  1.00  0.00     0.000 A 
HETATM   26  C   UNL     1      -5.926  -2.295 -34.838  1.00  0.00     0.001 A 
HETATM   27  C   UNL     1      -6.416  -0.990 -34.785  1.00  0.00     0.009 A 
ENDBRANCH  21  22
ENDBRANCH   2  21
BRANCH   3  28
HETATM   28  C   UNL     1      -9.184   0.237 -33.114  1.00  0.00     0.057 A 
HETATM   29  C   UNL     1     -10.686   0.406 -33.017  1.00  0.00     0.013 A 
HETATM   30  C   UNL     1      -9.989   0.767 -34.283  1.00  0.00     0.013 A 
ENDBRANCH   3  28
TORSDOF 9
ENDMDL
MODEL 8
REMARK VINA RESULT:      -7.0      2.618      5.014
REMARK  9 active torsions:
REMARK  status: ('A' for Active; 'I' for Inactive)
REMARK    1  A    between atoms: O_2  and  C_3 
REMARK    2  A    between atoms: C_6  and  C_7 
REMARK    3  A    between atoms: C_7  and  N_8 
REMARK       I    between atoms: N_8  and  C_9 
REMARK    4  A    between atoms: C_9  and  C_10 
REMARK    5  A    between atoms: C_10  and  S_11 
REMARK    6  A    between atoms: S_11  and  C_12 
REMARK    7  A    between atoms: N_13  and  C_14 
REMARK    8  A    between atoms: C_14  and  C_15 
REMARK    9  A    between atoms: C_21  and  C_22 
ROOT
HETATM    1  C   UNL     1      -4.532   0.575 -31.916  1.00  0.00     0.192 A 
HETATM    2  N   UNL     1      -5.339   0.382 -33.004  1.00  0.00    -0.307 N 
HETATM    3  C   UNL     1      -5.060  -0.893 -33.437  1.00  0.00     0.135 A 
HETATM    4  N   UNL     1      -4.201  -1.450 -32.608  1.00  0.00    -0.134 NA
HETATM    5  N   UNL     1      -3.871  -0.524 -31.649  1.00  0.00    -0.123 NA
ENDROOT
BRANCH   1   6
HETATM    6  S   UNL     1      -4.383   2.075 -31.077  1.00  0.00    -0.081 SA
BRANCH   6   7
HETATM    7  C   UNL     1      -3.180   2.972 -32.090  1.00  0.00     0.185 C 
BRANCH   7   8
HETATM    8  C   UNL     1      -3.571   4.364 -32.561  1.00  0.00     0.227 C 
HETATM    9  N   UNL     1      -2.648   5.306 -32.899  1.00  0.00    -0.356 N 
HETATM   10  H   UNL     1      -3.081   6.156 -33.242  1.00  0.00     0.162 HD
HETATM   11  O   UNL     1      -4.756   4.641 -32.775  1.00  0.00    -0.273 OA
BRANCH   9  12
HETATM   12  C   UNL     1      -1.206   5.252 -32.841  1.00  0.00     0.161 C 
BRANCH  12  13
HETATM   13  C   UNL     1      -0.662   5.819 -31.555  1.00  0.00    -0.040 A 
HETATM   14  C   UNL     1      -1.017   7.110 -31.132  1.00  0.00     0.011 A 
HETATM   15  C   UNL     1      -0.549   7.621 -29.916  1.00  0.00     0.037 A 
HETATM   16  C   UNL     1       0.267   6.843 -29.097  1.00  0.00     0.068 A 
HETATM   17  C   UNL     1       0.619   5.557 -29.512  1.00  0.00     0.037 A 
HETATM   18  C   UNL     1       0.161   5.046 -30.729  1.00  0.00     0.011 A 
BRANCH  16  19
HETATM   19  O   UNL     1       0.777   7.213 -27.883  1.00  0.00    -0.356 OA
HETATM   20  C   UNL     1       1.457   8.460 -27.824  1.00  0.00     0.210 C 
ENDBRANCH  16  19
ENDBRANCH  12  13
ENDBRANCH   9  12
ENDBRANCH   7   8
ENDBRANCH   6   7
ENDBRANCH   1   6
BRANCH   2  21
HETATM   21  C   UNL     1      -6.224   1.334 -33.650  1.00  0.00     0.171 C 
BRANCH  21  22
HETATM   22  C   UNL     1      -7.699   1.043 -33.477  1.00  0.00    -0.040 A 
HETATM   23  C   UNL     1      -8.212   0.287 -32.412  1.00  0.00     0.009 A 
HETATM   24  C   UNL     1      -9.586   0.056 -32.300  1.00  0.00     0.001 A 
HETATM   25  C   UNL     1     -10.467   0.601 -33.231  1.00  0.00     0.000 A 
HETATM   26  C   UNL     1      -9.977   1.382 -34.275  1.00  0.00     0.001 A 
HETATM   27  C   UNL     1      -8.605   1.604 -34.395  1.00  0.00     0.009 A 
ENDBRANCH  21  22
ENDBRANCH   2  21
BRANCH   3  28
HETATM   28  C   UNL     1      -5.626  -1.590 -34.666  1.00  0.00     0.057 A 
HETATM   29  C   UNL     1      -5.574  -3.103 -34.712  1.00  0.00     0.013 A 
HETATM   30  C   UNL     1      -6.881  -2.421 -34.493  1.00  0.00     0.013 A 
ENDBRANCH   3  28
TORSDOF 9
ENDMDL
MODEL 9
REMARK VINA RESULT:      -6.9     15.315     17.276
REMARK  9 active torsions:
REMARK  status: ('A' for Active; 'I' for Inactive)
REMARK    1  A    between atoms: O_2  and  C_3 
REMARK    2  A    between atoms: C_6  and  C_7 
REMARK    3  A    between atoms: C_7  and  N_8 
REMARK       I    between atoms: N_8  and  C_9 
REMARK    4  A    between atoms: C_9  and  C_10 
REMARK    5  A    between atoms: C_10  and  S_11 
REMARK    6  A    between atoms: S_11  and  C_12 
REMARK    7  A    between atoms: N_13  and  C_14 
REMARK    8  A    between atoms: C_14  and  C_15 
REMARK    9  A    between atoms: C_21  and  C_22 
ROOT
HETATM    1  C   UNL     1      -3.371 -14.834 -36.727  1.00  0.00     0.192 A 
HETATM    2  N   UNL     1      -3.058 -14.906 -38.058  1.00  0.00    -0.307 N 
HETATM    3  C   UNL     1      -1.810 -14.339 -38.164  1.00  0.00     0.135 A 
HETATM    4  N   UNL     1      -1.376 -14.025 -36.961  1.00  0.00    -0.134 NA
HETATM    5  N   UNL     1      -2.360 -14.339 -36.057  1.00  0.00    -0.123 NA
ENDROOT
BRANCH   1   6
HETATM    6  S   UNL     1      -4.903 -15.278 -36.069  1.00  0.00    -0.081 SA
BRANCH   6   7
HETATM    7  C   UNL     1      -5.397 -13.780 -35.182  1.00  0.00     0.185 C 
BRANCH   7   8
HETATM    8  C   UNL     1      -6.888 -13.534 -35.012  1.00  0.00     0.227 C 
HETATM    9  N   UNL     1      -7.699 -13.212 -36.058  1.00  0.00    -0.356 N 
HETATM   10  H   UNL     1      -8.670 -13.136 -35.777  1.00  0.00     0.162 HD
HETATM   11  O   UNL     1      -7.436 -13.747 -33.926  1.00  0.00    -0.273 OA
BRANCH   9  12
HETATM   12  C   UNL     1      -7.372 -12.982 -37.446  1.00  0.00     0.161 C 
BRANCH  12  13
HETATM   13  C   UNL     1      -8.466 -13.441 -38.376  1.00  0.00    -0.040 A 
HETATM   14  C   UNL     1      -9.203 -12.516 -39.131  1.00  0.00     0.011 A 
HETATM   15  C   UNL     1     -10.189 -12.945 -40.029  1.00  0.00     0.037 A 
HETATM   16  C   UNL     1     -10.439 -14.305 -40.197  1.00  0.00     0.068 A 
HETATM   17  C   UNL     1      -9.705 -15.229 -39.451  1.00  0.00     0.037 A 
HETATM   18  C   UNL     1      -8.726 -14.805 -38.547  1.00  0.00     0.011 A 
BRANCH  16  19
HETATM   19  O   UNL     1     -11.357 -14.856 -41.048  1.00  0.00    -0.356 OA
HETATM   20  C   UNL     1     -11.219 -16.242 -41.332  1.00  0.00     0.210 C 
ENDBRANCH  16  19
ENDBRANCH  12  13
ENDBRANCH   9  12
ENDBRANCH   7   8
ENDBRANCH   6   7
ENDBRANCH   1   6
BRANCH   2  21
HETATM   21  C   UNL     1      -3.887 -15.372 -39.154  1.00  0.00     0.171 C 
BRANCH  21  22
HETATM   22  C   UNL     1      -4.717 -14.295 -39.820  1.00  0.00    -0.040 A 
HETATM   23  C   UNL     1      -4.532 -12.925 -39.580  1.00  0.00     0.009 A 
HETATM   24  C   UNL     1      -5.324 -11.976 -40.229  1.00  0.00     0.001 A 
HETATM   25  C   UNL     1      -6.291 -12.379 -41.148  1.00  0.00     0.000 A 
HETATM   26  C   UNL     1      -6.464 -13.732 -41.423  1.00  0.00     0.001 A 
HETATM   27  C   UNL     1      -5.681 -14.684 -40.767  1.00  0.00     0.009 A 
ENDBRANCH  21  22
ENDBRANCH   2  21
BRANCH   3  28
HETATM   28  C   UNL     1      -1.019 -14.095 -39.442  1.00  0.00     0.057 A 
HETATM   29  C   UNL     1       0.467 -14.390 -39.425  1.00  0.00     0.013 A 
HETATM   30  C   UNL     1      -0.453 -15.300 -40.165  1.00  0.00     0.013 A 
ENDBRANCH   3  28
TORSDOF 9
ENDMDL
MODEL 10
REMARK VINA RESULT:      -6.9      3.103      5.213
REMARK  9 active torsions:
REMARK  status: ('A' for Active; 'I' for Inactive)
REMARK    1  A    between atoms: O_2  and  C_3 
REMARK    2  A    between atoms: C_6  and  C_7 
REMARK    3  A    between atoms: C_7  and  N_8 
REMARK       I    between atoms: N_8  and  C_9 
REMARK    4  A    between atoms: C_9  and  C_10 
REMARK    5  A    between atoms: C_10  and  S_11 
REMARK    6  A    between atoms: S_11  and  C_12 
REMARK    7  A    between atoms: N_13  and  C_14 
REMARK    8  A    between atoms: C_14  and  C_15 
REMARK    9  A    between atoms: C_21  and  C_22 
ROOT
HETATM    1  C   UNL     1      -5.405   2.173 -32.377  1.00  0.00     0.192 A 
HETATM    2  N   UNL     1      -6.338   1.193 -32.169  1.00  0.00    -0.307 N 
HETATM    3  C   UNL     1      -7.554   1.818 -32.317  1.00  0.00     0.135 A 
HETATM    4  N   UNL     1      -7.354   3.070 -32.672  1.00  0.00    -0.134 NA
HETATM    5  N   UNL     1      -6.000   3.292 -32.711  1.00  0.00    -0.123 NA
ENDROOT
BRANCH   1   6
HETATM    6  S   UNL     1      -3.707   1.953 -32.163  1.00  0.00    -0.081 SA
BRANCH   6   7
HETATM    7  C   UNL     1      -3.178   3.570 -31.546  1.00  0.00     0.185 C 
BRANCH   7   8
HETATM    8  C   UNL     1      -2.308   4.413 -32.465  1.00  0.00     0.227 C 
HETATM    9  N   UNL     1      -1.139   4.975 -32.051  1.00  0.00    -0.356 N 
HETATM   10  H   UNL     1      -0.661   5.457 -32.804  1.00  0.00     0.162 HD
HETATM   11  O   UNL     1      -2.578   4.508 -33.667  1.00  0.00    -0.273 OA
BRANCH   9  12
HETATM   12  C   UNL     1      -0.520   4.968 -30.746  1.00  0.00     0.161 C 
BRANCH  12  13
HETATM   13  C   UNL     1      -0.645   6.297 -30.045  1.00  0.00    -0.040 A 
HETATM   14  C   UNL     1      -1.855   7.008 -30.064  1.00  0.00     0.011 A 
HETATM   15  C   UNL     1      -1.987   8.221 -29.377  1.00  0.00     0.037 A 
HETATM   16  C   UNL     1      -0.916   8.730 -28.645  1.00  0.00     0.068 A 
HETATM   17  C   UNL     1       0.288   8.023 -28.620  1.00  0.00     0.037 A 
HETATM   18  C   UNL     1       0.426   6.818 -29.312  1.00  0.00     0.011 A 
BRANCH  16  19
HETATM   19  O   UNL     1      -0.915   9.889 -27.918  1.00  0.00    -0.356 OA
HETATM   20  C   UNL     1      -0.061   9.935 -26.783  1.00  0.00     0.210 C 
ENDBRANCH  16  19
ENDBRANCH  12  13
ENDBRANCH   9  12
ENDBRANCH   7   8
ENDBRANCH   6   7
ENDBRANCH   1   6
BRANCH   2  21
HETATM   21  C   UNL     1      -6.123  -0.185 -31.768  1.00  0.00     0.171 C 
BRANCH  21  22
HETATM   22  C   UNL     1      -5.834  -1.136 -32.909  1.00  0.00    -0.040 A 
HETATM   23  C   UNL     1      -4.564  -1.682 -33.150  1.00  0.00     0.009 A 
HETATM   24  C   UNL     1      -4.358  -2.561 -34.216  1.00  0.00     0.001 A 
HETATM   25  C   UNL     1      -5.422  -2.931 -35.036  1.00  0.00     0.000 A 
HETATM   26  C   UNL     1      -6.695  -2.425 -34.790  1.00  0.00     0.001 A 
HETATM   27  C   UNL     1      -6.901  -1.538 -33.732  1.00  0.00     0.009 A 
ENDBRANCH  21  22
ENDBRANCH   2  21
BRANCH   3  28
HETATM   28  C   UNL     1      -8.932   1.202 -32.115  1.00  0.00     0.057 A 
HETATM   29  C   UNL     1     -10.108   1.850 -32.817  1.00  0.00     0.013 A 
HETATM   30  C   UNL     1      -9.593   0.541 -33.308  1.00  0.00     0.013 A 
ENDBRANCH   3  28
TORSDOF 9
ENDMDL
