MODEL 1
REMARK VINA RESULT:      -8.9      0.000      0.000
REMARK  5 active torsions:
REMARK  status: ('A' for Active; 'I' for Inactive)
REMARK    1  A    between atoms: O_2  and  C_3 
REMARK    2  A    between atoms: C_5  and  C_15 
REMARK    3  A    between atoms: C_8  and  C_9 
REMARK       I    between atoms: C_15  and  N_17 
REMARK    4  A    between atoms: N_17  and  C_18 
REMARK    5  A    between atoms: C_20  and  C_21 
ROOT
HETATM    1  C   UNL     1      -3.960  -1.979 -33.024  1.00  0.00     0.080 A 
HETATM    2  C   UNL     1      -3.497  -0.779 -32.466  1.00  0.00     0.054 A 
HETATM    3  C   UNL     1      -4.207   0.417 -32.645  1.00  0.00     0.034 A 
HETATM    4  C   UNL     1      -5.396   0.415 -33.376  1.00  0.00     0.018 A 
HETATM    5  C   UNL     1      -5.858  -0.775 -33.945  1.00  0.00     0.016 A 
HETATM    6  C   UNL     1      -5.151  -1.980 -33.782  1.00  0.00     0.010 A 
ENDROOT
BRANCH   3   7
HETATM    7  C   UNL     1      -3.677   1.650 -32.001  1.00  0.00     0.252 C 
HETATM    8  O   UNL     1      -2.859   1.556 -31.092  1.00  0.00    -0.268 OA
HETATM    9  N   UNL     1      -4.137   2.852 -32.502  1.00  0.00    -0.352 N 
HETATM   10  H   UNL     1      -4.670   2.865 -33.362  1.00  0.00     0.163 HD
BRANCH   9  11
HETATM   11  C   UNL     1      -3.706   4.106 -31.959  1.00  0.00     0.094 A 
HETATM   12  C   UNL     1      -3.998   5.382 -32.693  1.00  0.00     0.037 A 
HETATM   13  C   UNL     1      -2.575   4.886 -32.603  1.00  0.00     0.043 A 
BRANCH  13  14
HETATM   14  C   UNL     1      -1.578   5.629 -31.744  1.00  0.00    -0.052 A 
HETATM   15  C   UNL     1      -0.253   5.183 -31.605  1.00  0.00     0.007 A 
HETATM   16  C   UNL     1       0.671   5.879 -30.819  1.00  0.00     0.001 A 
HETATM   17  C   UNL     1       0.288   7.043 -30.160  1.00  0.00     0.000 A 
HETATM   18  C   UNL     1      -1.016   7.513 -30.290  1.00  0.00     0.001 A 
HETATM   19  C   UNL     1      -1.934   6.813 -31.077  1.00  0.00     0.007 A 
ENDBRANCH  13  14
ENDBRANCH   9  11
ENDBRANCH   3   7
BRANCH   1  20
HETATM   20  O   UNL     1      -3.308  -3.178 -32.878  1.00  0.00    -0.355 OA
HETATM   21  C   UNL     1      -2.904  -3.553 -31.566  1.00  0.00     0.210 C 
ENDBRANCH   1  20
BRANCH   6  22
HETATM   22  C   UNL     1      -5.674  -3.195 -34.395  1.00  0.00     0.013 A 
HETATM   23  C   UNL     1      -5.033  -4.400 -34.769  1.00  0.00     0.152 A 
HETATM   24  N   UNL     1      -5.873  -5.288 -35.312  1.00  0.00    -0.187 NA
HETATM   25  N   UNL     1      -7.059  -4.664 -35.264  1.00  0.00    -0.289 N 
HETATM   26  H   UNL     1      -7.875  -5.158 -35.611  1.00  0.00     0.188 HD
HETATM   27  C   UNL     1      -6.995  -3.408 -34.734  1.00  0.00     0.123 A 
ENDBRANCH   6  22
TORSDOF 5
ENDMDL
MODEL 2
REMARK VINA RESULT:      -8.7      2.718      9.523
REMARK  5 active torsions:
REMARK  status: ('A' for Active; 'I' for Inactive)
REMARK    1  A    between atoms: O_2  and  C_3 
REMARK    2  A    between atoms: C_5  and  C_15 
REMARK    3  A    between atoms: C_8  and  C_9 
REMARK       I    between atoms: C_15  and  N_17 
REMARK    4  A    between atoms: N_17  and  C_18 
REMARK    5  A    between atoms: C_20  and  C_21 
ROOT
HETATM    1  C   UNL     1      -2.523   4.610 -32.352  1.00  0.00     0.080 A 
HETATM    2  C   UNL     1      -3.008   3.306 -32.517  1.00  0.00     0.054 A 
HETATM    3  C   UNL     1      -4.138   2.866 -31.814  1.00  0.00     0.034 A 
HETATM    4  C   UNL     1      -4.799   3.738 -30.948  1.00  0.00     0.018 A 
HETATM    5  C   UNL     1      -4.316   5.037 -30.770  1.00  0.00     0.016 A 
HETATM    6  C   UNL     1      -3.177   5.488 -31.461  1.00  0.00     0.010 A 
ENDROOT
BRANCH   3   7
HETATM    7  C   UNL     1      -4.620   1.478 -32.058  1.00  0.00     0.252 C 
HETATM    8  O   UNL     1      -5.753   1.297 -32.493  1.00  0.00    -0.268 OA
HETATM    9  N   UNL     1      -3.725   0.460 -31.793  1.00  0.00    -0.352 N 
HETATM   10  H   UNL     1      -2.755   0.682 -31.608  1.00  0.00     0.163 HD
BRANCH   9  11
HETATM   11  C   UNL     1      -4.075  -0.916 -31.982  1.00  0.00     0.094 A 
HETATM   12  C   UNL     1      -3.009  -1.971 -31.963  1.00  0.00     0.037 A 
HETATM   13  C   UNL     1      -3.709  -1.645 -33.261  1.00  0.00     0.043 A 
BRANCH  13  14
HETATM   14  C   UNL     1      -4.664  -2.646 -33.866  1.00  0.00    -0.052 A 
HETATM   15  C   UNL     1      -5.928  -2.260 -34.343  1.00  0.00     0.007 A 
HETATM   16  C   UNL     1      -6.806  -3.187 -34.913  1.00  0.00     0.001 A 
HETATM   17  C   UNL     1      -6.433  -4.522 -35.026  1.00  0.00     0.000 A 
HETATM   18  C   UNL     1      -5.181  -4.930 -34.572  1.00  0.00     0.001 A 
HETATM   19  C   UNL     1      -4.309  -3.999 -34.003  1.00  0.00     0.007 A 
ENDBRANCH  13  14
ENDBRANCH   9  11
ENDBRANCH   3   7
BRANCH   1  20
HETATM   20  O   UNL     1      -1.424   5.095 -33.017  1.00  0.00    -0.355 OA
HETATM   21  C   UNL     1      -1.512   5.223 -34.431  1.00  0.00     0.210 C 
ENDBRANCH   1  20
BRANCH   6  22
HETATM   22  C   UNL     1      -2.711   6.852 -31.241  1.00  0.00     0.013 A 
HETATM   23  C   UNL     1      -2.883   8.031 -32.006  1.00  0.00     0.152 A 
HETATM   24  N   UNL     1      -2.290   9.096 -31.458  1.00  0.00    -0.187 NA
HETATM   25  N   UNL     1      -1.756   8.609 -30.328  1.00  0.00    -0.289 N 
HETATM   26  H   UNL     1      -1.257   9.249 -29.719  1.00  0.00     0.188 HD
HETATM   27  C   UNL     1      -1.970   7.272 -30.155  1.00  0.00     0.123 A 
ENDBRANCH   6  22
TORSDOF 5
ENDMDL
MODEL 3
REMARK VINA RESULT:      -8.7      1.415      2.365
REMARK  5 active torsions:
REMARK  status: ('A' for Active; 'I' for Inactive)
REMARK    1  A    between atoms: O_2  and  C_3 
REMARK    2  A    between atoms: C_5  and  C_15 
REMARK    3  A    between atoms: C_8  and  C_9 
REMARK       I    between atoms: C_15  and  N_17 
REMARK    4  A    between atoms: N_17  and  C_18 
REMARK    5  A    between atoms: C_20  and  C_21 
ROOT
HETATM    1  C   UNL     1      -5.891  -0.406 -34.084  1.00  0.00     0.080 A 
HETATM    2  C   UNL     1      -5.544   0.811 -33.481  1.00  0.00     0.054 A 
HETATM    3  C   UNL     1      -4.603   0.855 -32.441  1.00  0.00     0.034 A 
HETATM    4  C   UNL     1      -3.993  -0.323 -32.008  1.00  0.00     0.018 A 
HETATM    5  C   UNL     1      -4.341  -1.541 -32.597  1.00  0.00     0.016 A 
HETATM    6  C   UNL     1      -5.290  -1.601 -33.633  1.00  0.00     0.010 A 
ENDROOT
BRANCH   3   7
HETATM    7  C   UNL     1      -4.257   2.183 -31.864  1.00  0.00     0.252 C 
HETATM    8  O   UNL     1      -4.791   2.550 -30.823  1.00  0.00    -0.268 OA
HETATM    9  N   UNL     1      -3.311   2.923 -32.547  1.00  0.00    -0.352 N 
HETATM   10  H   UNL     1      -2.782   2.492 -33.295  1.00  0.00     0.163 HD
BRANCH   9  11
HETATM   11  C   UNL     1      -2.900   4.218 -32.094  1.00  0.00     0.094 A 
HETATM   12  C   UNL     1      -2.529   5.279 -33.088  1.00  0.00     0.037 A 
HETATM   13  C   UNL     1      -1.457   4.667 -32.220  1.00  0.00     0.043 A 
BRANCH  13  14
HETATM   14  C   UNL     1      -0.819   5.493 -31.127  1.00  0.00    -0.052 A 
HETATM   15  C   UNL     1      -1.070   6.870 -31.007  1.00  0.00     0.007 A 
HETATM   16  C   UNL     1      -0.487   7.630 -29.988  1.00  0.00     0.001 A 
HETATM   17  C   UNL     1       0.355   7.024 -29.061  1.00  0.00     0.000 A 
HETATM   18  C   UNL     1       0.612   5.658 -29.151  1.00  0.00     0.001 A 
HETATM   19  C   UNL     1       0.026   4.905 -30.171  1.00  0.00     0.007 A 
ENDBRANCH  13  14
ENDBRANCH   9  11
ENDBRANCH   3   7
BRANCH   1  20
HETATM   20  O   UNL     1      -6.801  -0.507 -35.106  1.00  0.00    -0.355 OA
HETATM   21  C   UNL     1      -7.965   0.308 -35.034  1.00  0.00     0.210 C 
ENDBRANCH   1  20
BRANCH   6  22
HETATM   22  C   UNL     1      -5.621  -2.897 -34.215  1.00  0.00     0.013 A 
HETATM   23  C   UNL     1      -4.807  -4.010 -34.534  1.00  0.00     0.152 A 
HETATM   24  N   UNL     1      -5.498  -5.024 -35.064  1.00  0.00    -0.187 NA
HETATM   25  N   UNL     1      -6.762  -4.573 -35.064  1.00  0.00    -0.289 N 
HETATM   26  H   UNL     1      -7.490  -5.188 -35.412  1.00  0.00     0.188 HD
HETATM   27  C   UNL     1      -6.889  -3.305 -34.577  1.00  0.00     0.123 A 
ENDBRANCH   6  22
TORSDOF 5
ENDMDL
MODEL 4
REMARK VINA RESULT:      -8.6      2.837      9.663
REMARK  5 active torsions:
REMARK  status: ('A' for Active; 'I' for Inactive)
REMARK    1  A    between atoms: O_2  and  C_3 
REMARK    2  A    between atoms: C_5  and  C_15 
REMARK    3  A    between atoms: C_8  and  C_9 
REMARK       I    between atoms: C_15  and  N_17 
REMARK    4  A    between atoms: N_17  and  C_18 
REMARK    5  A    between atoms: C_20  and  C_21 
ROOT
HETATM    1  C   UNL     1      -4.675   5.429 -32.598  1.00  0.00     0.080 A 
HETATM    2  C   UNL     1      -5.058   4.089 -32.744  1.00  0.00     0.054 A 
HETATM    3  C   UNL     1      -4.226   3.052 -32.299  1.00  0.00     0.034 A 
HETATM    4  C   UNL     1      -3.006   3.353 -31.692  1.00  0.00     0.018 A 
HETATM    5  C   UNL     1      -2.612   4.686 -31.553  1.00  0.00     0.016 A 
HETATM    6  C   UNL     1      -3.432   5.736 -32.004  1.00  0.00     0.010 A 
ENDROOT
BRANCH   3   7
HETATM    7  C   UNL     1      -4.706   1.651 -32.456  1.00  0.00     0.252 C 
HETATM    8  O   UNL     1      -5.814   1.440 -32.938  1.00  0.00    -0.268 OA
HETATM    9  N   UNL     1      -3.836   0.654 -32.061  1.00  0.00    -0.352 N 
HETATM   10  H   UNL     1      -2.875   0.886 -31.840  1.00  0.00     0.163 HD
BRANCH   9  11
HETATM   11  C   UNL     1      -4.187  -0.731 -32.157  1.00  0.00     0.094 A 
HETATM   12  C   UNL     1      -3.130  -1.786 -32.009  1.00  0.00     0.037 A 
HETATM   13  C   UNL     1      -3.771  -1.560 -33.357  1.00  0.00     0.043 A 
BRANCH  13  14
HETATM   14  C   UNL     1      -4.706  -2.602 -33.923  1.00  0.00    -0.052 A 
HETATM   15  C   UNL     1      -5.995  -2.266 -34.371  1.00  0.00     0.007 A 
HETATM   16  C   UNL     1      -6.855  -3.231 -34.905  1.00  0.00     0.001 A 
HETATM   17  C   UNL     1      -6.438  -4.554 -35.011  1.00  0.00     0.000 A 
HETATM   18  C   UNL     1      -5.162  -4.912 -34.585  1.00  0.00     0.001 A 
HETATM   19  C   UNL     1      -4.308  -3.943 -34.051  1.00  0.00     0.007 A 
ENDBRANCH  13  14
ENDBRANCH   9  11
ENDBRANCH   3   7
BRANCH   1  20
HETATM   20  O   UNL     1      -5.450   6.484 -33.012  1.00  0.00    -0.355 OA
HETATM   21  C   UNL     1      -6.719   6.652 -32.390  1.00  0.00     0.210 C 
ENDBRANCH   1  20
BRANCH   6  22
HETATM   22  C   UNL     1      -2.976   7.111 -31.836  1.00  0.00     0.013 A 
HETATM   23  C   UNL     1      -2.023   7.871 -32.556  1.00  0.00     0.152 A 
HETATM   24  N   UNL     1      -1.885   9.114 -32.082  1.00  0.00    -0.187 NA
HETATM   25  N   UNL     1      -2.768   9.163 -31.074  1.00  0.00    -0.289 N 
HETATM   26  H   UNL     1      -2.862  10.032 -30.560  1.00  0.00     0.188 HD
HETATM   27  C   UNL     1      -3.439   7.990 -30.878  1.00  0.00     0.123 A 
ENDBRANCH   6  22
TORSDOF 5
ENDMDL
MODEL 5
REMARK VINA RESULT:      -8.6      3.745     10.487
REMARK  5 active torsions:
REMARK  status: ('A' for Active; 'I' for Inactive)
REMARK    1  A    between atoms: O_2  and  C_3 
REMARK    2  A    between atoms: C_5  and  C_15 
REMARK    3  A    between atoms: C_8  and  C_9 
REMARK       I    between atoms: C_15  and  N_17 
REMARK    4  A    between atoms: N_17  and  C_18 
REMARK    5  A    between atoms: C_20  and  C_21 
ROOT
HETATM    1  C   UNL     1      -1.132   7.224 -29.135  1.00  0.00     0.080 A 
HETATM    2  C   UNL     1      -1.759   6.493 -30.153  1.00  0.00     0.054 A 
HETATM    3  C   UNL     1      -1.116   5.402 -30.755  1.00  0.00     0.034 A 
HETATM    4  C   UNL     1       0.159   5.027 -30.327  1.00  0.00     0.018 A 
HETATM    5  C   UNL     1       0.795   5.756 -29.320  1.00  0.00     0.016 A 
HETATM    6  C   UNL     1       0.166   6.860 -28.716  1.00  0.00     0.010 A 
ENDROOT
BRANCH   3   7
HETATM    7  C   UNL     1      -1.849   4.649 -31.810  1.00  0.00     0.252 C 
HETATM    8  O   UNL     1      -1.600   4.864 -32.991  1.00  0.00    -0.268 OA
HETATM    9  N   UNL     1      -2.769   3.716 -31.373  1.00  0.00    -0.352 N 
HETATM   10  H   UNL     1      -2.798   3.462 -30.394  1.00  0.00     0.163 HD
BRANCH   9  11
HETATM   11  C   UNL     1      -3.540   2.935 -32.293  1.00  0.00     0.094 A 
HETATM   12  C   UNL     1      -5.015   3.175 -32.430  1.00  0.00     0.037 A 
HETATM   13  C   UNL     1      -4.526   1.895 -31.797  1.00  0.00     0.043 A 
BRANCH  13  14
HETATM   14  C   UNL     1      -4.690   0.587 -32.536  1.00  0.00    -0.052 A 
HETATM   15  C   UNL     1      -3.831  -0.500 -32.303  1.00  0.00     0.007 A 
HETATM   16  C   UNL     1      -3.991  -1.713 -32.981  1.00  0.00     0.001 A 
HETATM   17  C   UNL     1      -5.022  -1.866 -33.902  1.00  0.00     0.000 A 
HETATM   18  C   UNL     1      -5.894  -0.808 -34.143  1.00  0.00     0.001 A 
HETATM   19  C   UNL     1      -5.729   0.401 -33.464  1.00  0.00     0.007 A 
ENDBRANCH  13  14
ENDBRANCH   9  11
ENDBRANCH   3   7
BRANCH   1  20
HETATM   20  O   UNL     1      -1.715   8.298 -28.510  1.00  0.00    -0.355 OA
HETATM   21  C   UNL     1      -1.921   9.476 -29.280  1.00  0.00     0.210 C 
ENDBRANCH   1  20
BRANCH   6  22
HETATM   22  C   UNL     1       0.872   7.589 -27.669  1.00  0.00     0.013 A 
HETATM   23  C   UNL     1       0.944   7.376 -26.271  1.00  0.00     0.152 A 
HETATM   24  N   UNL     1       1.705   8.281 -25.648  1.00  0.00    -0.187 NA
HETATM   25  N   UNL     1       2.143   9.062 -26.646  1.00  0.00    -0.289 N 
HETATM   26  H   UNL     1       2.767   9.829 -26.417  1.00  0.00     0.188 HD
HETATM   27  C   UNL     1       1.667   8.699 -27.873  1.00  0.00     0.123 A 
ENDBRANCH   6  22
TORSDOF 5
ENDMDL
MODEL 6
REMARK VINA RESULT:      -8.1      3.418      4.854
REMARK  5 active torsions:
REMARK  status: ('A' for Active; 'I' for Inactive)
REMARK    1  A    between atoms: O_2  and  C_3 
REMARK    2  A    between atoms: C_5  and  C_15 
REMARK    3  A    between atoms: C_8  and  C_9 
REMARK       I    between atoms: C_15  and  N_17 
REMARK    4  A    between atoms: N_17  and  C_18 
REMARK    5  A    between atoms: C_20  and  C_21 
ROOT
HETATM    1  C   UNL     1      -5.317   2.871 -32.390  1.00  0.00     0.080 A 
HETATM    2  C   UNL     1      -4.395   3.842 -31.975  1.00  0.00     0.054 A 
HETATM    3  C   UNL     1      -4.118   4.958 -32.777  1.00  0.00     0.034 A 
HETATM    4  C   UNL     1      -4.775   5.116 -33.998  1.00  0.00     0.018 A 
HETATM    5  C   UNL     1      -5.687   4.147 -34.424  1.00  0.00     0.016 A 
HETATM    6  C   UNL     1      -5.967   3.017 -33.635  1.00  0.00     0.010 A 
ENDROOT
BRANCH   3   7
HETATM    7  C   UNL     1      -3.151   5.968 -32.263  1.00  0.00     0.252 C 
HETATM    8  O   UNL     1      -3.195   7.119 -32.685  1.00  0.00    -0.268 OA
HETATM    9  N   UNL     1      -2.262   5.535 -31.299  1.00  0.00    -0.352 N 
HETATM   10  H   UNL     1      -2.393   4.628 -30.868  1.00  0.00     0.163 HD
BRANCH   9  11
HETATM   11  C   UNL     1      -1.281   6.412 -30.734  1.00  0.00     0.094 A 
HETATM   12  C   UNL     1       0.134   6.376 -31.232  1.00  0.00     0.037 A 
HETATM   13  C   UNL     1      -0.178   5.876 -29.842  1.00  0.00     0.043 A 
BRANCH  13  14
HETATM   14  C   UNL     1       0.284   6.670 -28.642  1.00  0.00    -0.052 A 
HETATM   15  C   UNL     1      -0.006   6.254 -27.331  1.00  0.00     0.007 A 
HETATM   16  C   UNL     1       0.432   6.985 -26.222  1.00  0.00     0.001 A 
HETATM   17  C   UNL     1       1.178   8.145 -26.402  1.00  0.00     0.000 A 
HETATM   18  C   UNL     1       1.489   8.573 -27.690  1.00  0.00     0.001 A 
HETATM   19  C   UNL     1       1.048   7.839 -28.794  1.00  0.00     0.007 A 
ENDBRANCH  13  14
ENDBRANCH   9  11
ENDBRANCH   3   7
BRANCH   1  20
HETATM   20  O   UNL     1      -5.629   1.761 -31.646  1.00  0.00    -0.355 OA
HETATM   21  C   UNL     1      -5.849   1.944 -30.252  1.00  0.00     0.210 C 
ENDBRANCH   1  20
BRANCH   6  22
HETATM   22  C   UNL     1      -6.927   2.033 -34.123  1.00  0.00     0.013 A 
HETATM   23  C   UNL     1      -6.739   0.803 -34.797  1.00  0.00     0.152 A 
HETATM   24  N   UNL     1      -7.890   0.186 -35.082  1.00  0.00    -0.187 NA
HETATM   25  N   UNL     1      -8.819   1.007 -34.569  1.00  0.00    -0.289 N 
HETATM   26  H   UNL     1      -9.793   0.737 -34.647  1.00  0.00     0.188 HD
HETATM   27  C   UNL     1      -8.297   2.130 -33.994  1.00  0.00     0.123 A 
ENDBRANCH   6  22
TORSDOF 5
ENDMDL
MODEL 7
REMARK VINA RESULT:      -7.9      3.221      9.540
REMARK  5 active torsions:
REMARK  status: ('A' for Active; 'I' for Inactive)
REMARK    1  A    between atoms: O_2  and  C_3 
REMARK    2  A    between atoms: C_5  and  C_15 
REMARK    3  A    between atoms: C_8  and  C_9 
REMARK       I    between atoms: C_15  and  N_17 
REMARK    4  A    between atoms: N_17  and  C_18 
REMARK    5  A    between atoms: C_20  and  C_21 
ROOT
HETATM    1  C   UNL     1      -4.456   5.266 -30.674  1.00  0.00     0.080 A 
HETATM    2  C   UNL     1      -4.248   4.171 -31.524  1.00  0.00     0.054 A 
HETATM    3  C   UNL     1      -4.996   2.994 -31.375  1.00  0.00     0.034 A 
HETATM    4  C   UNL     1      -5.969   2.912 -30.378  1.00  0.00     0.018 A 
HETATM    5  C   UNL     1      -6.174   3.995 -29.519  1.00  0.00     0.016 A 
HETATM    6  C   UNL     1      -5.424   5.178 -29.650  1.00  0.00     0.010 A 
ENDROOT
BRANCH   3   7
HETATM    7  C   UNL     1      -4.747   1.880 -32.331  1.00  0.00     0.252 C 
HETATM    8  O   UNL     1      -3.611   1.439 -32.466  1.00  0.00    -0.268 OA
HETATM    9  N   UNL     1      -5.850   1.386 -33.001  1.00  0.00    -0.352 N 
HETATM   10  H   UNL     1      -6.778   1.670 -32.715  1.00  0.00     0.163 HD
BRANCH   9  11
HETATM   11  C   UNL     1      -5.736   0.319 -33.950  1.00  0.00     0.094 A 
HETATM   12  C   UNL     1      -6.823   0.094 -34.960  1.00  0.00     0.037 A 
HETATM   13  C   UNL     1      -6.619  -0.909 -33.851  1.00  0.00     0.043 A 
BRANCH  13  14
HETATM   14  C   UNL     1      -6.061  -2.276 -34.173  1.00  0.00    -0.052 A 
HETATM   15  C   UNL     1      -4.726  -2.609 -33.890  1.00  0.00     0.007 A 
HETATM   16  C   UNL     1      -4.215  -3.878 -34.179  1.00  0.00     0.001 A 
HETATM   17  C   UNL     1      -5.034  -4.846 -34.752  1.00  0.00     0.000 A 
HETATM   18  C   UNL     1      -6.365  -4.545 -35.033  1.00  0.00     0.001 A 
HETATM   19  C   UNL     1      -6.869  -3.275 -34.741  1.00  0.00     0.007 A 
ENDBRANCH  13  14
ENDBRANCH   9  11
ENDBRANCH   3   7
BRANCH   1  20
HETATM   20  O   UNL     1      -3.756   6.443 -30.775  1.00  0.00    -0.355 OA
HETATM   21  C   UNL     1      -2.362   6.406 -30.491  1.00  0.00     0.210 C 
ENDBRANCH   1  20
BRANCH   6  22
HETATM   22  C   UNL     1      -5.676   6.280 -28.730  1.00  0.00     0.013 A 
HETATM   23  C   UNL     1      -5.110   6.589 -27.470  1.00  0.00     0.152 A 
HETATM   24  N   UNL     1      -5.617   7.703 -26.932  1.00  0.00    -0.187 NA
HETATM   25  N   UNL     1      -6.492   8.126 -27.858  1.00  0.00    -0.289 N 
HETATM   26  H   UNL     1      -7.001   8.985 -27.680  1.00  0.00     0.188 HD
HETATM   27  C   UNL     1      -6.573   7.307 -28.947  1.00  0.00     0.123 A 
ENDBRANCH   6  22
TORSDOF 5
ENDMDL
MODEL 8
REMARK VINA RESULT:      -7.9      1.645      2.099
REMARK  5 active torsions:
REMARK  status: ('A' for Active; 'I' for Inactive)
REMARK    1  A    between atoms: O_2  and  C_3 
REMARK    2  A    between atoms: C_5  and  C_15 
REMARK    3  A    between atoms: C_8  and  C_9 
REMARK       I    between atoms: C_15  and  N_17 
REMARK    4  A    between atoms: N_17  and  C_18 
REMARK    5  A    between atoms: C_20  and  C_21 
ROOT
HETATM    1  C   UNL     1      -5.202  -0.720 -33.241  1.00  0.00     0.080 A 
HETATM    2  C   UNL     1      -5.138   0.670 -33.070  1.00  0.00     0.054 A 
HETATM    3  C   UNL     1      -5.942   1.525 -33.838  1.00  0.00     0.034 A 
HETATM    4  C   UNL     1      -6.827   0.989 -34.774  1.00  0.00     0.018 A 
HETATM    5  C   UNL     1      -6.889  -0.394 -34.958  1.00  0.00     0.016 A 
HETATM    6  C   UNL     1      -6.081  -1.263 -34.202  1.00  0.00     0.010 A 
ENDROOT
BRANCH   3   7
HETATM    7  C   UNL     1      -5.848   2.990 -33.586  1.00  0.00     0.252 C 
HETATM    8  O   UNL     1      -6.836   3.698 -33.750  1.00  0.00    -0.268 OA
HETATM    9  N   UNL     1      -4.626   3.462 -33.147  1.00  0.00    -0.352 N 
HETATM   10  H   UNL     1      -3.909   2.806 -32.863  1.00  0.00     0.163 HD
BRANCH   9  11
HETATM   11  C   UNL     1      -4.411   4.852 -32.878  1.00  0.00     0.094 A 
HETATM   12  C   UNL     1      -3.889   5.754 -33.957  1.00  0.00     0.037 A 
HETATM   13  C   UNL     1      -3.008   5.419 -32.778  1.00  0.00     0.043 A 
BRANCH  13  14
HETATM   14  C   UNL     1      -2.689   6.486 -31.757  1.00  0.00    -0.052 A 
HETATM   15  C   UNL     1      -2.357   6.158 -30.432  1.00  0.00     0.007 A 
HETATM   16  C   UNL     1      -2.051   7.147 -29.492  1.00  0.00     0.001 A 
HETATM   17  C   UNL     1      -2.065   8.488 -29.861  1.00  0.00     0.000 A 
HETATM   18  C   UNL     1      -2.380   8.840 -31.171  1.00  0.00     0.001 A 
HETATM   19  C   UNL     1      -2.685   7.847 -32.106  1.00  0.00     0.007 A 
ENDBRANCH  13  14
ENDBRANCH   9  11
ENDBRANCH   3   7
BRANCH   1  20
HETATM   20  O   UNL     1      -4.441  -1.604 -32.516  1.00  0.00    -0.355 OA
HETATM   21  C   UNL     1      -3.188  -1.144 -32.024  1.00  0.00     0.210 C 
ENDBRANCH   1  20
BRANCH   6  22
HETATM   22  C   UNL     1      -6.182  -2.700 -34.431  1.00  0.00     0.013 A 
HETATM   23  C   UNL     1      -5.194  -3.667 -34.735  1.00  0.00     0.152 A 
HETATM   24  N   UNL     1      -5.697  -4.897 -34.873  1.00  0.00    -0.187 NA
HETATM   25  N   UNL     1      -7.006  -4.728 -34.634  1.00  0.00    -0.289 N 
HETATM   26  H   UNL     1      -7.609  -5.543 -34.665  1.00  0.00     0.188 HD
HETATM   27  C   UNL     1      -7.350  -3.432 -34.374  1.00  0.00     0.123 A 
ENDBRANCH   6  22
TORSDOF 5
ENDMDL
MODEL 9
REMARK VINA RESULT:      -7.8      9.530     15.372
REMARK  5 active torsions:
REMARK  status: ('A' for Active; 'I' for Inactive)
REMARK    1  A    between atoms: O_2  and  C_3 
REMARK    2  A    between atoms: C_5  and  C_15 
REMARK    3  A    between atoms: C_8  and  C_9 
REMARK       I    between atoms: C_15  and  N_17 
REMARK    4  A    between atoms: N_17  and  C_18 
REMARK    5  A    between atoms: C_20  and  C_21 
ROOT
HETATM    1  C   UNL     1       5.668   9.303 -22.826  1.00  0.00     0.080 A 
HETATM    2  C   UNL     1       4.760   9.398 -23.890  1.00  0.00     0.054 A 
HETATM    3  C   UNL     1       3.440   8.947 -23.749  1.00  0.00     0.034 A 
HETATM    4  C   UNL     1       3.017   8.408 -22.533  1.00  0.00     0.018 A 
HETATM    5  C   UNL     1       3.919   8.299 -21.472  1.00  0.00     0.016 A 
HETATM    6  C   UNL     1       5.249   8.738 -21.602  1.00  0.00     0.010 A 
ENDROOT
BRANCH   3   7
HETATM    7  C   UNL     1       2.517   9.106 -24.907  1.00  0.00     0.252 C 
HETATM    8  O   UNL     1       2.066  10.214 -25.176  1.00  0.00    -0.268 OA
HETATM    9  N   UNL     1       2.243   7.965 -25.636  1.00  0.00    -0.352 N 
HETATM   10  H   UNL     1       2.783   7.124 -25.472  1.00  0.00     0.163 HD
BRANCH   9  11
HETATM   11  C   UNL     1       1.365   7.990 -26.768  1.00  0.00     0.094 A 
HETATM   12  C   UNL     1      -0.119   7.893 -26.569  1.00  0.00     0.037 A 
HETATM   13  C   UNL     1       0.623   6.742 -27.206  1.00  0.00     0.043 A 
BRANCH  13  14
HETATM   14  C   UNL     1       0.427   6.450 -28.676  1.00  0.00    -0.052 A 
HETATM   15  C   UNL     1      -0.131   7.402 -29.546  1.00  0.00     0.007 A 
HETATM   16  C   UNL     1      -0.301   7.133 -30.907  1.00  0.00     0.001 A 
HETATM   17  C   UNL     1       0.092   5.905 -31.429  1.00  0.00     0.000 A 
HETATM   18  C   UNL     1       0.659   4.948 -30.591  1.00  0.00     0.001 A 
HETATM   19  C   UNL     1       0.825   5.223 -29.232  1.00  0.00     0.007 A 
ENDBRANCH  13  14
ENDBRANCH   9  11
ENDBRANCH   3   7
BRANCH   1  20
HETATM   20  O   UNL     1       6.970   9.731 -22.907  1.00  0.00    -0.355 OA
HETATM   21  C   UNL     1       7.857   8.988 -23.735  1.00  0.00     0.210 C 
ENDBRANCH   1  20
BRANCH   6  22
HETATM   22  C   UNL     1       6.153   8.603 -20.466  1.00  0.00     0.013 A 
HETATM   23  C   UNL     1       6.407   9.462 -19.370  1.00  0.00     0.152 A 
HETATM   24  N   UNL     1       7.323   8.973 -18.529  1.00  0.00    -0.187 NA
HETATM   25  N   UNL     1       7.641   7.787 -19.069  1.00  0.00    -0.289 N 
HETATM   26  H   UNL     1       8.321   7.207 -18.588  1.00  0.00     0.188 HD
HETATM   27  C   UNL     1       6.978   7.521 -20.232  1.00  0.00     0.123 A 
ENDBRANCH   6  22
TORSDOF 5
ENDMDL
MODEL 10
REMARK VINA RESULT:      -7.8     15.825     17.070
REMARK  5 active torsions:
REMARK  status: ('A' for Active; 'I' for Inactive)
REMARK    1  A    between atoms: O_2  and  C_3 
REMARK    2  A    between atoms: C_5  and  C_15 
REMARK    3  A    between atoms: C_8  and  C_9 
REMARK       I    between atoms: C_15  and  N_17 
REMARK    4  A    between atoms: N_17  and  C_18 
REMARK    5  A    between atoms: C_20  and  C_21 
ROOT
HETATM    1  C   UNL     1      -6.965 -13.142 -39.777  1.00  0.00     0.080 A 
HETATM    2  C   UNL     1      -5.737 -13.175 -39.101  1.00  0.00     0.054 A 
HETATM    3  C   UNL     1      -5.689 -13.282 -37.704  1.00  0.00     0.034 A 
HETATM    4  C   UNL     1      -6.875 -13.370 -36.974  1.00  0.00     0.018 A 
HETATM    5  C   UNL     1      -8.103 -13.326 -37.639  1.00  0.00     0.016 A 
HETATM    6  C   UNL     1      -8.167 -13.209 -39.039  1.00  0.00     0.010 A 
ENDROOT
BRANCH   3   7
HETATM    7  C   UNL     1      -4.352 -13.342 -37.051  1.00  0.00     0.252 C 
HETATM    8  O   UNL     1      -4.263 -13.183 -35.838  1.00  0.00    -0.268 OA
HETATM    9  N   UNL     1      -3.276 -13.607 -37.875  1.00  0.00    -0.352 N 
HETATM   10  H   UNL     1      -3.437 -13.903 -38.829  1.00  0.00     0.163 HD
BRANCH   9  11
HETATM   11  C   UNL     1      -1.940 -13.684 -37.364  1.00  0.00     0.094 A 
HETATM   12  C   UNL     1      -0.771 -13.576 -38.298  1.00  0.00     0.037 A 
HETATM   13  C   UNL     1      -1.071 -14.897 -37.632  1.00  0.00     0.043 A 
BRANCH  13  14
HETATM   14  C   UNL     1      -0.144 -15.421 -36.561  1.00  0.00    -0.052 A 
HETATM   15  C   UNL     1      -0.511 -15.417 -35.204  1.00  0.00     0.007 A 
HETATM   16  C   UNL     1       0.345 -15.912 -34.216  1.00  0.00     0.001 A 
HETATM   17  C   UNL     1       1.587 -16.432 -34.567  1.00  0.00     0.000 A 
HETATM   18  C   UNL     1       1.971 -16.458 -35.905  1.00  0.00     0.001 A 
HETATM   19  C   UNL     1       1.112 -15.961 -36.887  1.00  0.00     0.007 A 
ENDBRANCH  13  14
ENDBRANCH   9  11
ENDBRANCH   3   7
BRANCH   1  20
HETATM   20  O   UNL     1      -7.072 -13.041 -41.142  1.00  0.00    -0.355 OA
HETATM   21  C   UNL     1      -5.961 -13.469 -41.922  1.00  0.00     0.210 C 
ENDBRANCH   1  20
BRANCH   6  22
HETATM   22  C   UNL     1      -9.473 -13.168 -39.687  1.00  0.00     0.013 A 
HETATM   23  C   UNL     1     -10.376 -14.202 -40.030  1.00  0.00     0.152 A 
HETATM   24  N   UNL     1     -11.484 -13.747 -40.624  1.00  0.00    -0.187 NA
HETATM   25  N   UNL     1     -11.306 -12.418 -40.641  1.00  0.00    -0.289 N 
HETATM   26  H   UNL     1     -12.040 -11.841 -41.037  1.00  0.00     0.188 HD
HETATM   27  C   UNL     1     -10.116 -12.020 -40.103  1.00  0.00     0.123 A 
ENDBRANCH   6  22
TORSDOF 5
ENDMDL
