MODEL 1
REMARK VINA RESULT:      -9.4      0.000      0.000
REMARK  8 active torsions:
REMARK  status: ('A' for Active; 'I' for Inactive)
REMARK    1  A    between atoms: C_6  and  N_7 
REMARK       I    between atoms: N_7  and  C_8 
REMARK    2  A    between atoms: C_8  and  C_9 
REMARK    3  A    between atoms: C_9  and  N_10 
REMARK    4  A    between atoms: C_13  and  C_14 
REMARK       I    between atoms: C_14  and  N_15 
REMARK    5  A    between atoms: N_15  and  C_16 
REMARK    6  A    between atoms: C_16  and  C_17 
REMARK    7  A    between atoms: C_20  and  O_21 
REMARK    8  A    between atoms: C_26  and  N_27 
ROOT
HETATM    1  N   UNL     1      -5.926   3.644 -32.859  1.00  0.00    -0.248 N 
HETATM    2  N   UNL     1      -6.317   3.972 -34.109  1.00  0.00     0.007 NA
HETATM    3  N   UNL     1      -5.336   4.670 -34.658  1.00  0.00    -0.150 NA
HETATM    4  C   UNL     1      -4.318   4.795 -33.734  1.00  0.00     0.186 A 
HETATM    5  C   UNL     1      -4.677   4.132 -32.572  1.00  0.00     0.151 A 
ENDROOT
BRANCH   1   6
HETATM    6  C   UNL     1      -6.835   2.905 -32.017  1.00  0.00     0.251 C 
BRANCH   6   7
HETATM    7  C   UNL     1      -6.617   1.413 -32.125  1.00  0.00     0.241 C 
HETATM    8  N   UNL     1      -6.038   1.010 -33.319  1.00  0.00    -0.325 N 
HETATM    9  H   UNL     1      -5.986   1.724 -34.038  1.00  0.00     0.169 HD
HETATM   10  O   UNL     1      -7.056   0.673 -31.247  1.00  0.00    -0.271 OA
BRANCH   8  11
HETATM   11  C   UNL     1      -5.829  -0.321 -33.756  1.00  0.00     0.046 A 
HETATM   12  C   UNL     1      -6.808  -0.877 -34.617  1.00  0.00    -0.034 A 
HETATM   13  C   UNL     1      -6.703  -2.219 -35.023  1.00  0.00     0.015 A 
HETATM   14  C   UNL     1      -8.007  -0.092 -35.090  1.00  0.00     0.050 C 
HETATM   15  C   UNL     1      -5.637  -3.015 -34.609  1.00  0.00    -0.061 A 
HETATM   16  C   UNL     1      -5.544  -4.458 -35.006  1.00  0.00     0.048 C 
HETATM   17  C   UNL     1      -4.641  -2.442 -33.815  1.00  0.00     0.015 A 
HETATM   18  C   UNL     1      -4.700  -1.092 -33.413  1.00  0.00    -0.034 A 
HETATM   19  C   UNL     1      -3.492  -0.561 -32.688  1.00  0.00     0.050 C 
ENDBRANCH   8  11
ENDBRANCH   6   7
ENDBRANCH   1   6
BRANCH   5  20
HETATM   20  N   UNL     1      -4.049   3.962 -31.387  1.00  0.00    -0.382 N 
HETATM   21  H   UNL     1      -4.449   3.305 -30.710  1.00  0.00     0.157 HD
HETATM   22  H   UNL     1      -3.457   4.663 -30.950  1.00  0.00     0.157 HD
ENDBRANCH   5  20
BRANCH   4  23
HETATM   23  C   UNL     1      -3.094   5.533 -34.014  1.00  0.00     0.275 C 
HETATM   24  N   UNL     1      -2.964   6.660 -33.242  1.00  0.00    -0.351 N 
HETATM   25  H   UNL     1      -3.730   6.898 -32.619  1.00  0.00     0.163 HD
HETATM   26  O   UNL     1      -2.261   5.179 -34.843  1.00  0.00    -0.266 OA
BRANCH  24  27
HETATM   27  C   UNL     1      -1.810   7.519 -33.293  1.00  0.00     0.161 C 
BRANCH  27  28
HETATM   28  C   UNL     1      -1.140   7.549 -31.945  1.00  0.00    -0.040 A 
HETATM   29  C   UNL     1       0.048   6.835 -31.739  1.00  0.00     0.011 A 
HETATM   30  C   UNL     1       0.633   6.788 -30.473  1.00  0.00     0.037 A 
HETATM   31  C   UNL     1       0.044   7.446 -29.392  1.00  0.00     0.068 A 
HETATM   32  C   UNL     1      -1.130   8.172 -29.594  1.00  0.00     0.037 A 
HETATM   33  C   UNL     1      -1.722   8.220 -30.862  1.00  0.00     0.011 A 
BRANCH  31  34
HETATM   34  O   UNL     1       0.708   7.301 -28.205  1.00  0.00    -0.356 OA
HETATM   35  C   UNL     1       1.438   8.428 -27.738  1.00  0.00     0.210 C 
ENDBRANCH  31  34
ENDBRANCH  27  28
ENDBRANCH  24  27
ENDBRANCH   4  23
TORSDOF 8
ENDMDL
MODEL 2
REMARK VINA RESULT:      -9.3      1.700      2.425
REMARK  8 active torsions:
REMARK  status: ('A' for Active; 'I' for Inactive)
REMARK    1  A    between atoms: C_6  and  N_7 
REMARK       I    between atoms: N_7  and  C_8 
REMARK    2  A    between atoms: C_8  and  C_9 
REMARK    3  A    between atoms: C_9  and  N_10 
REMARK    4  A    between atoms: C_13  and  C_14 
REMARK       I    between atoms: C_14  and  N_15 
REMARK    5  A    between atoms: N_15  and  C_16 
REMARK    6  A    between atoms: C_16  and  C_17 
REMARK    7  A    between atoms: C_20  and  O_21 
REMARK    8  A    between atoms: C_26  and  N_27 
ROOT
HETATM    1  N   UNL     1      -4.730   3.202 -31.556  1.00  0.00    -0.248 N 
HETATM    2  N   UNL     1      -3.767   2.306 -31.252  1.00  0.00     0.007 NA
HETATM    3  N   UNL     1      -2.615   2.957 -31.233  1.00  0.00    -0.150 NA
HETATM    4  C   UNL     1      -2.857   4.281 -31.544  1.00  0.00     0.186 A 
HETATM    5  C   UNL     1      -4.215   4.459 -31.747  1.00  0.00     0.151 A 
ENDROOT
BRANCH   1   6
HETATM    6  C   UNL     1      -6.093   2.744 -31.681  1.00  0.00     0.251 C 
BRANCH   6   7
HETATM    7  C   UNL     1      -6.166   1.254 -31.930  1.00  0.00     0.241 C 
HETATM    8  N   UNL     1      -5.607   0.853 -33.134  1.00  0.00    -0.325 N 
HETATM    9  H   UNL     1      -5.373   1.605 -33.775  1.00  0.00     0.169 HD
HETATM   10  O   UNL     1      -6.793   0.542 -31.149  1.00  0.00    -0.271 OA
BRANCH   8  11
HETATM   11  C   UNL     1      -5.637  -0.448 -33.694  1.00  0.00     0.046 A 
HETATM   12  C   UNL     1      -6.685  -0.730 -34.606  1.00  0.00    -0.034 A 
HETATM   13  C   UNL     1      -6.821  -2.026 -35.136  1.00  0.00     0.015 A 
HETATM   14  C   UNL     1      -7.709   0.303 -35.006  1.00  0.00     0.050 C 
HETATM   15  C   UNL     1      -5.927  -3.040 -34.797  1.00  0.00    -0.061 A 
HETATM   16  C   UNL     1      -6.093  -4.432 -35.328  1.00  0.00     0.048 C 
HETATM   17  C   UNL     1      -4.859  -2.736 -33.950  1.00  0.00     0.015 A 
HETATM   18  C   UNL     1      -4.677  -1.442 -33.423  1.00  0.00    -0.034 A 
HETATM   19  C   UNL     1      -3.407  -1.212 -32.648  1.00  0.00     0.050 C 
ENDBRANCH   8  11
ENDBRANCH   6   7
ENDBRANCH   1   6
BRANCH   5  20
HETATM   20  N   UNL     1      -4.956   5.541 -32.075  1.00  0.00    -0.382 N 
HETATM   21  H   UNL     1      -5.696   5.841 -31.434  1.00  0.00     0.157 HD
HETATM   22  H   UNL     1      -5.109   5.859 -33.028  1.00  0.00     0.157 HD
ENDBRANCH   5  20
BRANCH   4  23
HETATM   23  C   UNL     1      -1.791   5.270 -31.635  1.00  0.00     0.275 C 
HETATM   24  N   UNL     1      -0.858   5.141 -30.636  1.00  0.00    -0.351 N 
HETATM   25  H   UNL     1      -1.024   4.437 -29.923  1.00  0.00     0.163 HD
HETATM   26  O   UNL     1      -1.728   6.123 -32.515  1.00  0.00    -0.266 OA
BRANCH  24  27
HETATM   27  C   UNL     1       0.320   5.964 -30.549  1.00  0.00     0.161 C 
BRANCH  27  28
HETATM   28  C   UNL     1       0.387   6.609 -29.191  1.00  0.00    -0.040 A 
HETATM   29  C   UNL     1       1.003   7.859 -29.041  1.00  0.00     0.011 A 
HETATM   30  C   UNL     1       1.144   8.431 -27.775  1.00  0.00     0.037 A 
HETATM   31  C   UNL     1       0.679   7.765 -26.640  1.00  0.00     0.068 A 
HETATM   32  C   UNL     1       0.050   6.529 -26.783  1.00  0.00     0.037 A 
HETATM   33  C   UNL     1      -0.091   5.951 -28.051  1.00  0.00     0.011 A 
BRANCH  31  34
HETATM   34  O   UNL     1       0.900   8.425 -25.462  1.00  0.00    -0.356 OA
HETATM   35  C   UNL     1       2.256   8.644 -25.095  1.00  0.00     0.210 C 
ENDBRANCH  31  34
ENDBRANCH  27  28
ENDBRANCH  24  27
ENDBRANCH   4  23
TORSDOF 8
ENDMDL
MODEL 3
REMARK VINA RESULT:      -9.0      1.810      9.832
REMARK  8 active torsions:
REMARK  status: ('A' for Active; 'I' for Inactive)
REMARK    1  A    between atoms: C_6  and  N_7 
REMARK       I    between atoms: N_7  and  C_8 
REMARK    2  A    between atoms: C_8  and  C_9 
REMARK    3  A    between atoms: C_9  and  N_10 
REMARK    4  A    between atoms: C_13  and  C_14 
REMARK       I    between atoms: C_14  and  N_15 
REMARK    5  A    between atoms: N_15  and  C_16 
REMARK    6  A    between atoms: C_16  and  C_17 
REMARK    7  A    between atoms: C_20  and  O_21 
REMARK    8  A    between atoms: C_26  and  N_27 
ROOT
HETATM    1  N   UNL     1      -3.338   5.061 -33.458  1.00  0.00    -0.248 N 
HETATM    2  N   UNL     1      -2.404   4.133 -33.155  1.00  0.00     0.007 NA
HETATM    3  N   UNL     1      -3.038   3.083 -32.659  1.00  0.00    -0.150 NA
HETATM    4  C   UNL     1      -4.391   3.360 -32.637  1.00  0.00     0.186 A 
HETATM    5  C   UNL     1      -4.603   4.626 -33.157  1.00  0.00     0.151 A 
ENDROOT
BRANCH   1   6
HETATM    6  C   UNL     1      -2.910   6.333 -33.986  1.00  0.00     0.251 C 
BRANCH   6   7
HETATM    7  C   UNL     1      -1.902   7.008 -33.083  1.00  0.00     0.241 C 
HETATM    8  N   UNL     1      -2.000   6.639 -31.749  1.00  0.00    -0.325 N 
HETATM    9  H   UNL     1      -2.828   6.104 -31.507  1.00  0.00     0.169 HD
HETATM   10  O   UNL     1      -1.176   7.888 -33.540  1.00  0.00    -0.271 OA
BRANCH   8  11
HETATM   11  C   UNL     1      -1.282   7.191 -30.660  1.00  0.00     0.046 A 
HETATM   12  C   UNL     1      -0.072   6.550 -30.296  1.00  0.00    -0.034 A 
HETATM   13  C   UNL     1       0.648   6.998 -29.173  1.00  0.00     0.015 A 
HETATM   14  C   UNL     1       0.468   5.357 -31.045  1.00  0.00     0.050 C 
HETATM   15  C   UNL     1       0.202   8.080 -28.418  1.00  0.00    -0.061 A 
HETATM   16  C   UNL     1       0.945   8.534 -27.197  1.00  0.00     0.048 C 
HETATM   17  C   UNL     1      -0.956   8.748 -28.821  1.00  0.00     0.015 A 
HETATM   18  C   UNL     1      -1.686   8.344 -29.957  1.00  0.00    -0.034 A 
HETATM   19  C   UNL     1      -2.826   9.237 -30.368  1.00  0.00     0.050 C 
ENDBRANCH   8  11
ENDBRANCH   6   7
ENDBRANCH   1   6
BRANCH   5  20
HETATM   20  N   UNL     1      -5.723   5.359 -33.346  1.00  0.00    -0.382 N 
HETATM   21  H   UNL     1      -6.054   5.955 -32.581  1.00  0.00     0.157 HD
HETATM   22  H   UNL     1      -6.462   5.113 -33.999  1.00  0.00     0.157 HD
ENDBRANCH   5  20
BRANCH   4  23
HETATM   23  C   UNL     1      -5.374   2.416 -32.123  1.00  0.00     0.275 C 
HETATM   24  N   UNL     1      -5.873   1.585 -33.094  1.00  0.00    -0.351 N 
HETATM   25  H   UNL     1      -5.570   1.740 -34.050  1.00  0.00     0.163 HD
HETATM   26  O   UNL     1      -5.712   2.362 -30.944  1.00  0.00    -0.266 OA
BRANCH  24  27
HETATM   27  C   UNL     1      -6.812   0.529 -32.818  1.00  0.00     0.161 C 
BRANCH  27  28
HETATM   28  C   UNL     1      -6.244  -0.787 -33.279  1.00  0.00    -0.040 A 
HETATM   29  C   UNL     1      -4.910  -1.108 -32.997  1.00  0.00     0.011 A 
HETATM   30  C   UNL     1      -4.348  -2.288 -33.489  1.00  0.00     0.037 A 
HETATM   31  C   UNL     1      -5.103  -3.162 -34.272  1.00  0.00     0.068 A 
HETATM   32  C   UNL     1      -6.437  -2.857 -34.541  1.00  0.00     0.037 A 
HETATM   33  C   UNL     1      -7.003  -1.673 -34.052  1.00  0.00     0.011 A 
BRANCH  31  34
HETATM   34  O   UNL     1      -4.426  -4.268 -34.706  1.00  0.00    -0.356 OA
HETATM   35  C   UNL     1      -3.562  -4.899 -33.769  1.00  0.00     0.210 C 
ENDBRANCH  31  34
ENDBRANCH  27  28
ENDBRANCH  24  27
ENDBRANCH   4  23
TORSDOF 8
ENDMDL
MODEL 4
REMARK VINA RESULT:      -9.0      1.901      3.079
REMARK  8 active torsions:
REMARK  status: ('A' for Active; 'I' for Inactive)
REMARK    1  A    between atoms: C_6  and  N_7 
REMARK       I    between atoms: N_7  and  C_8 
REMARK    2  A    between atoms: C_8  and  C_9 
REMARK    3  A    between atoms: C_9  and  N_10 
REMARK    4  A    between atoms: C_13  and  C_14 
REMARK       I    between atoms: C_14  and  N_15 
REMARK    5  A    between atoms: N_15  and  C_16 
REMARK    6  A    between atoms: C_16  and  C_17 
REMARK    7  A    between atoms: C_20  and  O_21 
REMARK    8  A    between atoms: C_26  and  N_27 
ROOT
HETATM    1  N   UNL     1      -4.610   3.639 -31.873  1.00  0.00    -0.248 N 
HETATM    2  N   UNL     1      -3.903   2.592 -31.395  1.00  0.00     0.007 NA
HETATM    3  N   UNL     1      -2.661   3.010 -31.206  1.00  0.00    -0.150 NA
HETATM    4  C   UNL     1      -2.584   4.335 -31.584  1.00  0.00     0.186 A 
HETATM    5  C   UNL     1      -3.832   4.760 -32.007  1.00  0.00     0.151 A 
ENDROOT
BRANCH   1   6
HETATM    6  C   UNL     1      -6.000   3.445 -32.205  1.00  0.00     0.251 C 
BRANCH   6   7
HETATM    7  C   UNL     1      -6.199   2.276 -33.144  1.00  0.00     0.241 C 
HETATM    8  N   UNL     1      -6.117   1.036 -32.528  1.00  0.00    -0.325 N 
HETATM    9  H   UNL     1      -5.770   1.047 -31.574  1.00  0.00     0.169 HD
HETATM   10  O   UNL     1      -6.293   2.481 -34.352  1.00  0.00    -0.271 OA
BRANCH   8  11
HETATM   11  C   UNL     1      -6.136  -0.231 -33.162  1.00  0.00     0.046 A 
HETATM   12  C   UNL     1      -4.897  -0.909 -33.280  1.00  0.00    -0.034 A 
HETATM   13  C   UNL     1      -4.832  -2.134 -33.969  1.00  0.00     0.015 A 
HETATM   14  C   UNL     1      -3.611  -0.346 -32.728  1.00  0.00     0.050 C 
HETATM   15  C   UNL     1      -5.973  -2.708 -34.526  1.00  0.00    -0.061 A 
HETATM   16  C   UNL     1      -5.901  -3.991 -35.297  1.00  0.00     0.048 C 
HETATM   17  C   UNL     1      -7.201  -2.066 -34.349  1.00  0.00     0.015 A 
HETATM   18  C   UNL     1      -7.307  -0.853 -33.640  1.00  0.00    -0.034 A 
HETATM   19  C   UNL     1      -8.703  -0.346 -33.393  1.00  0.00     0.050 C 
ENDBRANCH   8  11
ENDBRANCH   6   7
ENDBRANCH   1   6
BRANCH   5  20
HETATM   20  N   UNL     1      -4.283   5.945 -32.477  1.00  0.00    -0.382 N 
HETATM   21  H   UNL     1      -3.884   6.808 -32.096  1.00  0.00     0.157 HD
HETATM   22  H   UNL     1      -5.206   6.084 -32.881  1.00  0.00     0.157 HD
ENDBRANCH   5  20
BRANCH   4  23
HETATM   23  C   UNL     1      -1.342   5.094 -31.524  1.00  0.00     0.275 C 
HETATM   24  N   UNL     1      -0.708   4.984 -30.312  1.00  0.00    -0.351 N 
HETATM   25  H   UNL     1      -1.175   4.456 -29.581  1.00  0.00     0.163 HD
HETATM   26  O   UNL     1      -0.903   5.755 -32.460  1.00  0.00    -0.266 OA
BRANCH  24  27
HETATM   27  C   UNL     1       0.566   5.593 -30.032  1.00  0.00     0.161 C 
BRANCH  27  28
HETATM   28  C   UNL     1       0.446   6.485 -28.825  1.00  0.00    -0.040 A 
HETATM   29  C   UNL     1       0.947   7.792 -28.869  1.00  0.00     0.011 A 
HETATM   30  C   UNL     1       0.916   8.601 -27.732  1.00  0.00     0.037 A 
HETATM   31  C   UNL     1       0.390   8.119 -26.532  1.00  0.00     0.068 A 
HETATM   32  C   UNL     1      -0.125   6.824 -26.485  1.00  0.00     0.037 A 
HETATM   33  C   UNL     1      -0.093   6.009 -27.623  1.00  0.00     0.011 A 
BRANCH  31  34
HETATM   34  O   UNL     1       0.440   9.005 -25.491  1.00  0.00    -0.356 OA
HETATM   35  C   UNL     1       1.466   9.989 -25.536  1.00  0.00     0.210 C 
ENDBRANCH  31  34
ENDBRANCH  27  28
ENDBRANCH  24  27
ENDBRANCH   4  23
TORSDOF 8
ENDMDL
MODEL 5
REMARK VINA RESULT:      -8.9      1.306      2.141
REMARK  8 active torsions:
REMARK  status: ('A' for Active; 'I' for Inactive)
REMARK    1  A    between atoms: C_6  and  N_7 
REMARK       I    between atoms: N_7  and  C_8 
REMARK    2  A    between atoms: C_8  and  C_9 
REMARK    3  A    between atoms: C_9  and  N_10 
REMARK    4  A    between atoms: C_13  and  C_14 
REMARK       I    between atoms: C_14  and  N_15 
REMARK    5  A    between atoms: N_15  and  C_16 
REMARK    6  A    between atoms: C_16  and  C_17 
REMARK    7  A    between atoms: C_20  and  O_21 
REMARK    8  A    between atoms: C_26  and  N_27 
ROOT
HETATM    1  N   UNL     1      -5.887   3.534 -32.428  1.00  0.00    -0.248 N 
HETATM    2  N   UNL     1      -5.933   3.712 -33.766  1.00  0.00     0.007 NA
HETATM    3  N   UNL     1      -4.895   4.462 -34.100  1.00  0.00    -0.150 NA
HETATM    4  C   UNL     1      -4.193   4.772 -32.951  1.00  0.00     0.186 A 
HETATM    5  C   UNL     1      -4.813   4.174 -31.866  1.00  0.00     0.151 A 
ENDROOT
BRANCH   1   6
HETATM    6  C   UNL     1      -6.936   2.776 -31.791  1.00  0.00     0.251 C 
BRANCH   6   7
HETATM    7  C   UNL     1      -6.661   1.290 -31.827  1.00  0.00     0.241 C 
HETATM    8  N   UNL     1      -5.648   0.923 -32.701  1.00  0.00    -0.325 N 
HETATM    9  H   UNL     1      -5.332   1.655 -33.330  1.00  0.00     0.169 HD
HETATM   10  O   UNL     1      -7.394   0.524 -31.205  1.00  0.00    -0.271 OA
BRANCH   8  11
HETATM   11  C   UNL     1      -5.253  -0.395 -33.040  1.00  0.00     0.046 A 
HETATM   12  C   UNL     1      -4.193  -0.962 -32.290  1.00  0.00    -0.034 A 
HETATM   13  C   UNL     1      -3.699  -2.235 -32.628  1.00  0.00     0.015 A 
HETATM   14  C   UNL     1      -3.526  -0.230 -31.152  1.00  0.00     0.050 C 
HETATM   15  C   UNL     1      -4.249  -2.964 -33.681  1.00  0.00    -0.061 A 
HETATM   16  C   UNL     1      -3.698  -4.303 -34.070  1.00  0.00     0.048 C 
HETATM   17  C   UNL     1      -5.336  -2.426 -34.372  1.00  0.00     0.015 A 
HETATM   18  C   UNL     1      -5.874  -1.167 -34.042  1.00  0.00    -0.034 A 
HETATM   19  C   UNL     1      -7.136  -0.772 -34.764  1.00  0.00     0.050 C 
ENDBRANCH   8  11
ENDBRANCH   6   7
ENDBRANCH   1   6
BRANCH   5  20
HETATM   20  N   UNL     1      -4.535   4.173 -30.543  1.00  0.00    -0.382 N 
HETATM   21  H   UNL     1      -5.297   4.349 -29.882  1.00  0.00     0.157 HD
HETATM   22  H   UNL     1      -3.620   4.382 -30.152  1.00  0.00     0.157 HD
ENDBRANCH   5  20
BRANCH   4  23
HETATM   23  C   UNL     1      -3.002   5.610 -32.965  1.00  0.00     0.275 C 
HETATM   24  N   UNL     1      -1.856   4.911 -32.680  1.00  0.00    -0.351 N 
HETATM   25  H   UNL     1      -1.949   3.930 -32.436  1.00  0.00     0.163 HD
HETATM   26  O   UNL     1      -3.019   6.811 -33.215  1.00  0.00    -0.266 OA
BRANCH  24  27
HETATM   27  C   UNL     1      -0.546   5.509 -32.693  1.00  0.00     0.161 C 
BRANCH  27  28
HETATM   28  C   UNL     1      -0.144   5.878 -31.291  1.00  0.00    -0.040 A 
HETATM   29  C   UNL     1       0.457   4.921 -30.462  1.00  0.00     0.011 A 
HETATM   30  C   UNL     1       0.760   5.227 -29.133  1.00  0.00     0.037 A 
HETATM   31  C   UNL     1       0.466   6.486 -28.609  1.00  0.00     0.068 A 
HETATM   32  C   UNL     1      -0.117   7.449 -29.433  1.00  0.00     0.037 A 
HETATM   33  C   UNL     1      -0.425   7.145 -30.765  1.00  0.00     0.011 A 
BRANCH  31  34
HETATM   34  O   UNL     1       0.794   6.646 -27.291  1.00  0.00    -0.356 OA
HETATM   35  C   UNL     1      -0.270   6.562 -26.352  1.00  0.00     0.210 C 
ENDBRANCH  31  34
ENDBRANCH  27  28
ENDBRANCH  24  27
ENDBRANCH   4  23
TORSDOF 8
ENDMDL
MODEL 6
REMARK VINA RESULT:      -8.6      1.983     10.216
REMARK  8 active torsions:
REMARK  status: ('A' for Active; 'I' for Inactive)
REMARK    1  A    between atoms: C_6  and  N_7 
REMARK       I    between atoms: N_7  and  C_8 
REMARK    2  A    between atoms: C_8  and  C_9 
REMARK    3  A    between atoms: C_9  and  N_10 
REMARK    4  A    between atoms: C_13  and  C_14 
REMARK       I    between atoms: C_14  and  N_15 
REMARK    5  A    between atoms: N_15  and  C_16 
REMARK    6  A    between atoms: C_16  and  C_17 
REMARK    7  A    between atoms: C_20  and  O_21 
REMARK    8  A    between atoms: C_26  and  N_27 
ROOT
HETATM    1  N   UNL     1      -2.782   5.151 -32.093  1.00  0.00    -0.248 N 
HETATM    2  N   UNL     1      -1.935   4.123 -31.866  1.00  0.00     0.007 NA
HETATM    3  N   UNL     1      -2.668   3.079 -31.517  1.00  0.00    -0.150 NA
HETATM    4  C   UNL     1      -3.996   3.459 -31.510  1.00  0.00     0.186 A 
HETATM    5  C   UNL     1      -4.089   4.789 -31.888  1.00  0.00     0.151 A 
ENDROOT
BRANCH   1   6
HETATM    6  C   UNL     1      -2.236   6.435 -32.457  1.00  0.00     0.251 C 
BRANCH   6   7
HETATM    7  C   UNL     1      -1.102   6.845 -31.544  1.00  0.00     0.241 C 
HETATM    8  N   UNL     1      -1.454   6.925 -30.204  1.00  0.00    -0.325 N 
HETATM    9  H   UNL     1      -2.450   6.870 -30.014  1.00  0.00     0.169 HD
HETATM   10  O   UNL     1      -0.026   7.184 -32.031  1.00  0.00    -0.271 OA
BRANCH   8  11
HETATM   11  C   UNL     1      -0.648   7.399 -29.140  1.00  0.00     0.046 A 
HETATM   12  C   UNL     1      -0.974   8.669 -28.603  1.00  0.00    -0.034 A 
HETATM   13  C   UNL     1      -0.166   9.234 -27.600  1.00  0.00     0.015 A 
HETATM   14  C   UNL     1      -2.145   9.480 -29.100  1.00  0.00     0.050 C 
HETATM   15  C   UNL     1       0.946   8.556 -27.105  1.00  0.00    -0.061 A 
HETATM   16  C   UNL     1       1.833   9.172 -26.066  1.00  0.00     0.048 C 
HETATM   17  C   UNL     1       1.223   7.277 -27.592  1.00  0.00     0.015 A 
HETATM   18  C   UNL     1       0.418   6.669 -28.577  1.00  0.00    -0.034 A 
HETATM   19  C   UNL     1       0.736   5.234 -28.904  1.00  0.00     0.050 C 
ENDBRANCH   8  11
ENDBRANCH   6   7
ENDBRANCH   1   6
BRANCH   5  20
HETATM   20  N   UNL     1      -5.140   5.626 -32.030  1.00  0.00    -0.382 N 
HETATM   21  H   UNL     1      -5.089   6.554 -31.600  1.00  0.00     0.157 HD
HETATM   22  H   UNL     1      -6.096   5.319 -32.190  1.00  0.00     0.157 HD
ENDBRANCH   5  20
BRANCH   4  23
HETATM   23  C   UNL     1      -5.069   2.546 -31.142  1.00  0.00     0.275 C 
HETATM   24  N   UNL     1      -5.813   2.135 -32.220  1.00  0.00    -0.351 N 
HETATM   25  H   UNL     1      -5.593   2.537 -33.126  1.00  0.00     0.163 HD
HETATM   26  O   UNL     1      -5.281   2.175 -29.991  1.00  0.00    -0.266 OA
BRANCH  24  27
HETATM   27  C   UNL     1      -6.889   1.185 -32.116  1.00  0.00     0.161 C 
BRANCH  27  28
HETATM   28  C   UNL     1      -6.578  -0.026 -32.955  1.00  0.00    -0.040 A 
HETATM   29  C   UNL     1      -5.429  -0.783 -32.690  1.00  0.00     0.011 A 
HETATM   30  C   UNL     1      -5.086  -1.858 -33.511  1.00  0.00     0.037 A 
HETATM   31  C   UNL     1      -5.878  -2.194 -34.610  1.00  0.00     0.068 A 
HETATM   32  C   UNL     1      -7.032  -1.456 -34.869  1.00  0.00     0.037 A 
HETATM   33  C   UNL     1      -7.378  -0.374 -34.050  1.00  0.00     0.011 A 
BRANCH  31  34
HETATM   34  O   UNL     1      -5.418  -3.254 -35.342  1.00  0.00    -0.356 OA
HETATM   35  C   UNL     1      -6.045  -4.510 -35.115  1.00  0.00     0.210 C 
ENDBRANCH  31  34
ENDBRANCH  27  28
ENDBRANCH  24  27
ENDBRANCH   4  23
TORSDOF 8
ENDMDL
MODEL 7
REMARK VINA RESULT:      -8.2      2.086      9.611
REMARK  8 active torsions:
REMARK  status: ('A' for Active; 'I' for Inactive)
REMARK    1  A    between atoms: C_6  and  N_7 
REMARK       I    between atoms: N_7  and  C_8 
REMARK    2  A    between atoms: C_8  and  C_9 
REMARK    3  A    between atoms: C_9  and  N_10 
REMARK    4  A    between atoms: C_13  and  C_14 
REMARK       I    between atoms: C_14  and  N_15 
REMARK    5  A    between atoms: N_15  and  C_16 
REMARK    6  A    between atoms: C_16  and  C_17 
REMARK    7  A    between atoms: C_20  and  O_21 
REMARK    8  A    between atoms: C_26  and  N_27 
ROOT
HETATM    1  N   UNL     1      -3.730   6.274 -33.504  1.00  0.00    -0.248 N 
HETATM    2  N   UNL     1      -4.359   6.683 -32.380  1.00  0.00     0.007 NA
HETATM    3  N   UNL     1      -5.524   6.059 -32.331  1.00  0.00    -0.150 NA
HETATM    4  C   UNL     1      -5.637   5.256 -33.449  1.00  0.00     0.186 A 
HETATM    5  C   UNL     1      -4.486   5.374 -34.211  1.00  0.00     0.151 A 
ENDROOT
BRANCH   1   6
HETATM    6  C   UNL     1      -2.441   6.835 -33.824  1.00  0.00     0.251 C 
BRANCH   6   7
HETATM    7  C   UNL     1      -1.748   7.391 -32.600  1.00  0.00     0.241 C 
HETATM    8  N   UNL     1      -1.593   6.474 -31.571  1.00  0.00    -0.325 N 
HETATM    9  H   UNL     1      -2.104   5.604 -31.685  1.00  0.00     0.169 HD
HETATM   10  O   UNL     1      -1.488   8.591 -32.546  1.00  0.00    -0.271 OA
BRANCH   8  11
HETATM   11  C   UNL     1      -1.100   6.732 -30.268  1.00  0.00     0.046 A 
HETATM   12  C   UNL     1       0.159   6.173 -29.935  1.00  0.00    -0.034 A 
HETATM   13  C   UNL     1       0.669   6.323 -28.633  1.00  0.00     0.015 A 
HETATM   14  C   UNL     1       0.972   5.368 -30.919  1.00  0.00     0.050 C 
HETATM   15  C   UNL     1      -0.034   7.034 -27.662  1.00  0.00    -0.061 A 
HETATM   16  C   UNL     1       0.487   7.161 -26.262  1.00  0.00     0.048 C 
HETATM   17  C   UNL     1      -1.242   7.638 -28.017  1.00  0.00     0.015 A 
HETATM   18  C   UNL     1      -1.768   7.531 -29.320  1.00  0.00    -0.034 A 
HETATM   19  C   UNL     1      -2.997   8.352 -29.611  1.00  0.00     0.050 C 
ENDBRANCH   8  11
ENDBRANCH   6   7
ENDBRANCH   1   6
BRANCH   5  20
HETATM   20  N   UNL     1      -4.104   4.815 -35.381  1.00  0.00    -0.382 N 
HETATM   21  H   UNL     1      -3.177   4.385 -35.439  1.00  0.00     0.157 HD
HETATM   22  H   UNL     1      -4.466   5.093 -36.290  1.00  0.00     0.157 HD
ENDBRANCH   5  20
BRANCH   4  23
HETATM   23  C   UNL     1      -6.819   4.447 -33.715  1.00  0.00     0.275 C 
HETATM   24  N   UNL     1      -6.670   3.140 -33.324  1.00  0.00    -0.351 N 
HETATM   25  H   UNL     1      -5.766   2.857 -32.958  1.00  0.00     0.163 HD
HETATM   26  O   UNL     1      -7.844   4.889 -34.225  1.00  0.00    -0.266 OA
BRANCH  24  27
HETATM   27  C   UNL     1      -7.722   2.163 -33.428  1.00  0.00     0.161 C 
BRANCH  27  28
HETATM   28  C   UNL     1      -7.131   0.814 -33.739  1.00  0.00    -0.040 A 
HETATM   29  C   UNL     1      -7.316   0.245 -35.006  1.00  0.00     0.011 A 
HETATM   30  C   UNL     1      -6.844  -1.039 -35.281  1.00  0.00     0.037 A 
HETATM   31  C   UNL     1      -6.184  -1.779 -34.298  1.00  0.00     0.068 A 
HETATM   32  C   UNL     1      -5.982  -1.212 -33.040  1.00  0.00     0.037 A 
HETATM   33  C   UNL     1      -6.456   0.075 -32.760  1.00  0.00     0.011 A 
BRANCH  31  34
HETATM   34  O   UNL     1      -5.793  -3.029 -34.692  1.00  0.00    -0.356 OA
HETATM   35  C   UNL     1      -6.802  -4.028 -34.746  1.00  0.00     0.210 C 
ENDBRANCH  31  34
ENDBRANCH  27  28
ENDBRANCH  24  27
ENDBRANCH   4  23
TORSDOF 8
ENDMDL
MODEL 8
REMARK VINA RESULT:      -8.2      4.620      8.050
REMARK  8 active torsions:
REMARK  status: ('A' for Active; 'I' for Inactive)
REMARK    1  A    between atoms: C_6  and  N_7 
REMARK       I    between atoms: N_7  and  C_8 
REMARK    2  A    between atoms: C_8  and  C_9 
REMARK    3  A    between atoms: C_9  and  N_10 
REMARK    4  A    between atoms: C_13  and  C_14 
REMARK       I    between atoms: C_14  and  N_15 
REMARK    5  A    between atoms: N_15  and  C_16 
REMARK    6  A    between atoms: C_16  and  C_17 
REMARK    7  A    between atoms: C_20  and  O_21 
REMARK    8  A    between atoms: C_26  and  N_27 
ROOT
HETATM    1  N   UNL     1      -5.786   3.067 -31.799  1.00  0.00    -0.248 N 
HETATM    2  N   UNL     1      -5.063   3.644 -32.783  1.00  0.00     0.007 NA
HETATM    3  N   UNL     1      -5.876   4.444 -33.453  1.00  0.00    -0.150 NA
HETATM    4  C   UNL     1      -7.134   4.357 -32.891  1.00  0.00     0.186 A 
HETATM    5  C   UNL     1      -7.093   3.482 -31.818  1.00  0.00     0.151 A 
ENDROOT
BRANCH   1   6
HETATM    6  C   UNL     1      -5.143   2.109 -30.933  1.00  0.00     0.251 C 
BRANCH   6   7
HETATM    7  C   UNL     1      -5.415   0.686 -31.366  1.00  0.00     0.241 C 
HETATM    8  N   UNL     1      -4.983   0.393 -32.652  1.00  0.00    -0.325 N 
HETATM    9  H   UNL     1      -4.698   1.194 -33.206  1.00  0.00     0.169 HD
HETATM   10  O   UNL     1      -6.075  -0.052 -30.639  1.00  0.00    -0.271 OA
BRANCH   8  11
HETATM   11  C   UNL     1      -5.207  -0.806 -33.372  1.00  0.00     0.046 A 
HETATM   12  C   UNL     1      -6.209  -0.777 -34.374  1.00  0.00    -0.034 A 
HETATM   13  C   UNL     1      -6.538  -1.954 -35.071  1.00  0.00     0.015 A 
HETATM   14  C   UNL     1      -6.986   0.474 -34.704  1.00  0.00     0.050 C 
HETATM   15  C   UNL     1      -5.880  -3.153 -34.807  1.00  0.00    -0.061 A 
HETATM   16  C   UNL     1      -6.256  -4.419 -35.518  1.00  0.00     0.048 C 
HETATM   17  C   UNL     1      -4.849  -3.160 -33.865  1.00  0.00     0.015 A 
HETATM   18  C   UNL     1      -4.475  -1.993 -33.169  1.00  0.00    -0.034 A 
HETATM   19  C   UNL     1      -3.254  -2.102 -32.294  1.00  0.00     0.050 C 
ENDBRANCH   8  11
ENDBRANCH   6   7
ENDBRANCH   1   6
BRANCH   5  20
HETATM   20  N   UNL     1      -8.039   3.051 -30.954  1.00  0.00    -0.382 N 
HETATM   21  H   UNL     1      -7.944   3.291 -29.963  1.00  0.00     0.157 HD
HETATM   22  H   UNL     1      -8.615   2.226 -31.104  1.00  0.00     0.157 HD
ENDBRANCH   5  20
BRANCH   4  23
HETATM   23  C   UNL     1      -8.276   5.098 -33.410  1.00  0.00     0.275 C 
HETATM   24  N   UNL     1      -9.077   4.338 -34.226  1.00  0.00    -0.351 N 
HETATM   25  H   UNL     1      -8.778   3.390 -34.431  1.00  0.00     0.163 HD
HETATM   26  O   UNL     1      -8.504   6.273 -33.140  1.00  0.00    -0.266 OA
BRANCH  24  27
HETATM   27  C   UNL     1     -10.297   4.831 -34.810  1.00  0.00     0.161 C 
BRANCH  27  28
HETATM   28  C   UNL     1     -11.424   3.879 -34.507  1.00  0.00    -0.040 A 
HETATM   29  C   UNL     1     -12.180   4.040 -33.339  1.00  0.00     0.011 A 
HETATM   30  C   UNL     1     -13.173   3.117 -33.006  1.00  0.00     0.037 A 
HETATM   31  C   UNL     1     -13.424   2.017 -33.828  1.00  0.00     0.068 A 
HETATM   32  C   UNL     1     -12.686   1.859 -35.001  1.00  0.00     0.037 A 
HETATM   33  C   UNL     1     -11.688   2.782 -35.337  1.00  0.00     0.011 A 
BRANCH  31  34
HETATM   34  O   UNL     1     -14.407   1.180 -33.375  1.00  0.00    -0.356 OA
HETATM   35  C   UNL     1     -15.288   0.639 -34.352  1.00  0.00     0.210 C 
ENDBRANCH  31  34
ENDBRANCH  27  28
ENDBRANCH  24  27
ENDBRANCH   4  23
TORSDOF 8
ENDMDL
MODEL 9
REMARK VINA RESULT:      -8.0      5.256      8.035
REMARK  8 active torsions:
REMARK  status: ('A' for Active; 'I' for Inactive)
REMARK    1  A    between atoms: C_6  and  N_7 
REMARK       I    between atoms: N_7  and  C_8 
REMARK    2  A    between atoms: C_8  and  C_9 
REMARK    3  A    between atoms: C_9  and  N_10 
REMARK    4  A    between atoms: C_13  and  C_14 
REMARK       I    between atoms: C_14  and  N_15 
REMARK    5  A    between atoms: N_15  and  C_16 
REMARK    6  A    between atoms: C_16  and  C_17 
REMARK    7  A    between atoms: C_20  and  O_21 
REMARK    8  A    between atoms: C_26  and  N_27 
ROOT
HETATM    1  N   UNL     1      -7.592   2.880 -31.725  1.00  0.00    -0.248 N 
HETATM    2  N   UNL     1      -7.241   3.544 -32.847  1.00  0.00     0.007 NA
HETATM    3  N   UNL     1      -8.356   3.970 -33.418  1.00  0.00    -0.150 NA
HETATM    4  C   UNL     1      -9.426   3.555 -32.649  1.00  0.00     0.186 A 
HETATM    5  C   UNL     1      -8.952   2.859 -31.549  1.00  0.00     0.151 A 
ENDROOT
BRANCH   1   6
HETATM    6  C   UNL     1      -6.557   2.273 -30.923  1.00  0.00     0.251 C 
BRANCH   6   7
HETATM    7  C   UNL     1      -6.310   0.834 -31.317  1.00  0.00     0.241 C 
HETATM    8  N   UNL     1      -6.109   0.646 -32.677  1.00  0.00    -0.325 N 
HETATM    9  H   UNL     1      -6.319   1.450 -33.262  1.00  0.00     0.169 HD
HETATM   10  O   UNL     1      -6.417  -0.051 -30.472  1.00  0.00    -0.271 OA
BRANCH   8  11
HETATM   11  C   UNL     1      -5.980  -0.592 -33.354  1.00  0.00     0.046 A 
HETATM   12  C   UNL     1      -7.121  -1.068 -34.047  1.00  0.00    -0.034 A 
HETATM   13  C   UNL     1      -7.085  -2.327 -34.673  1.00  0.00     0.015 A 
HETATM   14  C   UNL     1      -8.413  -0.291 -34.107  1.00  0.00     0.050 C 
HETATM   15  C   UNL     1      -5.936  -3.114 -34.642  1.00  0.00    -0.061 A 
HETATM   16  C   UNL     1      -5.907  -4.474 -35.272  1.00  0.00     0.048 C 
HETATM   17  C   UNL     1      -4.795  -2.609 -34.014  1.00  0.00     0.015 A 
HETATM   18  C   UNL     1      -4.787  -1.340 -33.402  1.00  0.00    -0.034 A 
HETATM   19  C   UNL     1      -3.455  -0.853 -32.895  1.00  0.00     0.050 C 
ENDBRANCH   8  11
ENDBRANCH   6   7
ENDBRANCH   1   6
BRANCH   5  20
HETATM   20  N   UNL     1      -9.575   2.250 -30.516  1.00  0.00    -0.382 N 
HETATM   21  H   UNL     1     -10.599   2.257 -30.488  1.00  0.00     0.157 HD
HETATM   22  H   UNL     1      -9.158   2.116 -29.598  1.00  0.00     0.157 HD
ENDBRANCH   5  20
BRANCH   4  23
HETATM   23  C   UNL     1     -10.807   3.839 -33.014  1.00  0.00     0.275 C 
HETATM   24  N   UNL     1     -10.930   4.940 -33.824  1.00  0.00    -0.351 N 
HETATM   25  H   UNL     1     -10.088   5.468 -34.033  1.00  0.00     0.163 HD
HETATM   26  O   UNL     1     -11.761   3.159 -32.646  1.00  0.00    -0.266 OA
BRANCH  24  27
HETATM   27  C   UNL     1     -12.188   5.383 -34.365  1.00  0.00     0.161 C 
BRANCH  27  28
HETATM   28  C   UNL     1     -11.959   6.548 -35.289  1.00  0.00    -0.040 A 
HETATM   29  C   UNL     1     -13.054   7.225 -35.844  1.00  0.00     0.011 A 
HETATM   30  C   UNL     1     -12.855   8.254 -36.767  1.00  0.00     0.037 A 
HETATM   31  C   UNL     1     -11.565   8.622 -37.153  1.00  0.00     0.068 A 
HETATM   32  C   UNL     1     -10.471   7.964 -36.592  1.00  0.00     0.037 A 
HETATM   33  C   UNL     1     -10.667   6.930 -35.669  1.00  0.00     0.011 A 
BRANCH  31  34
HETATM   34  O   UNL     1     -11.513   9.629 -38.078  1.00  0.00    -0.356 OA
HETATM   35  C   UNL     1     -12.029   9.338 -39.371  1.00  0.00     0.210 C 
ENDBRANCH  31  34
ENDBRANCH  27  28
ENDBRANCH  24  27
ENDBRANCH   4  23
TORSDOF 8
ENDMDL
MODEL 10
REMARK VINA RESULT:      -8.0      2.998      3.726
REMARK  8 active torsions:
REMARK  status: ('A' for Active; 'I' for Inactive)
REMARK    1  A    between atoms: C_6  and  N_7 
REMARK       I    between atoms: N_7  and  C_8 
REMARK    2  A    between atoms: C_8  and  C_9 
REMARK    3  A    between atoms: C_9  and  N_10 
REMARK    4  A    between atoms: C_13  and  C_14 
REMARK       I    between atoms: C_14  and  N_15 
REMARK    5  A    between atoms: N_15  and  C_16 
REMARK    6  A    between atoms: C_16  and  C_17 
REMARK    7  A    between atoms: C_20  and  O_21 
REMARK    8  A    between atoms: C_26  and  N_27 
ROOT
HETATM    1  N   UNL     1      -7.346   3.491 -30.683  1.00  0.00    -0.248 N 
HETATM    2  N   UNL     1      -6.059   3.119 -30.511  1.00  0.00     0.007 NA
HETATM    3  N   UNL     1      -5.543   3.904 -29.579  1.00  0.00    -0.150 NA
HETATM    4  C   UNL     1      -6.517   4.792 -29.168  1.00  0.00     0.186 A 
HETATM    5  C   UNL     1      -7.688   4.534 -29.862  1.00  0.00     0.151 A 
ENDROOT
BRANCH   1   6
HETATM    6  C   UNL     1      -8.138   2.814 -31.681  1.00  0.00     0.251 C 
BRANCH   6   7
HETATM    7  C   UNL     1      -7.694   1.383 -31.879  1.00  0.00     0.241 C 
HETATM    8  N   UNL     1      -6.595   1.241 -32.715  1.00  0.00    -0.325 N 
HETATM    9  H   UNL     1      -6.328   2.078 -33.224  1.00  0.00     0.169 HD
HETATM   10  O   UNL     1      -8.371   0.470 -31.412  1.00  0.00    -0.271 OA
BRANCH   8  11
HETATM   11  C   UNL     1      -6.034   0.028 -33.184  1.00  0.00     0.046 A 
HETATM   12  C   UNL     1      -6.573  -0.509 -34.379  1.00  0.00    -0.034 A 
HETATM   13  C   UNL     1      -6.117  -1.752 -34.856  1.00  0.00     0.015 A 
HETATM   14  C   UNL     1      -7.667   0.182 -35.155  1.00  0.00     0.050 C 
HETATM   15  C   UNL     1      -5.124  -2.461 -34.183  1.00  0.00    -0.061 A 
HETATM   16  C   UNL     1      -4.665  -3.804 -34.666  1.00  0.00     0.048 C 
HETATM   17  C   UNL     1      -4.552  -1.894 -33.042  1.00  0.00     0.015 A 
HETATM   18  C   UNL     1      -4.965  -0.638 -32.553  1.00  0.00    -0.034 A 
HETATM   19  C   UNL     1      -4.166  -0.075 -31.407  1.00  0.00     0.050 C 
ENDBRANCH   8  11
ENDBRANCH   6   7
ENDBRANCH   1   6
BRANCH   5  20
HETATM   20  N   UNL     1      -8.910   5.112 -29.838  1.00  0.00    -0.382 N 
HETATM   21  H   UNL     1      -8.991   6.074 -29.495  1.00  0.00     0.157 HD
HETATM   22  H   UNL     1      -9.783   4.596 -29.768  1.00  0.00     0.157 HD
ENDBRANCH   5  20
BRANCH   4  23
HETATM   23  C   UNL     1      -6.268   5.816 -28.162  1.00  0.00     0.275 C 
HETATM   24  N   UNL     1      -4.958   5.857 -27.756  1.00  0.00    -0.351 N 
HETATM   25  H   UNL     1      -4.325   5.158 -28.134  1.00  0.00     0.163 HD
HETATM   26  O   UNL     1      -7.135   6.569 -27.730  1.00  0.00    -0.266 OA
BRANCH  24  27
HETATM   27  C   UNL     1      -4.455   6.824 -26.816  1.00  0.00     0.161 C 
BRANCH  27  28
HETATM   28  C   UNL     1      -2.989   7.055 -27.062  1.00  0.00    -0.040 A 
HETATM   29  C   UNL     1      -2.560   7.585 -28.287  1.00  0.00     0.011 A 
HETATM   30  C   UNL     1      -1.198   7.727 -28.558  1.00  0.00     0.037 A 
HETATM   31  C   UNL     1      -0.242   7.340 -27.618  1.00  0.00     0.068 A 
HETATM   32  C   UNL     1      -0.661   6.827 -26.391  1.00  0.00     0.037 A 
HETATM   33  C   UNL     1      -2.027   6.680 -26.116  1.00  0.00     0.011 A 
BRANCH  31  34
HETATM   34  O   UNL     1       1.054   7.512 -28.019  1.00  0.00    -0.356 OA
HETATM   35  C   UNL     1       1.703   8.703 -27.594  1.00  0.00     0.210 C 
ENDBRANCH  31  34
ENDBRANCH  27  28
ENDBRANCH  24  27
ENDBRANCH   4  23
TORSDOF 8
ENDMDL
