MODEL 1
REMARK VINA RESULT:      -8.7      0.000      0.000
REMARK  3 active torsions:
REMARK  status: ('A' for Active; 'I' for Inactive)
REMARK    1  A    between atoms: C_5  and  N_6 
REMARK       I    between atoms: N_6  and  C_7 
REMARK    2  A    between atoms: C_7  and  C_8 
REMARK    3  A    between atoms: C_13  and  O_14 
ROOT
HETATM    1  C   UNL     1      -2.686  -0.414 -31.514  1.00  0.00     0.001 A 
HETATM    2  C   UNL     1      -2.992  -1.666 -32.055  1.00  0.00     0.013 A 
HETATM    3  C   UNL     1      -4.076  -1.766 -32.911  1.00  0.00    -0.017 A 
HETATM    4  C   UNL     1      -4.854  -0.627 -33.222  1.00  0.00    -0.020 A 
HETATM    5  C   UNL     1      -5.961  -1.000 -34.194  1.00  0.00     0.153 A 
HETATM    6  C   UNL     1      -5.717  -2.485 -34.394  1.00  0.00    -0.020 A 
HETATM    7  C   UNL     1      -4.604  -2.905 -33.632  1.00  0.00    -0.017 A 
HETATM    8  C   UNL     1      -6.417  -3.371 -35.201  1.00  0.00     0.010 A 
HETATM    9  C   UNL     1      -5.990  -4.699 -35.241  1.00  0.00     0.001 A 
HETATM   10  C   UNL     1      -4.883  -5.121 -34.485  1.00  0.00     0.001 A 
HETATM   11  C   UNL     1      -4.181  -4.223 -33.675  1.00  0.00     0.013 A 
HETATM   12  C   UNL     1      -4.546   0.620 -32.697  1.00  0.00     0.010 A 
HETATM   13  C   UNL     1      -3.455   0.719 -31.832  1.00  0.00     0.001 A 
ENDROOT
BRANCH   5  14
HETATM   14  N   UNL     1      -7.265  -0.778 -33.604  1.00  0.00    -0.346 N 
HETATM   15  C   UNL     1      -8.104   0.209 -34.044  1.00  0.00     0.249 C 
HETATM   16  O   UNL     1      -7.794   1.021 -34.912  1.00  0.00    -0.271 OA
HETATM   17  H   UNL     1      -7.464  -1.302 -32.753  1.00  0.00     0.163 HD
BRANCH  15  18
HETATM   18  C   UNL     1      -9.421   0.378 -33.267  1.00  0.00     0.279 C 
HETATM   19  N   UNL     1     -10.473   1.057 -34.136  1.00  0.00    -0.060 N 
HETATM   20  H   UNL     1      -9.979   1.513 -34.920  1.00  0.00     0.278 HD
HETATM   21  H   UNL     1     -11.125   0.379 -34.548  1.00  0.00     0.278 HD
HETATM   22  C   UNL     1     -11.123   2.118 -33.304  1.00  0.00     0.264 C 
HETATM   23  C   UNL     1      -9.983   2.549 -32.384  1.00  0.00     0.146 C 
HETATM   24  C   UNL     1      -9.358   1.220 -31.990  1.00  0.00     0.076 C 
BRANCH  23  25
HETATM   25  O   UNL     1      -9.012   3.282 -33.134  1.00  0.00    -0.394 OA
HETATM   26  H   UNL     1      -9.059   4.222 -32.860  1.00  0.00     0.210 HD
ENDBRANCH  23  25
ENDBRANCH  15  18
ENDBRANCH   5  14
TORSDOF 3
ENDMDL
MODEL 2
REMARK VINA RESULT:      -8.4      1.539      3.848
REMARK  3 active torsions:
REMARK  status: ('A' for Active; 'I' for Inactive)
REMARK    1  A    between atoms: C_5  and  N_6 
REMARK       I    between atoms: N_6  and  C_7 
REMARK    2  A    between atoms: C_7  and  C_8 
REMARK    3  A    between atoms: C_13  and  O_14 
ROOT
HETATM    1  C   UNL     1      -5.089  -3.875 -35.120  1.00  0.00     0.001 A 
HETATM    2  C   UNL     1      -4.426  -2.788 -34.544  1.00  0.00     0.013 A 
HETATM    3  C   UNL     1      -5.179  -1.833 -33.883  1.00  0.00    -0.017 A 
HETATM    4  C   UNL     1      -6.585  -1.956 -33.800  1.00  0.00    -0.020 A 
HETATM    5  C   UNL     1      -7.166  -0.797 -33.008  1.00  0.00     0.153 A 
HETATM    6  C   UNL     1      -5.921  -0.002 -32.654  1.00  0.00    -0.020 A 
HETATM    7  C   UNL     1      -4.772  -0.636 -33.178  1.00  0.00    -0.017 A 
HETATM    8  C   UNL     1      -5.828   1.167 -31.914  1.00  0.00     0.010 A 
HETATM    9  C   UNL     1      -4.560   1.709 -31.699  1.00  0.00     0.001 A 
HETATM   10  C   UNL     1      -3.414   1.082 -32.217  1.00  0.00     0.001 A 
HETATM   11  C   UNL     1      -3.514  -0.098 -32.961  1.00  0.00     0.013 A 
HETATM   12  C   UNL     1      -7.247  -3.041 -34.359  1.00  0.00     0.010 A 
HETATM   13  C   UNL     1      -6.486  -4.002 -35.027  1.00  0.00     0.001 A 
ENDROOT
BRANCH   5  14
HETATM   14  N   UNL     1      -8.056  -0.002 -33.828  1.00  0.00    -0.346 N 
HETATM   15  C   UNL     1      -9.264   0.445 -33.370  1.00  0.00     0.249 C 
HETATM   16  O   UNL     1      -9.718   0.151 -32.267  1.00  0.00    -0.271 OA
HETATM   17  H   UNL     1      -7.797   0.085 -34.810  1.00  0.00     0.163 HD
BRANCH  15  18
HETATM   18  C   UNL     1     -10.136   1.207 -34.382  1.00  0.00     0.279 C 
HETATM   19  N   UNL     1      -9.663   2.649 -34.520  1.00  0.00    -0.060 N 
HETATM   20  H   UNL     1      -9.077   2.861 -33.696  1.00  0.00     0.278 HD
HETATM   21  H   UNL     1      -9.072   2.780 -35.349  1.00  0.00     0.278 HD
HETATM   22  C   UNL     1     -10.877   3.524 -34.477  1.00  0.00     0.264 C 
HETATM   23  C   UNL     1     -11.810   2.734 -33.561  1.00  0.00     0.146 C 
HETATM   24  C   UNL     1     -11.630   1.308 -34.058  1.00  0.00     0.076 C 
BRANCH  23  25
HETATM   25  O   UNL     1     -11.327   2.793 -32.218  1.00  0.00    -0.394 OA
HETATM   26  H   UNL     1     -10.390   3.081 -32.241  1.00  0.00     0.210 HD
ENDBRANCH  23  25
ENDBRANCH  15  18
ENDBRANCH   5  14
TORSDOF 3
ENDMDL
MODEL 3
REMARK VINA RESULT:      -8.4      3.097      5.235
REMARK  3 active torsions:
REMARK  status: ('A' for Active; 'I' for Inactive)
REMARK    1  A    between atoms: C_5  and  N_6 
REMARK       I    between atoms: N_6  and  C_7 
REMARK    2  A    between atoms: C_7  and  C_8 
REMARK    3  A    between atoms: C_13  and  O_14 
ROOT
HETATM    1  C   UNL     1      -7.757   0.257 -35.302  1.00  0.00     0.001 A 
HETATM    2  C   UNL     1      -6.874  -0.800 -35.063  1.00  0.00     0.013 A 
HETATM    3  C   UNL     1      -5.996  -0.696 -33.998  1.00  0.00    -0.017 A 
HETATM    4  C   UNL     1      -5.994   0.456 -33.178  1.00  0.00    -0.020 A 
HETATM    5  C   UNL     1      -4.960   0.310 -32.074  1.00  0.00     0.153 A 
HETATM    6  C   UNL     1      -4.376  -1.061 -32.368  1.00  0.00    -0.020 A 
HETATM    7  C   UNL     1      -5.006  -1.627 -33.500  1.00  0.00    -0.017 A 
HETATM    8  C   UNL     1      -3.389  -1.743 -31.673  1.00  0.00     0.010 A 
HETATM    9  C   UNL     1      -3.028  -3.014 -32.124  1.00  0.00     0.001 A 
HETATM   10  C   UNL     1      -3.651  -3.581 -33.248  1.00  0.00     0.001 A 
HETATM   11  C   UNL     1      -4.648  -2.889 -33.944  1.00  0.00     0.013 A 
HETATM   12  C   UNL     1      -6.878   1.502 -33.402  1.00  0.00     0.010 A 
HETATM   13  C   UNL     1      -7.761   1.396 -34.479  1.00  0.00     0.001 A 
ENDROOT
BRANCH   5  14
HETATM   14  N   UNL     1      -3.936   1.328 -32.184  1.00  0.00    -0.346 N 
HETATM   15  C   UNL     1      -3.909   2.425 -31.367  1.00  0.00     0.249 C 
HETATM   16  O   UNL     1      -4.779   2.667 -30.534  1.00  0.00    -0.271 OA
HETATM   17  H   UNL     1      -3.323   1.257 -32.995  1.00  0.00     0.163 HD
BRANCH  15  18
HETATM   18  C   UNL     1      -2.811   3.462 -31.656  1.00  0.00     0.279 C 
HETATM   19  N   UNL     1      -3.040   4.727 -30.839  1.00  0.00    -0.060 N 
HETATM   20  H   UNL     1      -4.022   4.716 -30.521  1.00  0.00     0.278 HD
HETATM   21  H   UNL     1      -2.453   4.750 -29.996  1.00  0.00     0.278 HD
HETATM   22  C   UNL     1      -2.852   5.894 -31.759  1.00  0.00     0.264 C 
HETATM   23  C   UNL     1      -3.319   5.325 -33.097  1.00  0.00     0.146 C 
HETATM   24  C   UNL     1      -2.688   3.942 -33.105  1.00  0.00     0.076 C 
BRANCH  23  25
HETATM   25  O   UNL     1      -4.738   5.159 -33.079  1.00  0.00    -0.394 OA
HETATM   26  H   UNL     1      -5.125   5.758 -33.752  1.00  0.00     0.210 HD
ENDBRANCH  23  25
ENDBRANCH  15  18
ENDBRANCH   5  14
TORSDOF 3
ENDMDL
MODEL 4
REMARK VINA RESULT:      -8.3      3.065      5.311
REMARK  3 active torsions:
REMARK  status: ('A' for Active; 'I' for Inactive)
REMARK    1  A    between atoms: C_5  and  N_6 
REMARK       I    between atoms: N_6  and  C_7 
REMARK    2  A    between atoms: C_7  and  C_8 
REMARK    3  A    between atoms: C_13  and  O_14 
ROOT
HETATM    1  C   UNL     1      -9.775   0.799 -32.485  1.00  0.00     0.001 A 
HETATM    2  C   UNL     1      -9.006  -0.126 -33.198  1.00  0.00     0.013 A 
HETATM    3  C   UNL     1      -7.640  -0.154 -32.977  1.00  0.00    -0.017 A 
HETATM    4  C   UNL     1      -7.041   0.736 -32.056  1.00  0.00    -0.020 A 
HETATM    5  C   UNL     1      -5.544   0.485 -31.983  1.00  0.00     0.153 A 
HETATM    6  C   UNL     1      -5.367  -0.652 -32.974  1.00  0.00    -0.020 A 
HETATM    7  C   UNL     1      -6.613  -1.007 -33.538  1.00  0.00    -0.017 A 
HETATM    8  C   UNL     1      -4.200  -1.318 -33.320  1.00  0.00     0.010 A 
HETATM    9  C   UNL     1      -4.288  -2.356 -34.248  1.00  0.00     0.001 A 
HETATM   10  C   UNL     1      -5.525  -2.714 -34.811  1.00  0.00     0.001 A 
HETATM   11  C   UNL     1      -6.698  -2.039 -34.457  1.00  0.00     0.013 A 
HETATM   12  C   UNL     1      -7.802   1.646 -31.336  1.00  0.00     0.010 A 
HETATM   13  C   UNL     1      -9.180   1.675 -31.562  1.00  0.00     0.001 A 
ENDROOT
BRANCH   5  14
HETATM   14  N   UNL     1      -4.801   1.651 -32.414  1.00  0.00    -0.346 N 
HETATM   15  C   UNL     1      -3.544   1.926 -31.952  1.00  0.00     0.249 C 
HETATM   16  O   UNL     1      -2.982   1.255 -31.090  1.00  0.00    -0.271 OA
HETATM   17  H   UNL     1      -5.321   2.329 -32.970  1.00  0.00     0.163 HD
BRANCH  15  18
HETATM   18  C   UNL     1      -2.913   3.242 -32.436  1.00  0.00     0.279 C 
HETATM   19  N   UNL     1      -2.438   4.076 -31.253  1.00  0.00    -0.060 N 
HETATM   20  H   UNL     1      -2.914   3.716 -30.410  1.00  0.00     0.278 HD
HETATM   21  H   UNL     1      -1.428   3.973 -31.092  1.00  0.00     0.278 HD
HETATM   22  C   UNL     1      -2.889   5.484 -31.488  1.00  0.00     0.264 C 
HETATM   23  C   UNL     1      -4.189   5.279 -32.263  1.00  0.00     0.146 C 
HETATM   24  C   UNL     1      -3.817   4.177 -33.243  1.00  0.00     0.076 C 
BRANCH  23  25
HETATM   25  O   UNL     1      -5.194   4.764 -31.387  1.00  0.00    -0.394 OA
HETATM   26  H   UNL     1      -4.989   3.823 -31.205  1.00  0.00     0.210 HD
ENDBRANCH  23  25
ENDBRANCH  15  18
ENDBRANCH   5  14
TORSDOF 3
ENDMDL
MODEL 5
REMARK VINA RESULT:      -8.0      1.727      2.575
REMARK  3 active torsions:
REMARK  status: ('A' for Active; 'I' for Inactive)
REMARK    1  A    between atoms: C_5  and  N_6 
REMARK       I    between atoms: N_6  and  C_7 
REMARK    2  A    between atoms: C_7  and  C_8 
REMARK    3  A    between atoms: C_13  and  O_14 
ROOT
HETATM    1  C   UNL     1      -3.799   2.442 -31.255  1.00  0.00     0.001 A 
HETATM    2  C   UNL     1      -3.809   1.143 -31.772  1.00  0.00     0.013 A 
HETATM    3  C   UNL     1      -4.828   0.788 -32.639  1.00  0.00    -0.017 A 
HETATM    4  C   UNL     1      -5.835   1.718 -32.985  1.00  0.00    -0.020 A 
HETATM    5  C   UNL     1      -6.814   1.089 -33.963  1.00  0.00     0.153 A 
HETATM    6  C   UNL     1      -6.242  -0.308 -34.127  1.00  0.00    -0.020 A 
HETATM    7  C   UNL     1      -5.076  -0.454 -33.341  1.00  0.00    -0.017 A 
HETATM    8  C   UNL     1      -6.712  -1.342 -34.922  1.00  0.00     0.010 A 
HETATM    9  C   UNL     1      -6.000  -2.543 -34.926  1.00  0.00     0.001 A 
HETATM   10  C   UNL     1      -4.840  -2.692 -34.148  1.00  0.00     0.001 A 
HETATM   11  C   UNL     1      -4.370  -1.645 -33.349  1.00  0.00     0.013 A 
HETATM   12  C   UNL     1      -5.822   3.012 -32.485  1.00  0.00     0.010 A 
HETATM   13  C   UNL     1      -4.795   3.368 -31.609  1.00  0.00     0.001 A 
ENDROOT
BRANCH   5  14
HETATM   14  N   UNL     1      -8.145   1.026 -33.395  1.00  0.00    -0.346 N 
HETATM   15  C   UNL     1      -9.155   1.847 -33.815  1.00  0.00     0.249 C 
HETATM   16  O   UNL     1      -8.998   2.741 -34.643  1.00  0.00    -0.271 OA
HETATM   17  H   UNL     1      -8.249   0.437 -32.570  1.00  0.00     0.163 HD
BRANCH  15  18
HETATM   18  C   UNL     1     -10.491   1.722 -33.062  1.00  0.00     0.279 C 
HETATM   19  N   UNL     1     -11.080   0.329 -33.244  1.00  0.00    -0.060 N 
HETATM   20  H   UNL     1     -10.614  -0.099 -34.060  1.00  0.00     0.278 HD
HETATM   21  H   UNL     1     -10.886  -0.277 -32.437  1.00  0.00     0.278 HD
HETATM   22  C   UNL     1     -12.533   0.496 -33.561  1.00  0.00     0.264 C 
HETATM   23  C   UNL     1     -12.547   1.824 -34.315  1.00  0.00     0.146 C 
HETATM   24  C   UNL     1     -11.606   2.683 -33.485  1.00  0.00     0.076 C 
BRANCH  23  25
HETATM   25  O   UNL     1     -11.957   1.650 -35.604  1.00  0.00    -0.394 OA
HETATM   26  H   UNL     1     -11.738   0.701 -35.716  1.00  0.00     0.210 HD
ENDBRANCH  23  25
ENDBRANCH  15  18
ENDBRANCH   5  14
TORSDOF 3
ENDMDL
MODEL 6
REMARK VINA RESULT:      -7.9     12.963     14.850
REMARK  3 active torsions:
REMARK  status: ('A' for Active; 'I' for Inactive)
REMARK    1  A    between atoms: C_5  and  N_6 
REMARK       I    between atoms: N_6  and  C_7 
REMARK    2  A    between atoms: C_7  and  C_8 
REMARK    3  A    between atoms: C_13  and  O_14 
ROOT
HETATM    1  C   UNL     1       0.482 -14.782 -39.632  1.00  0.00     0.001 A 
HETATM    2  C   UNL     1      -0.422 -14.980 -40.679  1.00  0.00     0.013 A 
HETATM    3  C   UNL     1      -1.702 -14.468 -40.549  1.00  0.00    -0.017 A 
HETATM    4  C   UNL     1      -2.081 -13.768 -39.381  1.00  0.00    -0.020 A 
HETATM    5  C   UNL     1      -3.520 -13.294 -39.499  1.00  0.00     0.153 A 
HETATM    6  C   UNL     1      -3.910 -13.811 -40.873  1.00  0.00    -0.020 A 
HETATM    7  C   UNL     1      -2.823 -14.493 -41.465  1.00  0.00    -0.017 A 
HETATM    8  C   UNL     1      -5.120 -13.665 -41.536  1.00  0.00     0.010 A 
HETATM    9  C   UNL     1      -5.238 -14.214 -42.814  1.00  0.00     0.001 A 
HETATM   10  C   UNL     1      -4.159 -14.892 -43.407  1.00  0.00     0.001 A 
HETATM   11  C   UNL     1      -2.942 -15.034 -42.734  1.00  0.00     0.013 A 
HETATM   12  C   UNL     1      -1.183 -13.557 -38.344  1.00  0.00     0.010 A 
HETATM   13  C   UNL     1       0.106 -14.076 -38.476  1.00  0.00     0.001 A 
ENDROOT
BRANCH   5  14
HETATM   14  N   UNL     1      -4.351 -13.898 -38.478  1.00  0.00    -0.346 N 
HETATM   15  C   UNL     1      -4.622 -13.270 -37.294  1.00  0.00     0.249 C 
HETATM   16  O   UNL     1      -4.130 -12.190 -36.975  1.00  0.00    -0.271 OA
HETATM   17  H   UNL     1      -4.604 -14.873 -38.630  1.00  0.00     0.163 HD
BRANCH  15  18
HETATM   18  C   UNL     1      -5.450 -14.069 -36.273  1.00  0.00     0.279 C 
HETATM   19  N   UNL     1      -6.752 -13.345 -35.956  1.00  0.00    -0.060 N 
HETATM   20  H   UNL     1      -6.641 -12.363 -36.255  1.00  0.00     0.278 HD
HETATM   21  H   UNL     1      -7.544 -13.731 -36.485  1.00  0.00     0.278 HD
HETATM   22  C   UNL     1      -6.927 -13.371 -34.469  1.00  0.00     0.264 C 
HETATM   23  C   UNL     1      -5.482 -13.344 -33.976  1.00  0.00     0.146 C 
HETATM   24  C   UNL     1      -4.796 -14.325 -34.913  1.00  0.00     0.076 C 
BRANCH  23  25
HETATM   25  O   UNL     1      -4.920 -12.051 -34.208  1.00  0.00    -0.394 OA
HETATM   26  H   UNL     1      -5.472 -11.592 -34.876  1.00  0.00     0.210 HD
ENDBRANCH  23  25
ENDBRANCH  15  18
ENDBRANCH   5  14
TORSDOF 3
ENDMDL
MODEL 7
REMARK VINA RESULT:      -7.6      2.756      4.436
REMARK  3 active torsions:
REMARK  status: ('A' for Active; 'I' for Inactive)
REMARK    1  A    between atoms: C_5  and  N_6 
REMARK       I    between atoms: N_6  and  C_7 
REMARK    2  A    between atoms: C_7  and  C_8 
REMARK    3  A    between atoms: C_13  and  O_14 
ROOT
HETATM    1  C   UNL     1      -7.384   3.057 -29.901  1.00  0.00     0.001 A 
HETATM    2  C   UNL     1      -7.015   1.894 -30.583  1.00  0.00     0.013 A 
HETATM    3  C   UNL     1      -7.430   1.740 -31.894  1.00  0.00    -0.017 A 
HETATM    4  C   UNL     1      -8.213   2.735 -32.523  1.00  0.00    -0.020 A 
HETATM    5  C   UNL     1      -8.513   2.336 -33.958  1.00  0.00     0.153 A 
HETATM    6  C   UNL     1      -7.808   0.995 -34.066  1.00  0.00    -0.020 A 
HETATM    7  C   UNL     1      -7.180   0.674 -32.841  1.00  0.00    -0.017 A 
HETATM    8  C   UNL     1      -7.723   0.154 -35.166  1.00  0.00     0.010 A 
HETATM    9  C   UNL     1      -6.995  -1.029 -35.031  1.00  0.00     0.001 A 
HETATM   10  C   UNL     1      -6.367  -1.353 -33.816  1.00  0.00     0.001 A 
HETATM   11  C   UNL     1      -6.456  -0.500 -32.712  1.00  0.00     0.013 A 
HETATM   12  C   UNL     1      -8.570   3.898 -31.855  1.00  0.00     0.010 A 
HETATM   13  C   UNL     1      -8.153   4.051 -30.532  1.00  0.00     0.001 A 
ENDROOT
BRANCH   5  14
HETATM   14  N   UNL     1      -9.937   2.176 -34.165  1.00  0.00    -0.346 N 
HETATM   15  C   UNL     1     -10.704   3.150 -34.743  1.00  0.00     0.249 C 
HETATM   16  O   UNL     1     -10.265   4.252 -35.061  1.00  0.00    -0.271 OA
HETATM   17  H   UNL     1     -10.361   1.358 -33.727  1.00  0.00     0.163 HD
BRANCH  15  18
HETATM   18  C   UNL     1     -12.215   2.871 -34.820  1.00  0.00     0.279 C 
HETATM   19  N   UNL     1     -12.872   3.097 -33.465  1.00  0.00    -0.060 N 
HETATM   20  H   UNL     1     -12.124   3.086 -32.753  1.00  0.00     0.278 HD
HETATM   21  H   UNL     1     -13.326   4.017 -33.408  1.00  0.00     0.278 HD
HETATM   22  C   UNL     1     -13.785   1.938 -33.212  1.00  0.00     0.264 C 
HETATM   23  C   UNL     1     -13.064   0.799 -33.931  1.00  0.00     0.146 C 
HETATM   24  C   UNL     1     -12.628   1.455 -35.231  1.00  0.00     0.076 C 
BRANCH  23  25
HETATM   25  O   UNL     1     -11.887   0.442 -33.205  1.00  0.00    -0.394 OA
HETATM   26  H   UNL     1     -11.201   1.121 -33.379  1.00  0.00     0.210 HD
ENDBRANCH  23  25
ENDBRANCH  15  18
ENDBRANCH   5  14
TORSDOF 3
ENDMDL
MODEL 8
REMARK VINA RESULT:      -7.4     13.275     15.133
REMARK  3 active torsions:
REMARK  status: ('A' for Active; 'I' for Inactive)
REMARK    1  A    between atoms: C_5  and  N_6 
REMARK       I    between atoms: N_6  and  C_7 
REMARK    2  A    between atoms: C_7  and  C_8 
REMARK    3  A    between atoms: C_13  and  O_14 
ROOT
HETATM    1  C   UNL     1      -7.807 -12.752 -40.392  1.00  0.00     0.001 A 
HETATM    2  C   UNL     1      -7.797 -13.261 -39.090  1.00  0.00     0.013 A 
HETATM    3  C   UNL     1      -6.647 -13.113 -38.335  1.00  0.00    -0.017 A 
HETATM    4  C   UNL     1      -5.510 -12.468 -38.874  1.00  0.00    -0.020 A 
HETATM    5  C   UNL     1      -4.397 -12.417 -37.840  1.00  0.00     0.153 A 
HETATM    6  C   UNL     1      -5.040 -13.112 -36.652  1.00  0.00    -0.020 A 
HETATM    7  C   UNL     1      -6.359 -13.506 -36.971  1.00  0.00    -0.017 A 
HETATM    8  C   UNL     1      -4.497 -13.349 -35.398  1.00  0.00     0.010 A 
HETATM    9  C   UNL     1      -5.294 -13.993 -34.450  1.00  0.00     0.001 A 
HETATM   10  C   UNL     1      -6.607 -14.386 -34.762  1.00  0.00     0.001 A 
HETATM   11  C   UNL     1      -7.148 -14.142 -36.028  1.00  0.00     0.013 A 
HETATM   12  C   UNL     1      -5.519 -11.950 -40.161  1.00  0.00     0.010 A 
HETATM   13  C   UNL     1      -6.680 -12.102 -40.922  1.00  0.00     0.001 A 
ENDROOT
BRANCH   5  14
HETATM   14  N   UNL     1      -3.237 -13.157 -38.291  1.00  0.00    -0.346 N 
HETATM   15  C   UNL     1      -2.010 -12.570 -38.437  1.00  0.00     0.249 C 
HETATM   16  O   UNL     1      -1.814 -11.369 -38.272  1.00  0.00    -0.271 OA
HETATM   17  H   UNL     1      -3.415 -14.103 -38.628  1.00  0.00     0.163 HD
BRANCH  15  18
HETATM   18  C   UNL     1      -0.892 -13.462 -39.003  1.00  0.00     0.279 C 
HETATM   19  N   UNL     1      -1.022 -13.591 -40.515  1.00  0.00    -0.060 N 
HETATM   20  H   UNL     1      -1.983 -13.311 -40.767  1.00  0.00     0.278 HD
HETATM   21  H   UNL     1      -0.386 -12.954 -41.010  1.00  0.00     0.278 HD
HETATM   22  C   UNL     1      -0.844 -15.038 -40.857  1.00  0.00     0.264 C 
HETATM   23  C   UNL     1      -1.411 -15.732 -39.620  1.00  0.00     0.146 C 
HETATM   24  C   UNL     1      -0.837 -14.901 -38.484  1.00  0.00     0.076 C 
BRANCH  23  25
HETATM   25  O   UNL     1      -2.832 -15.583 -39.596  1.00  0.00    -0.394 OA
HETATM   26  H   UNL     1      -3.184 -16.115 -38.851  1.00  0.00     0.210 HD
ENDBRANCH  23  25
ENDBRANCH  15  18
ENDBRANCH   5  14
TORSDOF 3
ENDMDL
MODEL 9
REMARK VINA RESULT:      -7.0      6.785      9.203
REMARK  3 active torsions:
REMARK  status: ('A' for Active; 'I' for Inactive)
REMARK    1  A    between atoms: C_5  and  N_6 
REMARK       I    between atoms: N_6  and  C_7 
REMARK    2  A    between atoms: C_7  and  C_8 
REMARK    3  A    between atoms: C_13  and  O_14 
ROOT
HETATM    1  C   UNL     1      -1.370   5.479 -34.460  1.00  0.00     0.001 A 
HETATM    2  C   UNL     1      -2.209   4.517 -33.889  1.00  0.00     0.013 A 
HETATM    3  C   UNL     1      -2.890   4.844 -32.729  1.00  0.00    -0.017 A 
HETATM    4  C   UNL     1      -2.734   6.118 -32.138  1.00  0.00    -0.020 A 
HETATM    5  C   UNL     1      -3.603   6.229 -30.896  1.00  0.00     0.153 A 
HETATM    6  C   UNL     1      -4.268   4.864 -30.855  1.00  0.00    -0.020 A 
HETATM    7  C   UNL     1      -3.833   4.075 -31.944  1.00  0.00    -0.017 A 
HETATM    8  C   UNL     1      -5.192   4.385 -29.938  1.00  0.00     0.010 A 
HETATM    9  C   UNL     1      -5.685   3.091 -30.119  1.00  0.00     0.001 A 
HETATM   10  C   UNL     1      -5.256   2.304 -31.200  1.00  0.00     0.001 A 
HETATM   11  C   UNL     1      -4.326   2.794 -32.122  1.00  0.00     0.013 A 
HETATM   12  C   UNL     1      -1.913   7.081 -32.708  1.00  0.00     0.010 A 
HETATM   13  C   UNL     1      -1.225   6.749 -33.876  1.00  0.00     0.001 A 
ENDROOT
BRANCH   5  14
HETATM   14  N   UNL     1      -2.793   6.432 -29.713  1.00  0.00    -0.346 N 
HETATM   15  C   UNL     1      -2.651   7.660 -29.129  1.00  0.00     0.249 C 
HETATM   16  O   UNL     1      -3.132   8.689 -29.598  1.00  0.00    -0.271 OA
HETATM   17  H   UNL     1      -2.222   5.638 -29.423  1.00  0.00     0.163 HD
BRANCH  15  18
HETATM   18  C   UNL     1      -1.694   7.736 -27.927  1.00  0.00     0.279 C 
HETATM   19  N   UNL     1      -0.933   6.427 -27.764  1.00  0.00    -0.060 N 
HETATM   20  H   UNL     1      -1.446   5.704 -28.293  1.00  0.00     0.278 HD
HETATM   21  H   UNL     1       0.011   6.479 -28.166  1.00  0.00     0.278 HD
HETATM   22  C   UNL     1      -0.970   6.066 -26.311  1.00  0.00     0.264 C 
HETATM   23  C   UNL     1      -2.315   6.643 -25.872  1.00  0.00     0.146 C 
HETATM   24  C   UNL     1      -2.332   7.999 -26.561  1.00  0.00     0.076 C 
BRANCH  23  25
HETATM   25  O   UNL     1      -3.376   5.860 -26.422  1.00  0.00    -0.394 OA
HETATM   26  H   UNL     1      -4.209   6.112 -25.970  1.00  0.00     0.210 HD
ENDBRANCH  23  25
ENDBRANCH  15  18
ENDBRANCH   5  14
TORSDOF 3
ENDMDL
MODEL 10
REMARK VINA RESULT:      -6.9     13.112     15.322
REMARK  3 active torsions:
REMARK  status: ('A' for Active; 'I' for Inactive)
REMARK    1  A    between atoms: C_5  and  N_6 
REMARK       I    between atoms: N_6  and  C_7 
REMARK    2  A    between atoms: C_7  and  C_8 
REMARK    3  A    between atoms: C_13  and  O_14 
ROOT
HETATM    1  C   UNL     1     -10.426 -13.292 -40.246  1.00  0.00     0.001 A 
HETATM    2  C   UNL     1     -10.033 -14.422 -39.522  1.00  0.00     0.013 A 
HETATM    3  C   UNL     1      -8.869 -14.353 -38.777  1.00  0.00    -0.017 A 
HETATM    4  C   UNL     1      -8.096 -13.170 -38.757  1.00  0.00    -0.020 A 
HETATM    5  C   UNL     1      -6.889 -13.348 -37.851  1.00  0.00     0.153 A 
HETATM    6  C   UNL     1      -7.070 -14.775 -37.362  1.00  0.00    -0.020 A 
HETATM    7  C   UNL     1      -8.241 -15.337 -37.919  1.00  0.00    -0.017 A 
HETATM    8  C   UNL     1      -6.271 -15.491 -36.484  1.00  0.00     0.010 A 
HETATM    9  C   UNL     1      -6.654 -16.795 -36.163  1.00  0.00     0.001 A 
HETATM   10  C   UNL     1      -7.818 -17.358 -36.713  1.00  0.00     0.001 A 
HETATM   11  C   UNL     1      -8.620 -16.629 -37.597  1.00  0.00     0.013 A 
HETATM   12  C   UNL     1      -8.488 -12.042 -39.463  1.00  0.00     0.010 A 
HETATM   13  C   UNL     1      -9.662 -12.113 -40.217  1.00  0.00     0.001 A 
ENDROOT
BRANCH   5  14
HETATM   14  N   UNL     1      -5.656 -13.224 -38.600  1.00  0.00    -0.346 N 
HETATM   15  C   UNL     1      -4.492 -12.798 -38.021  1.00  0.00     0.249 C 
HETATM   16  O   UNL     1      -4.418 -12.421 -36.854  1.00  0.00    -0.271 OA
HETATM   17  H   UNL     1      -5.735 -13.335 -39.610  1.00  0.00     0.163 HD
BRANCH  15  18
HETATM   18  C   UNL     1      -3.284 -12.637 -38.960  1.00  0.00     0.279 C 
HETATM   19  N   UNL     1      -2.854 -13.988 -39.516  1.00  0.00    -0.060 N 
HETATM   20  H   UNL     1      -3.265 -14.717 -38.911  1.00  0.00     0.278 HD
HETATM   21  H   UNL     1      -3.218 -14.146 -40.464  1.00  0.00     0.278 HD
HETATM   22  C   UNL     1      -1.363 -14.065 -39.403  1.00  0.00     0.264 C 
HETATM   23  C   UNL     1      -1.093 -13.231 -38.152  1.00  0.00     0.146 C 
HETATM   24  C   UNL     1      -2.016 -12.038 -38.345  1.00  0.00     0.076 C 
BRANCH  23  25
HETATM   25  O   UNL     1      -1.537 -13.944 -36.996  1.00  0.00    -0.394 OA
HETATM   26  H   UNL     1      -0.782 -14.463 -36.646  1.00  0.00     0.210 HD
ENDBRANCH  23  25
ENDBRANCH  15  18
ENDBRANCH   5  14
TORSDOF 3
ENDMDL
