MODEL 1
REMARK VINA RESULT:      -9.1      0.000      0.000
REMARK  6 active torsions:
REMARK  status: ('A' for Active; 'I' for Inactive)
REMARK    1  A    between atoms: C_4  and  C_5 
REMARK    2  A    between atoms: C_14  and  C_15 
REMARK       I    between atoms: C_15  and  N_16 
REMARK    3  A    between atoms: N_16  and  C_17 
REMARK    4  A    between atoms: C_17  and  C_18 
REMARK    5  A    between atoms: C_18  and  N_19 
REMARK       I    between atoms: N_19  and  C_20 
REMARK    6  A    between atoms: C_20  and  C_21 
ROOT
HETATM    1  C   UNL     1      -5.936  -0.971 -34.133  1.00  0.00     0.069 A 
HETATM    2  N   UNL     1      -5.232  -0.341 -33.156  1.00  0.00    -0.230 NA
HETATM    3  C   UNL     1      -5.530   0.960 -33.013  1.00  0.00     0.139 A 
HETATM    4  C   UNL     1      -6.447   1.711 -33.735  1.00  0.00     0.027 A 
HETATM    5  C   UNL     1      -7.153   1.037 -34.744  1.00  0.00     0.018 A 
HETATM    6  C   UNL     1      -6.881  -0.322 -34.935  1.00  0.00     0.033 A 
HETATM    7  N   UNL     1      -4.949   1.782 -32.092  1.00  0.00    -0.349 N 
HETATM    8  H   UNL     1      -4.246   1.471 -31.437  1.00  0.00     0.167 HD
HETATM    9  C   UNL     1      -5.463   3.050 -32.204  1.00  0.00     0.108 A 
HETATM   10  C   UNL     1      -6.406   3.054 -33.226  1.00  0.00     0.061 A 
ENDROOT
BRANCH  10  11
HETATM   11  C   UNL     1      -7.208   4.180 -33.703  1.00  0.00     0.254 C 
HETATM   12  N   UNL     1      -8.558   4.108 -33.437  1.00  0.00    -0.355 N 
HETATM   13  H   UNL     1      -8.937   3.309 -32.953  1.00  0.00     0.162 HD
HETATM   14  O   UNL     1      -6.714   5.130 -34.303  1.00  0.00    -0.268 OA
BRANCH  12  15
HETATM   15  C   UNL     1      -9.467   5.167 -33.840  1.00  0.00     0.142 C 
BRANCH  15  16
HETATM   16  C   UNL     1     -10.340   4.770 -35.037  1.00  0.00     0.142 C 
BRANCH  16  17
HETATM   17  N   UNL     1     -11.550   4.074 -34.637  1.00  0.00    -0.355 N 
HETATM   18  C   UNL     1     -11.580   2.708 -34.443  1.00  0.00     0.258 C 
HETATM   19  O   UNL     1     -10.573   2.022 -34.600  1.00  0.00    -0.267 OA
HETATM   20  H   UNL     1     -12.409   4.598 -34.541  1.00  0.00     0.162 HD
BRANCH  18  21
HETATM   21  C   UNL     1     -12.866   2.144 -34.055  1.00  0.00     0.072 A 
HETATM   22  S   UNL     1     -13.855   2.845 -32.842  1.00  0.00    -0.097 SA
HETATM   23  C   UNL     1     -15.056   1.641 -33.025  1.00  0.00     0.050 A 
HETATM   24  C   UNL     1     -14.719   0.718 -33.989  1.00  0.00     0.009 A 
HETATM   25  C   UNL     1     -13.459   1.010 -34.583  1.00  0.00     0.025 A 
ENDBRANCH  18  21
ENDBRANCH  16  17
ENDBRANCH  15  16
ENDBRANCH  12  15
ENDBRANCH  10  11
BRANCH   1  26
HETATM   26  C   UNL     1      -5.620  -2.409 -34.307  1.00  0.00    -0.007 A 
HETATM   27  C   UNL     1      -4.356  -2.940 -33.992  1.00  0.00     0.014 A 
HETATM   28  C   UNL     1      -4.077  -4.302 -34.154  1.00  0.00     0.001 A 
HETATM   29  C   UNL     1      -5.057  -5.163 -34.639  1.00  0.00     0.000 A 
HETATM   30  C   UNL     1      -6.313  -4.663 -34.968  1.00  0.00     0.001 A 
HETATM   31  C   UNL     1      -6.588  -3.301 -34.805  1.00  0.00     0.014 A 
ENDBRANCH   1  26
TORSDOF 6
ENDMDL
MODEL 2
REMARK VINA RESULT:      -8.9      5.409      8.892
REMARK  6 active torsions:
REMARK  status: ('A' for Active; 'I' for Inactive)
REMARK    1  A    between atoms: C_4  and  C_5 
REMARK    2  A    between atoms: C_14  and  C_15 
REMARK       I    between atoms: C_15  and  N_16 
REMARK    3  A    between atoms: N_16  and  C_17 
REMARK    4  A    between atoms: C_17  and  C_18 
REMARK    5  A    between atoms: C_18  and  N_19 
REMARK       I    between atoms: N_19  and  C_20 
REMARK    6  A    between atoms: C_20  and  C_21 
ROOT
HETATM    1  C   UNL     1      -5.224  -0.834 -33.598  1.00  0.00     0.069 A 
HETATM    2  N   UNL     1      -6.213   0.020 -33.971  1.00  0.00    -0.230 NA
HETATM    3  C   UNL     1      -6.039   1.283 -33.549  1.00  0.00     0.139 A 
HETATM    4  C   UNL     1      -4.993   1.795 -32.794  1.00  0.00     0.027 A 
HETATM    5  C   UNL     1      -3.991   0.889 -32.416  1.00  0.00     0.018 A 
HETATM    6  C   UNL     1      -4.123  -0.441 -32.829  1.00  0.00     0.033 A 
HETATM    7  N   UNL     1      -6.905   2.305 -33.813  1.00  0.00    -0.349 N 
HETATM    8  H   UNL     1      -7.750   2.189 -34.353  1.00  0.00     0.167 HD
HETATM    9  C   UNL     1      -6.448   3.465 -33.240  1.00  0.00     0.108 A 
HETATM   10  C   UNL     1      -5.251   3.193 -32.587  1.00  0.00     0.061 A 
ENDROOT
BRANCH  10  11
HETATM   11  C   UNL     1      -4.406   4.122 -31.837  1.00  0.00     0.254 C 
HETATM   12  N   UNL     1      -3.350   4.667 -32.534  1.00  0.00    -0.355 N 
HETATM   13  H   UNL     1      -3.192   4.410 -33.496  1.00  0.00     0.162 HD
HETATM   14  O   UNL     1      -4.621   4.401 -30.661  1.00  0.00    -0.268 OA
BRANCH  12  15
HETATM   15  C   UNL     1      -2.443   5.617 -31.916  1.00  0.00     0.142 C 
BRANCH  15  16
HETATM   16  C   UNL     1      -1.221   4.939 -31.283  1.00  0.00     0.142 C 
BRANCH  16  17
HETATM   17  N   UNL     1      -0.821   5.566 -30.035  1.00  0.00    -0.355 N 
HETATM   18  C   UNL     1       0.139   6.555 -29.987  1.00  0.00     0.258 C 
HETATM   19  O   UNL     1       0.697   6.950 -31.009  1.00  0.00    -0.267 OA
HETATM   20  H   UNL     1      -1.224   5.237 -29.169  1.00  0.00     0.162 HD
BRANCH  18  21
HETATM   21  C   UNL     1       0.449   7.085 -28.665  1.00  0.00     0.072 A 
HETATM   22  S   UNL     1      -0.161   6.385 -27.223  1.00  0.00    -0.097 SA
HETATM   23  C   UNL     1       0.635   7.539 -26.243  1.00  0.00     0.050 A 
HETATM   24  C   UNL     1       1.355   8.443 -26.990  1.00  0.00     0.009 A 
HETATM   25  C   UNL     1       1.249   8.179 -28.385  1.00  0.00     0.025 A 
ENDBRANCH  18  21
ENDBRANCH  16  17
ENDBRANCH  15  16
ENDBRANCH  12  15
ENDBRANCH  10  11
BRANCH   1  26
HETATM   26  C   UNL     1      -5.399  -2.234 -34.053  1.00  0.00    -0.007 A 
HETATM   27  C   UNL     1      -6.606  -2.694 -34.611  1.00  0.00     0.014 A 
HETATM   28  C   UNL     1      -6.752  -4.016 -35.044  1.00  0.00     0.001 A 
HETATM   29  C   UNL     1      -5.692  -4.911 -34.924  1.00  0.00     0.000 A 
HETATM   30  C   UNL     1      -4.491  -4.487 -34.366  1.00  0.00     0.001 A 
HETATM   31  C   UNL     1      -4.349  -3.164 -33.935  1.00  0.00     0.014 A 
ENDBRANCH   1  26
TORSDOF 6
ENDMDL
MODEL 3
REMARK VINA RESULT:      -8.9      3.505      6.349
REMARK  6 active torsions:
REMARK  status: ('A' for Active; 'I' for Inactive)
REMARK    1  A    between atoms: C_4  and  C_5 
REMARK    2  A    between atoms: C_14  and  C_15 
REMARK       I    between atoms: C_15  and  N_16 
REMARK    3  A    between atoms: N_16  and  C_17 
REMARK    4  A    between atoms: C_17  and  C_18 
REMARK    5  A    between atoms: C_18  and  N_19 
REMARK       I    between atoms: N_19  and  C_20 
REMARK    6  A    between atoms: C_20  and  C_21 
ROOT
HETATM    1  C   UNL     1      -6.317  -0.826 -34.095  1.00  0.00     0.069 A 
HETATM    2  N   UNL     1      -7.588  -0.542 -34.483  1.00  0.00    -0.230 NA
HETATM    3  C   UNL     1      -7.942   0.742 -34.314  1.00  0.00     0.139 A 
HETATM    4  C   UNL     1      -7.178   1.779 -33.799  1.00  0.00     0.027 A 
HETATM    5  C   UNL     1      -5.872   1.455 -33.397  1.00  0.00     0.018 A 
HETATM    6  C   UNL     1      -5.451   0.130 -33.551  1.00  0.00     0.033 A 
HETATM    7  N   UNL     1      -9.167   1.247 -34.641  1.00  0.00    -0.349 N 
HETATM    8  H   UNL     1      -9.907   0.689 -35.042  1.00  0.00     0.167 HD
HETATM    9  C   UNL     1      -9.217   2.586 -34.342  1.00  0.00     0.108 A 
HETATM   10  C   UNL     1      -7.989   2.964 -33.808  1.00  0.00     0.061 A 
ENDROOT
BRANCH  10  11
HETATM   11  C   UNL     1      -7.582   4.291 -33.345  1.00  0.00     0.254 C 
HETATM   12  N   UNL     1      -7.870   4.579 -32.029  1.00  0.00    -0.355 N 
HETATM   13  H   UNL     1      -8.343   3.900 -31.453  1.00  0.00     0.162 HD
HETATM   14  O   UNL     1      -7.020   5.098 -34.079  1.00  0.00    -0.268 OA
BRANCH  12  15
HETATM   15  C   UNL     1      -7.506   5.853 -31.435  1.00  0.00     0.142 C 
BRANCH  15  16
HETATM   16  C   UNL     1      -6.152   5.802 -30.715  1.00  0.00     0.142 C 
BRANCH  16  17
HETATM   17  N   UNL     1      -5.036   6.052 -31.611  1.00  0.00    -0.355 N 
HETATM   18  C   UNL     1      -4.127   5.069 -31.942  1.00  0.00     0.258 C 
HETATM   19  O   UNL     1      -4.229   3.931 -31.489  1.00  0.00    -0.267 OA
HETATM   20  H   UNL     1      -4.893   6.987 -31.967  1.00  0.00     0.162 HD
BRANCH  18  21
HETATM   21  C   UNL     1      -3.051   5.466 -32.840  1.00  0.00     0.072 A 
HETATM   22  S   UNL     1      -2.387   7.047 -32.846  1.00  0.00    -0.097 SA
HETATM   23  C   UNL     1      -1.285   6.657 -34.094  1.00  0.00     0.050 A 
HETATM   24  C   UNL     1      -1.411   5.349 -34.504  1.00  0.00     0.009 A 
HETATM   25  C   UNL     1      -2.427   4.663 -33.780  1.00  0.00     0.025 A 
ENDBRANCH  18  21
ENDBRANCH  16  17
ENDBRANCH  15  16
ENDBRANCH  12  15
ENDBRANCH  10  11
BRANCH   1  26
HETATM   26  C   UNL     1      -5.907  -2.239 -34.271  1.00  0.00    -0.007 A 
HETATM   27  C   UNL     1      -6.801  -3.226 -34.724  1.00  0.00     0.014 A 
HETATM   28  C   UNL     1      -6.395  -4.554 -34.895  1.00  0.00     0.001 A 
HETATM   29  C   UNL     1      -5.084  -4.926 -34.610  1.00  0.00     0.000 A 
HETATM   30  C   UNL     1      -4.181  -3.974 -34.151  1.00  0.00     0.001 A 
HETATM   31  C   UNL     1      -4.591  -2.646 -33.982  1.00  0.00     0.014 A 
ENDBRANCH   1  26
TORSDOF 6
ENDMDL
MODEL 4
REMARK VINA RESULT:      -8.4      1.366      1.979
REMARK  6 active torsions:
REMARK  status: ('A' for Active; 'I' for Inactive)
REMARK    1  A    between atoms: C_4  and  C_5 
REMARK    2  A    between atoms: C_14  and  C_15 
REMARK       I    between atoms: C_15  and  N_16 
REMARK    3  A    between atoms: N_16  and  C_17 
REMARK    4  A    between atoms: C_17  and  C_18 
REMARK    5  A    between atoms: C_18  and  N_19 
REMARK       I    between atoms: N_19  and  C_20 
REMARK    6  A    between atoms: C_20  and  C_21 
ROOT
HETATM    1  C   UNL     1      -5.905  -0.742 -33.962  1.00  0.00     0.069 A 
HETATM    2  N   UNL     1      -5.131  -0.249 -32.959  1.00  0.00    -0.230 NA
HETATM    3  C   UNL     1      -5.293   1.064 -32.731  1.00  0.00     0.139 A 
HETATM    4  C   UNL     1      -6.136   1.948 -33.391  1.00  0.00     0.027 A 
HETATM    5  C   UNL     1      -6.917   1.414 -34.428  1.00  0.00     0.018 A 
HETATM    6  C   UNL     1      -6.786   0.049 -34.707  1.00  0.00     0.033 A 
HETATM    7  N   UNL     1      -4.623   1.763 -31.770  1.00  0.00    -0.349 N 
HETATM    8  H   UNL     1      -3.949   1.342 -31.148  1.00  0.00     0.167 HD
HETATM    9  C   UNL     1      -5.007   3.081 -31.796  1.00  0.00     0.108 A 
HETATM   10  C   UNL     1      -5.955   3.244 -32.800  1.00  0.00     0.061 A 
ENDROOT
BRANCH  10  11
HETATM   11  C   UNL     1      -6.643   4.474 -33.194  1.00  0.00     0.254 C 
HETATM   12  N   UNL     1      -7.365   5.099 -32.200  1.00  0.00    -0.355 N 
HETATM   13  H   UNL     1      -7.404   4.700 -31.275  1.00  0.00     0.162 HD
HETATM   14  O   UNL     1      -6.584   4.923 -34.334  1.00  0.00    -0.268 OA
BRANCH  12  15
HETATM   15  C   UNL     1      -8.082   6.337 -32.450  1.00  0.00     0.142 C 
BRANCH  15  16
HETATM   16  C   UNL     1      -9.585   6.215 -32.166  1.00  0.00     0.142 C 
BRANCH  16  17
HETATM   17  N   UNL     1     -10.101   4.890 -32.466  1.00  0.00    -0.355 N 
HETATM   18  C   UNL     1     -10.828   4.628 -33.608  1.00  0.00     0.258 C 
HETATM   19  O   UNL     1     -11.067   5.513 -34.426  1.00  0.00    -0.267 OA
HETATM   20  H   UNL     1      -9.963   4.147 -31.795  1.00  0.00     0.162 HD
BRANCH  18  21
HETATM   21  C   UNL     1     -11.293   3.257 -33.772  1.00  0.00     0.072 A 
HETATM   22  S   UNL     1     -12.764   2.869 -34.564  1.00  0.00    -0.097 SA
HETATM   23  C   UNL     1     -12.535   1.191 -34.320  1.00  0.00     0.050 A 
HETATM   24  C   UNL     1     -11.363   0.922 -33.650  1.00  0.00     0.009 A 
HETATM   25  C   UNL     1     -10.648   2.112 -33.337  1.00  0.00     0.025 A 
ENDBRANCH  18  21
ENDBRANCH  16  17
ENDBRANCH  15  16
ENDBRANCH  12  15
ENDBRANCH  10  11
BRANCH   1  26
HETATM   26  C   UNL     1      -5.738  -2.190 -34.230  1.00  0.00    -0.007 A 
HETATM   27  C   UNL     1      -6.793  -2.989 -34.708  1.00  0.00     0.014 A 
HETATM   28  C   UNL     1      -6.616  -4.352 -34.965  1.00  0.00     0.001 A 
HETATM   29  C   UNL     1      -5.377  -4.950 -34.746  1.00  0.00     0.000 A 
HETATM   30  C   UNL     1      -4.319  -4.187 -34.263  1.00  0.00     0.001 A 
HETATM   31  C   UNL     1      -4.500  -2.823 -34.008  1.00  0.00     0.014 A 
ENDBRANCH   1  26
TORSDOF 6
ENDMDL
MODEL 5
REMARK VINA RESULT:      -8.3      4.335      7.609
REMARK  6 active torsions:
REMARK  status: ('A' for Active; 'I' for Inactive)
REMARK    1  A    between atoms: C_4  and  C_5 
REMARK    2  A    between atoms: C_14  and  C_15 
REMARK       I    between atoms: C_15  and  N_16 
REMARK    3  A    between atoms: N_16  and  C_17 
REMARK    4  A    between atoms: C_17  and  C_18 
REMARK    5  A    between atoms: C_18  and  N_19 
REMARK       I    between atoms: N_19  and  C_20 
REMARK    6  A    between atoms: C_20  and  C_21 
ROOT
HETATM    1  C   UNL     1      -6.147  -0.881 -34.018  1.00  0.00     0.069 A 
HETATM    2  N   UNL     1      -7.365  -0.474 -34.464  1.00  0.00    -0.230 NA
HETATM    3  C   UNL     1      -7.627   0.825 -34.242  1.00  0.00     0.139 A 
HETATM    4  C   UNL     1      -6.817   1.766 -33.622  1.00  0.00     0.027 A 
HETATM    5  C   UNL     1      -5.570   1.315 -33.163  1.00  0.00     0.018 A 
HETATM    6  C   UNL     1      -5.246  -0.030 -33.370  1.00  0.00     0.033 A 
HETATM    7  N   UNL     1      -8.784   1.446 -34.611  1.00  0.00    -0.349 N 
HETATM    8  H   UNL     1      -9.539   0.973 -35.087  1.00  0.00     0.167 HD
HETATM    9  C   UNL     1      -8.747   2.766 -34.238  1.00  0.00     0.108 A 
HETATM   10  C   UNL     1      -7.530   3.013 -33.611  1.00  0.00     0.061 A 
ENDROOT
BRANCH  10  11
HETATM   11  C   UNL     1      -7.050   4.275 -33.048  1.00  0.00     0.254 C 
HETATM   12  N   UNL     1      -5.828   4.709 -33.511  1.00  0.00    -0.355 N 
HETATM   13  H   UNL     1      -5.318   4.161 -34.187  1.00  0.00     0.162 HD
HETATM   14  O   UNL     1      -7.692   4.908 -32.215  1.00  0.00    -0.268 OA
BRANCH  12  15
HETATM   15  C   UNL     1      -5.241   5.955 -33.049  1.00  0.00     0.142 C 
BRANCH  15  16
HETATM   16  C   UNL     1      -3.739   6.044 -33.344  1.00  0.00     0.142 C 
BRANCH  16  17
HETATM   17  N   UNL     1      -2.986   6.604 -32.236  1.00  0.00    -0.355 N 
HETATM   18  C   UNL     1      -1.744   6.124 -31.875  1.00  0.00     0.258 C 
HETATM   19  O   UNL     1      -1.220   5.196 -32.487  1.00  0.00    -0.267 OA
HETATM   20  H   UNL     1      -3.403   7.339 -31.681  1.00  0.00     0.162 HD
BRANCH  18  21
HETATM   21  C   UNL     1      -1.111   6.774 -30.736  1.00  0.00     0.072 A 
HETATM   22  S   UNL     1      -2.004   7.615 -29.537  1.00  0.00    -0.097 SA
HETATM   23  C   UNL     1      -0.590   8.018 -28.664  1.00  0.00     0.050 A 
HETATM   24  C   UNL     1       0.546   7.525 -29.265  1.00  0.00     0.009 A 
HETATM   25  C   UNL     1       0.245   6.807 -30.457  1.00  0.00     0.025 A 
ENDBRANCH  18  21
ENDBRANCH  16  17
ENDBRANCH  15  16
ENDBRANCH  12  15
ENDBRANCH  10  11
BRANCH   1  26
HETATM   26  C   UNL     1      -5.840  -2.312 -34.252  1.00  0.00    -0.007 A 
HETATM   27  C   UNL     1      -6.805  -3.215 -34.735  1.00  0.00     0.014 A 
HETATM   28  C   UNL     1      -6.495  -4.561 -34.960  1.00  0.00     0.001 A 
HETATM   29  C   UNL     1      -5.212  -5.036 -34.701  1.00  0.00     0.000 A 
HETATM   30  C   UNL     1      -4.241  -4.168 -34.214  1.00  0.00     0.001 A 
HETATM   31  C   UNL     1      -4.554  -2.822 -33.991  1.00  0.00     0.014 A 
ENDBRANCH   1  26
TORSDOF 6
ENDMDL
MODEL 6
REMARK VINA RESULT:      -8.3      5.137      7.730
REMARK  6 active torsions:
REMARK  status: ('A' for Active; 'I' for Inactive)
REMARK    1  A    between atoms: C_4  and  C_5 
REMARK    2  A    between atoms: C_14  and  C_15 
REMARK       I    between atoms: C_15  and  N_16 
REMARK    3  A    between atoms: N_16  and  C_17 
REMARK    4  A    between atoms: C_17  and  C_18 
REMARK    5  A    between atoms: C_18  and  N_19 
REMARK       I    between atoms: N_19  and  C_20 
REMARK    6  A    between atoms: C_20  and  C_21 
ROOT
HETATM    1  C   UNL     1      -5.205  -1.227 -33.631  1.00  0.00     0.069 A 
HETATM    2  N   UNL     1      -4.229  -1.136 -32.690  1.00  0.00    -0.230 NA
HETATM    3  C   UNL     1      -4.024   0.108 -32.227  1.00  0.00     0.139 A 
HETATM    4  C   UNL     1      -4.678   1.275 -32.595  1.00  0.00     0.027 A 
HETATM    5  C   UNL     1      -5.675   1.153 -33.575  1.00  0.00     0.018 A 
HETATM    6  C   UNL     1      -5.929  -0.122 -34.092  1.00  0.00     0.033 A 
HETATM    7  N   UNL     1      -3.098   0.429 -31.277  1.00  0.00    -0.349 N 
HETATM    8  H   UNL     1      -2.492  -0.252 -30.842  1.00  0.00     0.167 HD
HETATM    9  C   UNL     1      -3.132   1.778 -31.026  1.00  0.00     0.108 A 
HETATM   10  C   UNL     1      -4.108   2.352 -31.834  1.00  0.00     0.061 A 
ENDROOT
BRANCH  10  11
HETATM   11  C   UNL     1      -4.496   3.760 -31.910  1.00  0.00     0.254 C 
HETATM   12  N   UNL     1      -4.036   4.448 -33.011  1.00  0.00    -0.355 N 
HETATM   13  H   UNL     1      -3.461   3.982 -33.696  1.00  0.00     0.162 HD
HETATM   14  O   UNL     1      -5.186   4.299 -31.049  1.00  0.00    -0.268 OA
BRANCH  12  15
HETATM   15  C   UNL     1      -4.361   5.849 -33.220  1.00  0.00     0.142 C 
BRANCH  15  16
HETATM   16  C   UNL     1      -3.118   6.747 -33.229  1.00  0.00     0.142 C 
BRANCH  16  17
HETATM   17  N   UNL     1      -2.427   6.754 -31.951  1.00  0.00    -0.355 N 
HETATM   18  C   UNL     1      -1.360   5.920 -31.689  1.00  0.00     0.258 C 
HETATM   19  O   UNL     1      -0.946   5.134 -32.538  1.00  0.00    -0.267 OA
HETATM   20  H   UNL     1      -2.767   7.355 -31.213  1.00  0.00     0.162 HD
BRANCH  18  21
HETATM   21  C   UNL     1      -0.773   6.027 -30.360  1.00  0.00     0.072 A 
HETATM   22  S   UNL     1      -1.408   7.062 -29.150  1.00  0.00    -0.097 SA
HETATM   23  C   UNL     1      -0.213   6.593 -28.020  1.00  0.00     0.050 A 
HETATM   24  C   UNL     1       0.658   5.665 -28.546  1.00  0.00     0.009 A 
HETATM   25  C   UNL     1       0.333   5.338 -29.893  1.00  0.00     0.025 A 
ENDBRANCH  18  21
ENDBRANCH  16  17
ENDBRANCH  15  16
ENDBRANCH  12  15
ENDBRANCH  10  11
BRANCH   1  26
HETATM   26  C   UNL     1      -5.445  -2.592 -34.156  1.00  0.00    -0.007 A 
HETATM   27  C   UNL     1      -6.673  -2.968 -34.731  1.00  0.00     0.014 A 
HETATM   28  C   UNL     1      -6.879  -4.258 -35.231  1.00  0.00     0.001 A 
HETATM   29  C   UNL     1      -5.861  -5.205 -35.163  1.00  0.00     0.000 A 
HETATM   30  C   UNL     1      -4.639  -4.864 -34.591  1.00  0.00     0.001 A 
HETATM   31  C   UNL     1      -4.437  -3.573 -34.092  1.00  0.00     0.014 A 
ENDBRANCH   1  26
TORSDOF 6
ENDMDL
MODEL 7
REMARK VINA RESULT:      -8.2      4.175      6.075
REMARK  6 active torsions:
REMARK  status: ('A' for Active; 'I' for Inactive)
REMARK    1  A    between atoms: C_4  and  C_5 
REMARK    2  A    between atoms: C_14  and  C_15 
REMARK       I    between atoms: C_15  and  N_16 
REMARK    3  A    between atoms: N_16  and  C_17 
REMARK    4  A    between atoms: C_17  and  C_18 
REMARK    5  A    between atoms: C_18  and  N_19 
REMARK       I    between atoms: N_19  and  C_20 
REMARK    6  A    between atoms: C_20  and  C_21 
ROOT
HETATM    1  C   UNL     1      -6.235  -1.128 -33.316  1.00  0.00     0.069 A 
HETATM    2  N   UNL     1      -5.821  -0.992 -32.029  1.00  0.00    -0.230 NA
HETATM    3  C   UNL     1      -6.123   0.194 -31.476  1.00  0.00     0.139 A 
HETATM    4  C   UNL     1      -6.786   1.265 -32.059  1.00  0.00     0.027 A 
HETATM    5  C   UNL     1      -7.193   1.099 -33.392  1.00  0.00     0.018 A 
HETATM    6  C   UNL     1      -6.904  -0.119 -34.016  1.00  0.00     0.033 A 
HETATM    7  N   UNL     1      -5.808   0.544 -30.195  1.00  0.00    -0.349 N 
HETATM    8  H   UNL     1      -5.322  -0.070 -29.557  1.00  0.00     0.167 HD
HETATM    9  C   UNL     1      -6.246   1.819 -29.936  1.00  0.00     0.108 A 
HETATM   10  C   UNL     1      -6.865   2.313 -31.080  1.00  0.00     0.061 A 
ENDROOT
BRANCH  10  11
HETATM   11  C   UNL     1      -7.480   3.626 -31.271  1.00  0.00     0.254 C 
HETATM   12  N   UNL     1      -6.741   4.702 -30.831  1.00  0.00    -0.355 N 
HETATM   13  H   UNL     1      -5.842   4.557 -30.398  1.00  0.00     0.162 HD
HETATM   14  O   UNL     1      -8.583   3.765 -31.790  1.00  0.00    -0.268 OA
BRANCH  12  15
HETATM   15  C   UNL     1      -7.225   6.064 -30.975  1.00  0.00     0.142 C 
BRANCH  15  16
HETATM   16  C   UNL     1      -6.937   6.648 -32.364  1.00  0.00     0.142 C 
BRANCH  16  17
HETATM   17  N   UNL     1      -5.526   6.600 -32.706  1.00  0.00    -0.355 N 
HETATM   18  C   UNL     1      -5.033   5.742 -33.667  1.00  0.00     0.258 C 
HETATM   19  O   UNL     1      -5.778   4.980 -34.280  1.00  0.00    -0.267 OA
HETATM   20  H   UNL     1      -4.877   7.179 -32.192  1.00  0.00     0.162 HD
BRANCH  18  21
HETATM   21  C   UNL     1      -3.596   5.793 -33.897  1.00  0.00     0.072 A 
HETATM   22  S   UNL     1      -2.546   6.778 -32.965  1.00  0.00    -0.097 SA
HETATM   23  C   UNL     1      -1.169   6.262 -33.840  1.00  0.00     0.050 A 
HETATM   24  C   UNL     1      -1.493   5.356 -34.824  1.00  0.00     0.009 A 
HETATM   25  C   UNL     1      -2.891   5.085 -34.855  1.00  0.00     0.025 A 
ENDBRANCH  18  21
ENDBRANCH  16  17
ENDBRANCH  15  16
ENDBRANCH  12  15
ENDBRANCH  10  11
BRANCH   1  26
HETATM   26  C   UNL     1      -5.909  -2.430 -33.945  1.00  0.00    -0.007 A 
HETATM   27  C   UNL     1      -6.858  -3.164 -34.681  1.00  0.00     0.014 A 
HETATM   28  C   UNL     1      -6.531  -4.387 -35.277  1.00  0.00     0.001 A 
HETATM   29  C   UNL     1      -5.246  -4.907 -35.145  1.00  0.00     0.000 A 
HETATM   30  C   UNL     1      -4.291  -4.209 -34.414  1.00  0.00     0.001 A 
HETATM   31  C   UNL     1      -4.621  -2.986 -33.821  1.00  0.00     0.014 A 
ENDBRANCH   1  26
TORSDOF 6
ENDMDL
MODEL 8
REMARK VINA RESULT:      -8.1      5.043      7.987
REMARK  6 active torsions:
REMARK  status: ('A' for Active; 'I' for Inactive)
REMARK    1  A    between atoms: C_4  and  C_5 
REMARK    2  A    between atoms: C_14  and  C_15 
REMARK       I    between atoms: C_15  and  N_16 
REMARK    3  A    between atoms: N_16  and  C_17 
REMARK    4  A    between atoms: C_17  and  C_18 
REMARK    5  A    between atoms: C_18  and  N_19 
REMARK       I    between atoms: N_19  and  C_20 
REMARK    6  A    between atoms: C_20  and  C_21 
ROOT
HETATM    1  C   UNL     1      -5.592  -0.199 -32.797  1.00  0.00     0.069 A 
HETATM    2  N   UNL     1      -4.413   0.476 -32.842  1.00  0.00    -0.230 NA
HETATM    3  C   UNL     1      -4.412   1.630 -32.154  1.00  0.00     0.139 A 
HETATM    4  C   UNL     1      -5.453   2.193 -31.430  1.00  0.00     0.027 A 
HETATM    5  C   UNL     1      -6.661   1.479 -31.409  1.00  0.00     0.018 A 
HETATM    6  C   UNL     1      -6.717   0.270 -32.109  1.00  0.00     0.033 A 
HETATM    7  N   UNL     1      -3.336   2.463 -32.059  1.00  0.00    -0.349 N 
HETATM    8  H   UNL     1      -2.447   2.272 -32.500  1.00  0.00     0.167 HD
HETATM    9  C   UNL     1      -3.656   3.557 -31.295  1.00  0.00     0.108 A 
HETATM   10  C   UNL     1      -4.978   3.432 -30.880  1.00  0.00     0.061 A 
ENDROOT
BRANCH  10  11
HETATM   11  C   UNL     1      -5.749   4.358 -30.050  1.00  0.00     0.254 C 
HETATM   12  N   UNL     1      -5.256   4.577 -28.782  1.00  0.00    -0.355 N 
HETATM   13  H   UNL     1      -4.421   4.104 -28.474  1.00  0.00     0.162 HD
HETATM   14  O   UNL     1      -6.770   4.906 -30.454  1.00  0.00    -0.268 OA
BRANCH  12  15
HETATM   15  C   UNL     1      -5.915   5.486 -27.860  1.00  0.00     0.142 C 
BRANCH  15  16
HETATM   16  C   UNL     1      -4.924   6.393 -27.119  1.00  0.00     0.142 C 
BRANCH  16  17
HETATM   17  N   UNL     1      -3.600   6.376 -27.717  1.00  0.00    -0.355 N 
HETATM   18  C   UNL     1      -3.189   7.338 -28.616  1.00  0.00     0.258 C 
HETATM   19  O   UNL     1      -3.935   8.258 -28.946  1.00  0.00    -0.267 OA
HETATM   20  H   UNL     1      -2.975   5.611 -27.504  1.00  0.00     0.162 HD
BRANCH  18  21
HETATM   21  C   UNL     1      -1.840   7.188 -29.145  1.00  0.00     0.072 A 
HETATM   22  S   UNL     1      -1.500   7.198 -30.825  1.00  0.00    -0.097 SA
HETATM   23  C   UNL     1       0.176   6.985 -30.560  1.00  0.00     0.050 A 
HETATM   24  C   UNL     1       0.480   6.907 -29.220  1.00  0.00     0.009 A 
HETATM   25  C   UNL     1      -0.681   7.027 -28.405  1.00  0.00     0.025 A 
ENDBRANCH  18  21
ENDBRANCH  16  17
ENDBRANCH  15  16
ENDBRANCH  12  15
ENDBRANCH  10  11
BRANCH   1  26
HETATM   26  C   UNL     1      -5.614  -1.474 -33.552  1.00  0.00    -0.007 A 
HETATM   27  C   UNL     1      -6.797  -1.995 -34.108  1.00  0.00     0.014 A 
HETATM   28  C   UNL     1      -6.799  -3.195 -34.826  1.00  0.00     0.001 A 
HETATM   29  C   UNL     1      -5.615  -3.907 -35.000  1.00  0.00     0.000 A 
HETATM   30  C   UNL     1      -4.432  -3.422 -34.452  1.00  0.00     0.001 A 
HETATM   31  C   UNL     1      -4.434  -2.220 -33.735  1.00  0.00     0.014 A 
ENDBRANCH   1  26
TORSDOF 6
ENDMDL
MODEL 9
REMARK VINA RESULT:      -7.8      7.524     11.330
REMARK  6 active torsions:
REMARK  status: ('A' for Active; 'I' for Inactive)
REMARK    1  A    between atoms: C_4  and  C_5 
REMARK    2  A    between atoms: C_14  and  C_15 
REMARK       I    between atoms: C_15  and  N_16 
REMARK    3  A    between atoms: N_16  and  C_17 
REMARK    4  A    between atoms: C_17  and  C_18 
REMARK    5  A    between atoms: C_18  and  N_19 
REMARK       I    between atoms: N_19  and  C_20 
REMARK    6  A    between atoms: C_20  and  C_21 
ROOT
HETATM    1  C   UNL     1       0.566   8.123 -27.542  1.00  0.00     0.069 A 
HETATM    2  N   UNL     1      -0.381   8.795 -28.247  1.00  0.00    -0.230 NA
HETATM    3  C   UNL     1      -0.984   8.062 -29.198  1.00  0.00     0.139 A 
HETATM    4  C   UNL     1      -0.748   6.736 -29.532  1.00  0.00     0.027 A 
HETATM    5  C   UNL     1       0.242   6.070 -28.793  1.00  0.00     0.018 A 
HETATM    6  C   UNL     1       0.901   6.787 -27.789  1.00  0.00     0.033 A 
HETATM    7  N   UNL     1      -1.966   8.533 -30.020  1.00  0.00    -0.349 N 
HETATM    8  H   UNL     1      -2.322   9.477 -29.973  1.00  0.00     0.167 HD
HETATM    9  C   UNL     1      -2.369   7.545 -30.883  1.00  0.00     0.108 A 
HETATM   10  C   UNL     1      -1.629   6.398 -30.615  1.00  0.00     0.061 A 
ENDROOT
BRANCH  10  11
HETATM   11  C   UNL     1      -1.713   5.099 -31.284  1.00  0.00     0.254 C 
HETATM   12  N   UNL     1      -2.880   4.396 -31.079  1.00  0.00    -0.355 N 
HETATM   13  H   UNL     1      -3.604   4.776 -30.491  1.00  0.00     0.162 HD
HETATM   14  O   UNL     1      -0.804   4.661 -31.983  1.00  0.00    -0.268 OA
BRANCH  12  15
HETATM   15  C   UNL     1      -3.102   3.100 -31.698  1.00  0.00     0.142 C 
BRANCH  15  16
HETATM   16  C   UNL     1      -4.264   2.333 -31.056  1.00  0.00     0.142 C 
BRANCH  16  17
HETATM   17  N   UNL     1      -4.852   1.357 -31.958  1.00  0.00    -0.355 N 
HETATM   18  C   UNL     1      -4.520   0.020 -31.909  1.00  0.00     0.258 C 
HETATM   19  O   UNL     1      -3.707  -0.403 -31.090  1.00  0.00    -0.267 OA
HETATM   20  H   UNL     1      -5.491   1.674 -32.674  1.00  0.00     0.162 HD
BRANCH  18  21
HETATM   21  C   UNL     1      -5.178  -0.841 -32.882  1.00  0.00     0.072 A 
HETATM   22  S   UNL     1      -6.832  -0.665 -33.302  1.00  0.00    -0.097 SA
HETATM   23  C   UNL     1      -6.764  -1.968 -34.408  1.00  0.00     0.050 A 
HETATM   24  C   UNL     1      -5.509  -2.532 -34.464  1.00  0.00     0.009 A 
HETATM   25  C   UNL     1      -4.596  -1.881 -33.587  1.00  0.00     0.025 A 
ENDBRANCH  18  21
ENDBRANCH  16  17
ENDBRANCH  15  16
ENDBRANCH  12  15
ENDBRANCH  10  11
BRANCH   1  26
HETATM   26  C   UNL     1       1.244   8.915 -26.489  1.00  0.00    -0.007 A 
HETATM   27  C   UNL     1       2.226   8.359 -25.649  1.00  0.00     0.014 A 
HETATM   28  C   UNL     1       2.864   9.123 -24.666  1.00  0.00     0.001 A 
HETATM   29  C   UNL     1       2.529  10.464 -24.498  1.00  0.00     0.000 A 
HETATM   30  C   UNL     1       1.553  11.038 -25.306  1.00  0.00     0.001 A 
HETATM   31  C   UNL     1       0.918  10.270 -26.288  1.00  0.00     0.014 A 
ENDBRANCH   1  26
TORSDOF 6
ENDMDL
MODEL 10
REMARK VINA RESULT:      -7.8      4.791      7.570
REMARK  6 active torsions:
REMARK  status: ('A' for Active; 'I' for Inactive)
REMARK    1  A    between atoms: C_4  and  C_5 
REMARK    2  A    between atoms: C_14  and  C_15 
REMARK       I    between atoms: C_15  and  N_16 
REMARK    3  A    between atoms: N_16  and  C_17 
REMARK    4  A    between atoms: C_17  and  C_18 
REMARK    5  A    between atoms: C_18  and  N_19 
REMARK       I    between atoms: N_19  and  C_20 
REMARK    6  A    between atoms: C_20  and  C_21 
ROOT
HETATM    1  C   UNL     1      -5.730  -0.702 -33.314  1.00  0.00     0.069 A 
HETATM    2  N   UNL     1      -6.081   0.264 -34.203  1.00  0.00    -0.230 NA
HETATM    3  C   UNL     1      -6.133   1.500 -33.681  1.00  0.00     0.139 A 
HETATM    4  C   UNL     1      -5.881   1.886 -32.372  1.00  0.00     0.027 A 
HETATM    5  C   UNL     1      -5.531   0.866 -31.474  1.00  0.00     0.018 A 
HETATM    6  C   UNL     1      -5.461  -0.441 -31.966  1.00  0.00     0.033 A 
HETATM    7  N   UNL     1      -6.457   2.619 -34.392  1.00  0.00    -0.349 N 
HETATM    8  H   UNL     1      -6.682   2.603 -35.376  1.00  0.00     0.167 HD
HETATM    9  C   UNL     1      -6.428   3.720 -33.573  1.00  0.00     0.108 A 
HETATM   10  C   UNL     1      -6.073   3.308 -32.293  1.00  0.00     0.061 A 
ENDROOT
BRANCH  10  11
HETATM   11  C   UNL     1      -5.918   4.133 -31.095  1.00  0.00     0.254 C 
HETATM   12  N   UNL     1      -6.421   5.412 -31.181  1.00  0.00    -0.355 N 
HETATM   13  H   UNL     1      -6.852   5.731 -32.035  1.00  0.00     0.162 HD
HETATM   14  O   UNL     1      -5.375   3.716 -30.077  1.00  0.00    -0.268 OA
BRANCH  12  15
HETATM   15  C   UNL     1      -6.349   6.332 -30.059  1.00  0.00     0.142 C 
BRANCH  15  16
HETATM   16  C   UNL     1      -5.463   7.549 -30.351  1.00  0.00     0.142 C 
BRANCH  16  17
HETATM   17  N   UNL     1      -4.047   7.244 -30.246  1.00  0.00    -0.355 N 
HETATM   18  C   UNL     1      -3.082   8.016 -30.860  1.00  0.00     0.258 C 
HETATM   19  O   UNL     1      -3.388   9.003 -31.525  1.00  0.00    -0.267 OA
HETATM   20  H   UNL     1      -3.760   6.414 -29.746  1.00  0.00     0.162 HD
BRANCH  18  21
HETATM   21  C   UNL     1      -1.703   7.583 -30.679  1.00  0.00     0.072 A 
HETATM   22  S   UNL     1      -0.955   7.501 -29.138  1.00  0.00    -0.097 SA
HETATM   23  C   UNL     1       0.520   6.947 -29.804  1.00  0.00     0.050 A 
HETATM   24  C   UNL     1       0.453   6.823 -31.174  1.00  0.00     0.009 A 
HETATM   25  C   UNL     1      -0.828   7.188 -31.676  1.00  0.00     0.025 A 
ENDBRANCH  18  21
ENDBRANCH  16  17
ENDBRANCH  15  16
ENDBRANCH  12  15
ENDBRANCH  10  11
BRANCH   1  26
HETATM   26  C   UNL     1      -5.669  -2.074 -33.871  1.00  0.00    -0.007 A 
HETATM   27  C   UNL     1      -4.487  -2.838 -33.850  1.00  0.00     0.014 A 
HETATM   28  C   UNL     1      -4.449  -4.136 -34.372  1.00  0.00     0.001 A 
HETATM   29  C   UNL     1      -5.593  -4.698 -34.931  1.00  0.00     0.000 A 
HETATM   30  C   UNL     1      -6.772  -3.963 -34.975  1.00  0.00     0.001 A 
HETATM   31  C   UNL     1      -6.807  -2.665 -34.452  1.00  0.00     0.014 A 
ENDBRANCH   1  26
TORSDOF 6
ENDMDL
