MODEL 1
REMARK VINA RESULT:      -9.0      0.000      0.000
REMARK  8 active torsions:
REMARK  status: ('A' for Active; 'I' for Inactive)
REMARK    1  A    between atoms: C_2  and  O_3 
REMARK    2  A    between atoms: O_3  and  C_4 
REMARK    3  A    between atoms: C_5  and  N_6 
REMARK       I    between atoms: N_6  and  C_7 
REMARK    4  A    between atoms: C_7  and  C_8 
REMARK    5  A    between atoms: C_8  and  C_9 
REMARK    6  A    between atoms: C_9  and  S_10 
REMARK    7  A    between atoms: S_10  and  C_11 
REMARK    8  A    between atoms: N_12  and  C_13 
ROOT
HETATM    1  C   UNL     1      -4.727   5.426 -33.256  1.00  0.00     0.177 A 
HETATM    2  N   UNL     1      -4.459   5.183 -31.888  1.00  0.00    -0.276 N 
HETATM    3  C   UNL     1      -3.200   5.647 -31.357  1.00  0.00     0.124 A 
HETATM    4  N   UNL     1      -2.864   5.540 -30.086  1.00  0.00    -0.384 N 
HETATM    5  H   UNL     1      -1.983   5.897 -29.748  1.00  0.00     0.157 HD
HETATM    6  H   UNL     1      -3.501   5.115 -29.425  1.00  0.00     0.157 HD
HETATM    7  C   UNL     1      -2.320   6.288 -32.283  1.00  0.00     0.081 A 
HETATM    8  C   UNL     1      -2.750   6.473 -33.592  1.00  0.00     0.187 A 
HETATM    9  N   UNL     1      -1.841   7.070 -34.348  1.00  0.00    -0.153 NA
HETATM   10  N   UNL     1      -0.814   7.272 -33.501  1.00  0.00    -0.280 N 
HETATM   11  H   UNL     1       0.019   7.725 -33.864  1.00  0.00     0.189 HD
HETATM   12  C   UNL     1      -1.050   6.812 -32.220  1.00  0.00     0.042 A 
HETATM   13  C   UNL     1      -0.034   6.940 -31.153  1.00  0.00     0.071 C 
HETATM   14  N   UNL     1      -3.971   6.061 -34.105  1.00  0.00    -0.202 NA
ENDROOT
BRANCH   1  15
HETATM   15  S   UNL     1      -6.248   4.811 -33.955  1.00  0.00    -0.091 SA
BRANCH  15  16
HETATM   16  C   UNL     1      -5.865   3.051 -34.241  1.00  0.00     0.091 C 
BRANCH  16  17
HETATM   17  C   UNL     1      -6.977   2.074 -33.874  1.00  0.00     0.113 C 
BRANCH  17  18
HETATM   18  C   UNL     1      -6.809   0.732 -34.549  1.00  0.00     0.223 C 
HETATM   19  N   UNL     1      -6.463  -0.275 -33.666  1.00  0.00    -0.325 N 
HETATM   20  H   UNL     1      -6.791  -0.166 -32.715  1.00  0.00     0.169 HD
HETATM   21  O   UNL     1      -7.029   0.609 -35.752  1.00  0.00    -0.273 OA
BRANCH  19  22
HETATM   22  C   UNL     1      -6.065  -1.578 -34.040  1.00  0.00     0.068 A 
HETATM   23  C   UNL     1      -4.736  -2.033 -34.009  1.00  0.00     0.095 A 
HETATM   24  C   UNL     1      -4.441  -3.351 -34.381  1.00  0.00     0.039 A 
HETATM   25  C   UNL     1      -5.458  -4.213 -34.793  1.00  0.00     0.003 A 
HETATM   26  C   UNL     1      -6.779  -3.776 -34.800  1.00  0.00     0.002 A 
HETATM   27  C   UNL     1      -7.083  -2.469 -34.407  1.00  0.00     0.032 A 
BRANCH  23  28
HETATM   28  O   UNL     1      -3.771  -1.256 -33.418  1.00  0.00    -0.349 OA
BRANCH  28  29
HETATM   29  C   UNL     1      -3.584  -1.516 -32.024  1.00  0.00     0.171 C 
HETATM   30  C   UNL     1      -3.074  -0.259 -31.342  1.00  0.00     0.034 C 
ENDBRANCH  28  29
ENDBRANCH  23  28
ENDBRANCH  19  22
ENDBRANCH  17  18
ENDBRANCH  16  17
ENDBRANCH  15  16
ENDBRANCH   1  15
BRANCH   2  31
HETATM   31  C   UNL     1      -5.405   4.540 -31.035  1.00  0.00     0.044 A 
HETATM   32  C   UNL     1      -5.300   3.170 -30.749  1.00  0.00     0.054 A 
HETATM   33  C   UNL     1      -6.272   2.543 -29.970  1.00  0.00     0.036 A 
HETATM   34 CL   UNL     1      -6.135   0.863 -29.627  1.00  0.00    -0.084 Cl
HETATM   35  C   UNL     1      -7.361   3.261 -29.481  1.00  0.00     0.024 A 
HETATM   36  C   UNL     1      -7.478   4.621 -29.765  1.00  0.00     0.004 A 
HETATM   37  C   UNL     1      -6.505   5.258 -30.539  1.00  0.00     0.030 A 
ENDBRANCH   2  31
TORSDOF 8
ENDMDL
MODEL 2
REMARK VINA RESULT:      -8.7      3.642      8.292
REMARK  8 active torsions:
REMARK  status: ('A' for Active; 'I' for Inactive)
REMARK    1  A    between atoms: C_2  and  O_3 
REMARK    2  A    between atoms: O_3  and  C_4 
REMARK    3  A    between atoms: C_5  and  N_6 
REMARK       I    between atoms: N_6  and  C_7 
REMARK    4  A    between atoms: C_7  and  C_8 
REMARK    5  A    between atoms: C_8  and  C_9 
REMARK    6  A    between atoms: C_9  and  S_10 
REMARK    7  A    between atoms: S_10  and  C_11 
REMARK    8  A    between atoms: N_12  and  C_13 
ROOT
HETATM    1  C   UNL     1      -8.842   2.724 -33.853  1.00  0.00     0.177 A 
HETATM    2  N   UNL     1      -8.928   1.464 -33.214  1.00  0.00    -0.276 N 
HETATM    3  C   UNL     1     -10.204   0.789 -33.229  1.00  0.00     0.124 A 
HETATM    4  N   UNL     1     -10.393  -0.416 -32.727  1.00  0.00    -0.384 N 
HETATM    5  H   UNL     1     -11.295  -0.865 -32.777  1.00  0.00     0.157 HD
HETATM    6  H   UNL     1      -9.624  -0.917 -32.303  1.00  0.00     0.157 HD
HETATM    7  C   UNL     1     -11.278   1.480 -33.869  1.00  0.00     0.081 A 
HETATM    8  C   UNL     1     -11.017   2.703 -34.475  1.00  0.00     0.187 A 
HETATM    9  N   UNL     1     -12.096   3.241 -35.025  1.00  0.00    -0.153 NA
HETATM   10  N   UNL     1     -13.061   2.339 -34.766  1.00  0.00    -0.280 N 
HETATM   11  H   UNL     1     -14.000   2.540 -35.095  1.00  0.00     0.189 HD
HETATM   12  C   UNL     1     -12.619   1.238 -34.059  1.00  0.00     0.042 A 
HETATM   13  C   UNL     1     -13.539   0.144 -33.675  1.00  0.00     0.071 C 
HETATM   14  N   UNL     1      -9.788   3.346 -34.496  1.00  0.00    -0.202 NA
ENDROOT
BRANCH   1  15
HETATM   15  S   UNL     1      -7.296   3.610 -33.798  1.00  0.00    -0.091 SA
BRANCH  15  16
HETATM   16  C   UNL     1      -7.497   4.658 -32.319  1.00  0.00     0.091 C 
BRANCH  16  17
HETATM   17  C   UNL     1      -6.361   4.579 -31.304  1.00  0.00     0.113 C 
BRANCH  17  18
HETATM   18  C   UNL     1      -5.167   5.413 -31.712  1.00  0.00     0.223 C 
HETATM   19  N   UNL     1      -3.961   4.833 -31.360  1.00  0.00    -0.325 N 
HETATM   20  H   UNL     1      -3.948   3.823 -31.319  1.00  0.00     0.169 HD
HETATM   21  O   UNL     1      -5.324   6.459 -32.338  1.00  0.00    -0.273 OA
BRANCH  19  22
HETATM   22  C   UNL     1      -2.703   5.469 -31.448  1.00  0.00     0.068 A 
HETATM   23  C   UNL     1      -1.765   5.216 -32.463  1.00  0.00     0.095 A 
HETATM   24  C   UNL     1      -0.549   5.913 -32.478  1.00  0.00     0.039 A 
HETATM   25  C   UNL     1      -0.259   6.849 -31.485  1.00  0.00     0.003 A 
HETATM   26  C   UNL     1      -1.196   7.123 -30.493  1.00  0.00     0.002 A 
HETATM   27  C   UNL     1      -2.420   6.449 -30.485  1.00  0.00     0.032 A 
BRANCH  23  28
HETATM   28  O   UNL     1      -2.128   4.450 -33.542  1.00  0.00    -0.349 OA
BRANCH  28  29
HETATM   29  C   UNL     1      -2.239   5.182 -34.767  1.00  0.00     0.171 C 
HETATM   30  C   UNL     1      -3.695   5.221 -35.198  1.00  0.00     0.034 C 
ENDBRANCH  28  29
ENDBRANCH  23  28
ENDBRANCH  19  22
ENDBRANCH  17  18
ENDBRANCH  16  17
ENDBRANCH  15  16
ENDBRANCH   1  15
BRANCH   2  31
HETATM   31  C   UNL     1      -7.796   0.846 -32.604  1.00  0.00     0.044 A 
HETATM   32  C   UNL     1      -6.951   0.004 -33.344  1.00  0.00     0.054 A 
HETATM   33  C   UNL     1      -5.890  -0.646 -32.715  1.00  0.00     0.036 A 
HETATM   34 CL   UNL     1      -4.861  -1.678 -33.631  1.00  0.00    -0.084 Cl
HETATM   35  C   UNL     1      -5.665  -0.482 -31.350  1.00  0.00     0.024 A 
HETATM   36  C   UNL     1      -6.503   0.348 -30.605  1.00  0.00     0.004 A 
HETATM   37  C   UNL     1      -7.564   1.009 -31.229  1.00  0.00     0.030 A 
ENDBRANCH   2  31
TORSDOF 8
ENDMDL
MODEL 3
REMARK VINA RESULT:      -8.7      3.084      7.422
REMARK  8 active torsions:
REMARK  status: ('A' for Active; 'I' for Inactive)
REMARK    1  A    between atoms: C_2  and  O_3 
REMARK    2  A    between atoms: O_3  and  C_4 
REMARK    3  A    between atoms: C_5  and  N_6 
REMARK       I    between atoms: N_6  and  C_7 
REMARK    4  A    between atoms: C_7  and  C_8 
REMARK    5  A    between atoms: C_8  and  C_9 
REMARK    6  A    between atoms: C_9  and  S_10 
REMARK    7  A    between atoms: S_10  and  C_11 
REMARK    8  A    between atoms: N_12  and  C_13 
ROOT
HETATM    1  C   UNL     1      -6.518   0.752 -31.713  1.00  0.00     0.177 A 
HETATM    2  N   UNL     1      -7.215   0.265 -32.844  1.00  0.00    -0.276 N 
HETATM    3  C   UNL     1      -6.616  -0.816 -33.589  1.00  0.00     0.124 A 
HETATM    4  N   UNL     1      -7.198  -1.398 -34.619  1.00  0.00    -0.384 N 
HETATM    5  H   UNL     1      -6.757  -2.167 -35.101  1.00  0.00     0.157 HD
HETATM    6  H   UNL     1      -8.113  -1.093 -34.926  1.00  0.00     0.157 HD
HETATM    7  C   UNL     1      -5.345  -1.276 -33.125  1.00  0.00     0.081 A 
HETATM    8  C   UNL     1      -4.809  -0.706 -31.976  1.00  0.00     0.187 A 
HETATM    9  N   UNL     1      -3.627  -1.215 -31.658  1.00  0.00    -0.153 NA
HETATM   10  N   UNL     1      -3.412  -2.129 -32.622  1.00  0.00    -0.280 N 
HETATM   11  H   UNL     1      -2.545  -2.658 -32.590  1.00  0.00     0.189 HD
HETATM   12  C   UNL     1      -4.430  -2.211 -33.551  1.00  0.00     0.042 A 
HETATM   13  C   UNL     1      -4.367  -3.154 -34.689  1.00  0.00     0.071 C 
HETATM   14  N   UNL     1      -5.391   0.310 -31.233  1.00  0.00    -0.202 NA
ENDROOT
BRANCH   1  15
HETATM   15  S   UNL     1      -7.204   2.128 -30.809  1.00  0.00    -0.091 SA
BRANCH  15  16
HETATM   16  C   UNL     1      -5.734   2.827 -29.985  1.00  0.00     0.091 C 
BRANCH  16  17
HETATM   17  C   UNL     1      -5.761   4.337 -29.774  1.00  0.00     0.113 C 
BRANCH  17  18
HETATM   18  C   UNL     1      -5.007   5.081 -30.853  1.00  0.00     0.223 C 
HETATM   19  N   UNL     1      -4.284   4.241 -31.681  1.00  0.00    -0.325 N 
HETATM   20  H   UNL     1      -4.655   3.308 -31.802  1.00  0.00     0.169 HD
HETATM   21  O   UNL     1      -5.116   6.300 -30.959  1.00  0.00    -0.273 OA
BRANCH  19  22
HETATM   22  C   UNL     1      -3.348   4.669 -32.649  1.00  0.00     0.068 A 
HETATM   23  C   UNL     1      -1.982   4.864 -32.388  1.00  0.00     0.095 A 
HETATM   24  C   UNL     1      -1.126   5.271 -33.420  1.00  0.00     0.039 A 
HETATM   25  C   UNL     1      -1.625   5.495 -34.704  1.00  0.00     0.003 A 
HETATM   26  C   UNL     1      -2.972   5.276 -34.974  1.00  0.00     0.002 A 
HETATM   27  C   UNL     1      -3.827   4.847 -33.955  1.00  0.00     0.032 A 
BRANCH  23  28
HETATM   28  O   UNL     1      -1.459   4.456 -31.186  1.00  0.00    -0.349 OA
BRANCH  28  29
HETATM   29  C   UNL     1      -0.731   5.472 -30.490  1.00  0.00     0.171 C 
HETATM   30  C   UNL     1       0.625   4.926 -30.079  1.00  0.00     0.034 C 
ENDBRANCH  28  29
ENDBRANCH  23  28
ENDBRANCH  19  22
ENDBRANCH  17  18
ENDBRANCH  16  17
ENDBRANCH  15  16
ENDBRANCH   1  15
BRANCH   2  31
HETATM   31  C   UNL     1      -8.488   0.784 -33.229  1.00  0.00     0.044 A 
HETATM   32  C   UNL     1      -8.595   2.031 -33.864  1.00  0.00     0.054 A 
HETATM   33  C   UNL     1      -9.850   2.552 -34.170  1.00  0.00     0.036 A 
HETATM   34 CL   UNL     1      -9.970   4.083 -34.947  1.00  0.00    -0.084 Cl
HETATM   35  C   UNL     1     -11.010   1.855 -33.838  1.00  0.00     0.024 A 
HETATM   36  C   UNL     1     -10.914   0.618 -33.200  1.00  0.00     0.004 A 
HETATM   37  C   UNL     1      -9.660   0.084 -32.897  1.00  0.00     0.030 A 
ENDBRANCH   2  31
TORSDOF 8
ENDMDL
MODEL 4
REMARK VINA RESULT:      -8.6      3.782      8.083
REMARK  8 active torsions:
REMARK  status: ('A' for Active; 'I' for Inactive)
REMARK    1  A    between atoms: C_2  and  O_3 
REMARK    2  A    between atoms: O_3  and  C_4 
REMARK    3  A    between atoms: C_5  and  N_6 
REMARK       I    between atoms: N_6  and  C_7 
REMARK    4  A    between atoms: C_7  and  C_8 
REMARK    5  A    between atoms: C_8  and  C_9 
REMARK    6  A    between atoms: C_9  and  S_10 
REMARK    7  A    between atoms: S_10  and  C_11 
REMARK    8  A    between atoms: N_12  and  C_13 
ROOT
HETATM    1  C   UNL     1      -9.171   2.743 -33.796  1.00  0.00     0.177 A 
HETATM    2  N   UNL     1      -9.234   1.447 -33.233  1.00  0.00    -0.276 N 
HETATM    3  C   UNL     1     -10.507   0.768 -33.249  1.00  0.00     0.124 A 
HETATM    4  N   UNL     1     -10.678  -0.466 -32.815  1.00  0.00    -0.384 N 
HETATM    5  H   UNL     1     -11.580  -0.915 -32.864  1.00  0.00     0.157 HD
HETATM    6  H   UNL     1      -9.894  -0.989 -32.448  1.00  0.00     0.157 HD
HETATM    7  C   UNL     1     -11.604   1.493 -33.810  1.00  0.00     0.081 A 
HETATM    8  C   UNL     1     -11.364   2.752 -34.347  1.00  0.00     0.187 A 
HETATM    9  N   UNL     1     -12.461   3.319 -34.827  1.00  0.00    -0.153 NA
HETATM   10  N   UNL     1     -13.416   2.399 -34.594  1.00  0.00    -0.280 N 
HETATM   11  H   UNL     1     -14.366   2.616 -34.880  1.00  0.00     0.189 HD
HETATM   12  C   UNL     1     -12.949   1.258 -33.970  1.00  0.00     0.042 A 
HETATM   13  C   UNL     1     -13.854   0.139 -33.626  1.00  0.00     0.071 C 
HETATM   14  N   UNL     1     -10.138   3.400 -34.368  1.00  0.00    -0.202 NA
ENDROOT
BRANCH   1  15
HETATM   15  S   UNL     1      -7.625   3.631 -33.736  1.00  0.00    -0.091 SA
BRANCH  15  16
HETATM   16  C   UNL     1      -7.770   4.567 -32.177  1.00  0.00     0.091 C 
BRANCH  16  17
HETATM   17  C   UNL     1      -6.760   4.194 -31.097  1.00  0.00     0.113 C 
BRANCH  17  18
HETATM   18  C   UNL     1      -5.365   4.013 -31.653  1.00  0.00     0.223 C 
HETATM   19  N   UNL     1      -4.819   5.191 -32.129  1.00  0.00    -0.325 N 
HETATM   20  H   UNL     1      -5.135   6.042 -31.682  1.00  0.00     0.169 HD
HETATM   21  O   UNL     1      -4.813   2.916 -31.602  1.00  0.00    -0.273 OA
BRANCH  19  22
HETATM   22  C   UNL     1      -3.616   5.286 -32.865  1.00  0.00     0.068 A 
HETATM   23  C   UNL     1      -2.349   5.448 -32.281  1.00  0.00     0.095 A 
HETATM   24  C   UNL     1      -1.210   5.511 -33.094  1.00  0.00     0.039 A 
HETATM   25  C   UNL     1      -1.326   5.424 -34.482  1.00  0.00     0.003 A 
HETATM   26  C   UNL     1      -2.577   5.236 -35.063  1.00  0.00     0.002 A 
HETATM   27  C   UNL     1      -3.715   5.149 -34.257  1.00  0.00     0.032 A 
BRANCH  23  28
HETATM   28  O   UNL     1      -2.214   5.333 -30.920  1.00  0.00    -0.349 OA
BRANCH  28  29
HETATM   29  C   UNL     1      -1.877   6.557 -30.261  1.00  0.00     0.171 C 
HETATM   30  C   UNL     1      -0.552   6.391 -29.539  1.00  0.00     0.034 C 
ENDBRANCH  28  29
ENDBRANCH  23  28
ENDBRANCH  19  22
ENDBRANCH  17  18
ENDBRANCH  16  17
ENDBRANCH  15  16
ENDBRANCH   1  15
BRANCH   2  31
HETATM   31  C   UNL     1      -8.080   0.797 -32.699  1.00  0.00     0.044 A 
HETATM   32  C   UNL     1      -7.239   0.033 -33.523  1.00  0.00     0.054 A 
HETATM   33  C   UNL     1      -6.157  -0.652 -32.972  1.00  0.00     0.036 A 
HETATM   34 CL   UNL     1      -5.133  -1.587 -33.991  1.00  0.00    -0.084 Cl
HETATM   35  C   UNL     1      -5.907  -0.599 -31.603  1.00  0.00     0.024 A 
HETATM   36  C   UNL     1      -6.741   0.151 -30.775  1.00  0.00     0.004 A 
HETATM   37  C   UNL     1      -7.823   0.846 -31.319  1.00  0.00     0.030 A 
ENDBRANCH   2  31
TORSDOF 8
ENDMDL
MODEL 5
REMARK VINA RESULT:      -8.4      3.082      7.768
REMARK  8 active torsions:
REMARK  status: ('A' for Active; 'I' for Inactive)
REMARK    1  A    between atoms: C_2  and  O_3 
REMARK    2  A    between atoms: O_3  and  C_4 
REMARK    3  A    between atoms: C_5  and  N_6 
REMARK       I    between atoms: N_6  and  C_7 
REMARK    4  A    between atoms: C_7  and  C_8 
REMARK    5  A    between atoms: C_8  and  C_9 
REMARK    6  A    between atoms: C_9  and  S_10 
REMARK    7  A    between atoms: S_10  and  C_11 
REMARK    8  A    between atoms: N_12  and  C_13 
ROOT
HETATM    1  C   UNL     1      -7.226   1.370 -31.581  1.00  0.00     0.177 A 
HETATM    2  N   UNL     1      -7.769   0.827 -32.770  1.00  0.00    -0.276 N 
HETATM    3  C   UNL     1      -7.030  -0.225 -33.426  1.00  0.00     0.124 A 
HETATM    4  N   UNL     1      -7.464  -0.855 -34.500  1.00  0.00    -0.384 N 
HETATM    5  H   UNL     1      -6.929  -1.602 -34.918  1.00  0.00     0.157 HD
HETATM    6  H   UNL     1      -8.357  -0.610 -34.908  1.00  0.00     0.157 HD
HETATM    7  C   UNL     1      -5.791  -0.600 -32.822  1.00  0.00     0.081 A 
HETATM    8  C   UNL     1      -5.415   0.016 -31.634  1.00  0.00     0.187 A 
HETATM    9  N   UNL     1      -4.246  -0.415 -31.183  1.00  0.00    -0.153 NA
HETATM   10  N   UNL     1      -3.875  -1.327 -32.101  1.00  0.00    -0.280 N 
HETATM   11  H   UNL     1      -2.987  -1.801 -31.967  1.00  0.00     0.189 HD
HETATM   12  C   UNL     1      -4.782  -1.483 -33.131  1.00  0.00     0.042 A 
HETATM   13  C   UNL     1      -4.541  -2.435 -34.237  1.00  0.00     0.071 C 
HETATM   14  N   UNL     1      -6.133   1.004 -30.977  1.00  0.00    -0.202 NA
ENDROOT
BRANCH   1  15
HETATM   15  S   UNL     1      -8.085   2.713 -30.781  1.00  0.00    -0.091 SA
BRANCH  15  16
HETATM   16  C   UNL     1      -7.085   4.161 -31.263  1.00  0.00     0.091 C 
BRANCH  16  17
HETATM   17  C   UNL     1      -5.917   4.483 -30.337  1.00  0.00     0.113 C 
BRANCH  17  18
HETATM   18  C   UNL     1      -4.840   5.288 -31.029  1.00  0.00     0.223 C 
HETATM   19  N   UNL     1      -3.564   4.826 -30.756  1.00  0.00    -0.325 N 
HETATM   20  H   UNL     1      -3.481   3.838 -30.557  1.00  0.00     0.169 HD
HETATM   21  O   UNL     1      -5.141   6.208 -31.785  1.00  0.00    -0.273 OA
BRANCH  19  22
HETATM   22  C   UNL     1      -2.370   5.491 -31.113  1.00  0.00     0.068 A 
HETATM   23  C   UNL     1      -1.647   5.229 -32.288  1.00  0.00     0.095 A 
HETATM   24  C   UNL     1      -0.482   5.956 -32.567  1.00  0.00     0.039 A 
HETATM   25  C   UNL     1      -0.029   6.932 -31.679  1.00  0.00     0.003 A 
HETATM   26  C   UNL     1      -0.757   7.215 -30.527  1.00  0.00     0.002 A 
HETATM   27  C   UNL     1      -1.933   6.510 -30.254  1.00  0.00     0.032 A 
BRANCH  23  28
HETATM   28  O   UNL     1      -2.194   4.417 -33.251  1.00  0.00    -0.349 OA
BRANCH  28  29
HETATM   29  C   UNL     1      -2.192   4.986 -34.564  1.00  0.00     0.171 C 
HETATM   30  C   UNL     1      -3.620   5.286 -34.983  1.00  0.00     0.034 C 
ENDBRANCH  28  29
ENDBRANCH  23  28
ENDBRANCH  19  22
ENDBRANCH  17  18
ENDBRANCH  16  17
ENDBRANCH  15  16
ENDBRANCH   1  15
BRANCH   2  31
HETATM   31  C   UNL     1      -9.022   1.262 -33.297  1.00  0.00     0.044 A 
HETATM   32  C   UNL     1     -10.182   0.492 -33.123  1.00  0.00     0.054 A 
HETATM   33  C   UNL     1     -11.382   0.897 -33.704  1.00  0.00     0.036 A 
HETATM   34 CL   UNL     1     -12.798  -0.056 -33.485  1.00  0.00    -0.084 Cl
HETATM   35  C   UNL     1     -11.443   2.056 -34.474  1.00  0.00     0.024 A 
HETATM   36  C   UNL     1     -10.294   2.825 -34.659  1.00  0.00     0.004 A 
HETATM   37  C   UNL     1      -9.089   2.430 -34.074  1.00  0.00     0.030 A 
ENDBRANCH   2  31
TORSDOF 8
ENDMDL
MODEL 6
REMARK VINA RESULT:      -8.4      3.251      7.934
REMARK  8 active torsions:
REMARK  status: ('A' for Active; 'I' for Inactive)
REMARK    1  A    between atoms: C_2  and  O_3 
REMARK    2  A    between atoms: O_3  and  C_4 
REMARK    3  A    between atoms: C_5  and  N_6 
REMARK       I    between atoms: N_6  and  C_7 
REMARK    4  A    between atoms: C_7  and  C_8 
REMARK    5  A    between atoms: C_8  and  C_9 
REMARK    6  A    between atoms: C_9  and  S_10 
REMARK    7  A    between atoms: S_10  and  C_11 
REMARK    8  A    between atoms: N_12  and  C_13 
ROOT
HETATM    1  C   UNL     1      -7.576   0.754 -31.626  1.00  0.00     0.177 A 
HETATM    2  N   UNL     1      -7.589   0.380 -32.991  1.00  0.00    -0.276 N 
HETATM    3  C   UNL     1      -8.540   1.034 -33.858  1.00  0.00     0.124 A 
HETATM    4  N   UNL     1      -8.604   0.821 -35.158  1.00  0.00    -0.384 N 
HETATM    5  H   UNL     1      -9.268   1.315 -35.735  1.00  0.00     0.157 HD
HETATM    6  H   UNL     1      -7.966   0.171 -35.599  1.00  0.00     0.157 HD
HETATM    7  C   UNL     1      -9.410   1.985 -33.240  1.00  0.00     0.081 A 
HETATM    8  C   UNL     1      -9.246   2.257 -31.887  1.00  0.00     0.187 A 
HETATM    9  N   UNL     1     -10.117   3.149 -31.437  1.00  0.00    -0.153 NA
HETATM   10  N   UNL     1     -10.845   3.452 -32.528  1.00  0.00    -0.280 N 
HETATM   11  H   UNL     1     -11.595   4.129 -32.425  1.00  0.00     0.189 HD
HETATM   12  C   UNL     1     -10.458   2.768 -33.664  1.00  0.00     0.042 A 
HETATM   13  C   UNL     1     -11.147   2.965 -34.958  1.00  0.00     0.071 C 
HETATM   14  N   UNL     1      -8.314   1.660 -31.052  1.00  0.00    -0.202 NA
ENDROOT
BRANCH   1  15
HETATM   15  S   UNL     1      -6.455  -0.080 -30.519  1.00  0.00    -0.091 SA
BRANCH  15  16
HETATM   16  C   UNL     1      -5.239   1.225 -30.136  1.00  0.00     0.091 C 
BRANCH  16  17
HETATM   17  C   UNL     1      -5.360   2.493 -30.973  1.00  0.00     0.113 C 
BRANCH  17  18
HETATM   18  C   UNL     1      -4.022   2.965 -31.498  1.00  0.00     0.223 C 
HETATM   19  N   UNL     1      -4.061   4.262 -31.980  1.00  0.00    -0.325 N 
HETATM   20  H   UNL     1      -4.740   4.876 -31.551  1.00  0.00     0.169 HD
HETATM   21  O   UNL     1      -3.033   2.241 -31.420  1.00  0.00    -0.273 OA
BRANCH  19  22
HETATM   22  C   UNL     1      -3.015   4.891 -32.692  1.00  0.00     0.068 A 
HETATM   23  C   UNL     1      -2.026   5.689 -32.093  1.00  0.00     0.095 A 
HETATM   24  C   UNL     1      -1.016   6.255 -32.881  1.00  0.00     0.039 A 
HETATM   25  C   UNL     1      -0.991   6.041 -34.260  1.00  0.00     0.003 A 
HETATM   26  C   UNL     1      -1.953   5.229 -34.854  1.00  0.00     0.002 A 
HETATM   27  C   UNL     1      -2.950   4.641 -34.071  1.00  0.00     0.032 A 
BRANCH  23  28
HETATM   28  O   UNL     1      -1.934   5.736 -30.725  1.00  0.00    -0.349 OA
BRANCH  28  29
HETATM   29  C   UNL     1      -1.263   6.895 -30.224  1.00  0.00     0.171 C 
HETATM   30  C   UNL     1      -0.158   6.466 -29.275  1.00  0.00     0.034 C 
ENDBRANCH  28  29
ENDBRANCH  23  28
ENDBRANCH  19  22
ENDBRANCH  17  18
ENDBRANCH  16  17
ENDBRANCH  15  16
ENDBRANCH   1  15
BRANCH   2  31
HETATM   31  C   UNL     1      -6.674  -0.578 -33.522  1.00  0.00     0.044 A 
HETATM   32  C   UNL     1      -7.125  -1.825 -33.981  1.00  0.00     0.054 A 
HETATM   33  C   UNL     1      -6.210  -2.775 -34.432  1.00  0.00     0.036 A 
HETATM   34 CL   UNL     1      -6.773  -4.302 -34.992  1.00  0.00    -0.084 Cl
HETATM   35  C   UNL     1      -4.843  -2.507 -34.417  1.00  0.00     0.024 A 
HETATM   36  C   UNL     1      -4.384  -1.273 -33.955  1.00  0.00     0.004 A 
HETATM   37  C   UNL     1      -5.295  -0.313 -33.509  1.00  0.00     0.030 A 
ENDBRANCH   2  31
TORSDOF 8
ENDMDL
MODEL 7
REMARK VINA RESULT:      -8.3      3.416      7.654
REMARK  8 active torsions:
REMARK  status: ('A' for Active; 'I' for Inactive)
REMARK    1  A    between atoms: C_2  and  O_3 
REMARK    2  A    between atoms: O_3  and  C_4 
REMARK    3  A    between atoms: C_5  and  N_6 
REMARK       I    between atoms: N_6  and  C_7 
REMARK    4  A    between atoms: C_7  and  C_8 
REMARK    5  A    between atoms: C_8  and  C_9 
REMARK    6  A    between atoms: C_9  and  S_10 
REMARK    7  A    between atoms: S_10  and  C_11 
REMARK    8  A    between atoms: N_12  and  C_13 
ROOT
HETATM    1  C   UNL     1      -7.773   1.657 -31.446  1.00  0.00     0.177 A 
HETATM    2  N   UNL     1      -8.189   1.065 -32.662  1.00  0.00    -0.276 N 
HETATM    3  C   UNL     1      -7.331   0.064 -33.249  1.00  0.00     0.124 A 
HETATM    4  N   UNL     1      -7.640  -0.605 -34.343  1.00  0.00    -0.384 N 
HETATM    5  H   UNL     1      -7.025  -1.315 -34.711  1.00  0.00     0.157 HD
HETATM    6  H   UNL     1      -8.517  -0.430 -34.817  1.00  0.00     0.157 HD
HETATM    7  C   UNL     1      -6.114  -0.214 -32.554  1.00  0.00     0.081 A 
HETATM    8  C   UNL     1      -5.870   0.438 -31.352  1.00  0.00     0.187 A 
HETATM    9  N   UNL     1      -4.708   0.098 -30.813  1.00  0.00    -0.153 NA
HETATM   10  N   UNL     1      -4.207  -0.792 -31.690  1.00  0.00    -0.280 N 
HETATM   11  H   UNL     1      -3.299  -1.200 -31.487  1.00  0.00     0.189 HD
HETATM   12  C   UNL     1      -5.025  -1.024 -32.778  1.00  0.00     0.042 A 
HETATM   13  C   UNL     1      -4.638  -1.965 -33.851  1.00  0.00     0.071 C 
HETATM   14  N   UNL     1      -6.702   1.377 -30.761  1.00  0.00    -0.202 NA
ENDROOT
BRANCH   1  15
HETATM   15  S   UNL     1      -8.782   2.941 -30.727  1.00  0.00    -0.091 SA
BRANCH  15  16
HETATM   16  C   UNL     1      -7.650   4.372 -30.722  1.00  0.00     0.091 C 
BRANCH  16  17
HETATM   17  C   UNL     1      -7.149   4.811 -32.094  1.00  0.00     0.113 C 
BRANCH  17  18
HETATM   18  C   UNL     1      -5.639   4.861 -32.165  1.00  0.00     0.223 C 
HETATM   19  N   UNL     1      -5.175   5.795 -33.075  1.00  0.00    -0.325 N 
HETATM   20  H   UNL     1      -5.768   6.599 -33.229  1.00  0.00     0.169 HD
HETATM   21  O   UNL     1      -4.958   4.158 -31.423  1.00  0.00    -0.273 OA
BRANCH  19  22
HETATM   22  C   UNL     1      -3.828   5.927 -33.481  1.00  0.00     0.068 A 
HETATM   23  C   UNL     1      -2.923   6.838 -32.912  1.00  0.00     0.095 A 
HETATM   24  C   UNL     1      -1.599   6.882 -33.369  1.00  0.00     0.039 A 
HETATM   25  C   UNL     1      -1.176   6.034 -34.393  1.00  0.00     0.003 A 
HETATM   26  C   UNL     1      -2.062   5.111 -34.941  1.00  0.00     0.002 A 
HETATM   27  C   UNL     1      -3.378   5.046 -34.474  1.00  0.00     0.032 A 
BRANCH  23  28
HETATM   28  O   UNL     1      -3.279   7.526 -31.779  1.00  0.00    -0.349 OA
BRANCH  28  29
HETATM   29  C   UNL     1      -2.361   8.559 -31.409  1.00  0.00     0.171 C 
HETATM   30  C   UNL     1      -1.908   8.340 -29.977  1.00  0.00     0.034 C 
ENDBRANCH  28  29
ENDBRANCH  23  28
ENDBRANCH  19  22
ENDBRANCH  17  18
ENDBRANCH  16  17
ENDBRANCH  15  16
ENDBRANCH   1  15
BRANCH   2  31
HETATM   31  C   UNL     1      -9.429   1.402 -33.283  1.00  0.00     0.044 A 
HETATM   32  C   UNL     1     -10.558   0.584 -33.126  1.00  0.00     0.054 A 
HETATM   33  C   UNL     1     -11.741   0.891 -33.796  1.00  0.00     0.036 A 
HETATM   34 CL   UNL     1     -13.119  -0.120 -33.598  1.00  0.00    -0.084 Cl
HETATM   35  C   UNL     1     -11.814   2.000 -34.636  1.00  0.00     0.024 A 
HETATM   36  C   UNL     1     -10.695   2.816 -34.804  1.00  0.00     0.004 A 
HETATM   37  C   UNL     1      -9.508   2.519 -34.131  1.00  0.00     0.030 A 
ENDBRANCH   2  31
TORSDOF 8
ENDMDL
MODEL 8
REMARK VINA RESULT:      -8.0      4.375      6.608
REMARK  8 active torsions:
REMARK  status: ('A' for Active; 'I' for Inactive)
REMARK    1  A    between atoms: C_2  and  O_3 
REMARK    2  A    between atoms: O_3  and  C_4 
REMARK    3  A    between atoms: C_5  and  N_6 
REMARK       I    between atoms: N_6  and  C_7 
REMARK    4  A    between atoms: C_7  and  C_8 
REMARK    5  A    between atoms: C_8  and  C_9 
REMARK    6  A    between atoms: C_9  and  S_10 
REMARK    7  A    between atoms: S_10  and  C_11 
REMARK    8  A    between atoms: N_12  and  C_13 
ROOT
HETATM    1  C   UNL     1      -9.691   3.573 -33.432  1.00  0.00     0.177 A 
HETATM    2  N   UNL     1     -10.361   4.004 -32.263  1.00  0.00    -0.276 N 
HETATM    3  C   UNL     1     -11.722   3.566 -32.068  1.00  0.00     0.124 A 
HETATM    4  N   UNL     1     -12.427   3.846 -30.990  1.00  0.00    -0.384 N 
HETATM    5  H   UNL     1     -13.370   3.503 -30.879  1.00  0.00     0.157 HD
HETATM    6  H   UNL     1     -12.020   4.393 -30.242  1.00  0.00     0.157 HD
HETATM    7  C   UNL     1     -12.281   2.755 -33.104  1.00  0.00     0.081 A 
HETATM    8  C   UNL     1     -11.474   2.398 -34.178  1.00  0.00     0.187 A 
HETATM    9  N   UNL     1     -12.112   1.654 -35.069  1.00  0.00    -0.153 NA
HETATM   10  N   UNL     1     -13.347   1.532 -34.548  1.00  0.00    -0.280 N 
HETATM   11  H   UNL     1     -14.032   0.993 -35.069  1.00  0.00     0.189 HD
HETATM   12  C   UNL     1     -13.510   2.188 -33.343  1.00  0.00     0.042 A 
HETATM   13  C   UNL     1     -14.802   2.174 -32.623  1.00  0.00     0.071 C 
HETATM   14  N   UNL     1     -10.155   2.785 -34.359  1.00  0.00    -0.202 NA
ENDROOT
BRANCH   1  15
HETATM   15  S   UNL     1      -8.029   4.147 -33.730  1.00  0.00    -0.091 SA
BRANCH  15  16
HETATM   16  C   UNL     1      -7.060   2.604 -33.645  1.00  0.00     0.091 C 
BRANCH  16  17
HETATM   17  C   UNL     1      -6.969   1.967 -32.263  1.00  0.00     0.113 C 
BRANCH  17  18
HETATM   18  C   UNL     1      -6.568   0.511 -32.326  1.00  0.00     0.223 C 
HETATM   19  N   UNL     1      -6.089   0.138 -33.569  1.00  0.00    -0.325 N 
HETATM   20  H   UNL     1      -5.636   0.865 -34.108  1.00  0.00     0.169 HD
HETATM   21  O   UNL     1      -6.635  -0.197 -31.323  1.00  0.00    -0.273 OA
BRANCH  19  22
HETATM   22  C   UNL     1      -5.818  -1.190 -33.967  1.00  0.00     0.068 A 
HETATM   23  C   UNL     1      -4.541  -1.775 -33.936  1.00  0.00     0.095 A 
HETATM   24  C   UNL     1      -4.375  -3.109 -34.331  1.00  0.00     0.039 A 
HETATM   25  C   UNL     1      -5.469  -3.858 -34.767  1.00  0.00     0.003 A 
HETATM   26  C   UNL     1      -6.740  -3.291 -34.773  1.00  0.00     0.002 A 
HETATM   27  C   UNL     1      -6.917  -1.969 -34.358  1.00  0.00     0.032 A 
BRANCH  23  28
HETATM   28  O   UNL     1      -3.509  -1.109 -33.324  1.00  0.00    -0.349 OA
BRANCH  28  29
HETATM   29  C   UNL     1      -3.337  -1.440 -31.942  1.00  0.00     0.171 C 
HETATM   30  C   UNL     1      -3.107  -0.168 -31.146  1.00  0.00     0.034 C 
ENDBRANCH  28  29
ENDBRANCH  23  28
ENDBRANCH  19  22
ENDBRANCH  17  18
ENDBRANCH  16  17
ENDBRANCH  15  16
ENDBRANCH   1  15
BRANCH   2  31
HETATM   31  C   UNL     1      -9.718   4.811 -31.277  1.00  0.00     0.044 A 
HETATM   32  C   UNL     1      -9.802   6.211 -31.325  1.00  0.00     0.054 A 
HETATM   33  C   UNL     1      -9.110   6.984 -30.395  1.00  0.00     0.036 A 
HETATM   34 CL   UNL     1      -9.218   8.700 -30.465  1.00  0.00    -0.084 Cl
HETATM   35  C   UNL     1      -8.318   6.382 -29.419  1.00  0.00     0.024 A 
HETATM   36  C   UNL     1      -8.223   4.991 -29.366  1.00  0.00     0.004 A 
HETATM   37  C   UNL     1      -8.919   4.209 -30.291  1.00  0.00     0.030 A 
ENDBRANCH   2  31
TORSDOF 8
ENDMDL
MODEL 9
REMARK VINA RESULT:      -7.9      2.076      3.262
REMARK  8 active torsions:
REMARK  status: ('A' for Active; 'I' for Inactive)
REMARK    1  A    between atoms: C_2  and  O_3 
REMARK    2  A    between atoms: O_3  and  C_4 
REMARK    3  A    between atoms: C_5  and  N_6 
REMARK       I    between atoms: N_6  and  C_7 
REMARK    4  A    between atoms: C_7  and  C_8 
REMARK    5  A    between atoms: C_8  and  C_9 
REMARK    6  A    between atoms: C_9  and  S_10 
REMARK    7  A    between atoms: S_10  and  C_11 
REMARK    8  A    between atoms: N_12  and  C_13 
ROOT
HETATM    1  C   UNL     1      -3.083   4.557 -31.758  1.00  0.00     0.177 A 
HETATM    2  N   UNL     1      -3.563   5.697 -31.071  1.00  0.00    -0.276 N 
HETATM    3  C   UNL     1      -2.600   6.522 -30.382  1.00  0.00     0.124 A 
HETATM    4  N   UNL     1      -2.916   7.644 -29.764  1.00  0.00    -0.384 N 
HETATM    5  H   UNL     1      -2.210   8.206 -29.312  1.00  0.00     0.157 HD
HETATM    6  H   UNL     1      -3.874   7.969 -29.756  1.00  0.00     0.157 HD
HETATM    7  C   UNL     1      -1.240   6.086 -30.434  1.00  0.00     0.081 A 
HETATM    8  C   UNL     1      -0.932   4.954 -31.179  1.00  0.00     0.187 A 
HETATM    9  N   UNL     1       0.357   4.653 -31.140  1.00  0.00    -0.153 NA
HETATM   10  N   UNL     1       0.879   5.616 -30.357  1.00  0.00    -0.280 N 
HETATM   11  H   UNL     1       1.878   5.591 -30.175  1.00  0.00     0.189 HD
HETATM   12  C   UNL     1      -0.053   6.523 -29.894  1.00  0.00     0.042 A 
HETATM   13  C   UNL     1       0.332   7.648 -29.013  1.00  0.00     0.071 C 
HETATM   14  N   UNL     1      -1.845   4.172 -31.873  1.00  0.00    -0.202 NA
ENDROOT
BRANCH   1  15
HETATM   15  S   UNL     1      -4.256   3.485 -32.567  1.00  0.00    -0.091 SA
BRANCH  15  16
HETATM   16  C   UNL     1      -4.635   2.265 -31.265  1.00  0.00     0.091 C 
BRANCH  16  17
HETATM   17  C   UNL     1      -3.666   1.091 -31.170  1.00  0.00     0.113 C 
BRANCH  17  18
HETATM   18  C   UNL     1      -3.799   0.141 -32.339  1.00  0.00     0.223 C 
HETATM   19  N   UNL     1      -5.030  -0.488 -32.383  1.00  0.00    -0.325 N 
HETATM   20  H   UNL     1      -5.808   0.026 -31.992  1.00  0.00     0.169 HD
HETATM   21  O   UNL     1      -2.889   0.031 -33.157  1.00  0.00    -0.273 OA
BRANCH  19  22
HETATM   22  C   UNL     1      -5.362  -1.554 -33.249  1.00  0.00     0.068 A 
HETATM   23  C   UNL     1      -6.631  -1.731 -33.826  1.00  0.00     0.095 A 
HETATM   24  C   UNL     1      -6.859  -2.810 -34.691  1.00  0.00     0.039 A 
HETATM   25  C   UNL     1      -5.837  -3.717 -34.975  1.00  0.00     0.003 A 
HETATM   26  C   UNL     1      -4.572  -3.530 -34.427  1.00  0.00     0.002 A 
HETATM   27  C   UNL     1      -4.330  -2.443 -33.583  1.00  0.00     0.032 A 
BRANCH  23  28
HETATM   28  O   UNL     1      -7.570  -0.737 -33.709  1.00  0.00    -0.349 OA
BRANCH  28  29
HETATM   29  C   UNL     1      -7.818  -0.021 -34.922  1.00  0.00     0.171 C 
HETATM   30  C   UNL     1      -6.912   1.196 -34.981  1.00  0.00     0.034 C 
ENDBRANCH  28  29
ENDBRANCH  23  28
ENDBRANCH  19  22
ENDBRANCH  17  18
ENDBRANCH  16  17
ENDBRANCH  15  16
ENDBRANCH   1  15
BRANCH   2  31
HETATM   31  C   UNL     1      -4.944   6.060 -31.080  1.00  0.00     0.044 A 
HETATM   32  C   UNL     1      -5.795   5.677 -30.033  1.00  0.00     0.054 A 
HETATM   33  C   UNL     1      -7.155   5.980 -30.092  1.00  0.00     0.036 A 
HETATM   34 CL   UNL     1      -8.190   5.505 -28.803  1.00  0.00    -0.084 Cl
HETATM   35  C   UNL     1      -7.685   6.649 -31.193  1.00  0.00     0.024 A 
HETATM   36  C   UNL     1      -6.849   7.027 -32.243  1.00  0.00     0.004 A 
HETATM   37  C   UNL     1      -5.484   6.734 -32.188  1.00  0.00     0.030 A 
ENDBRANCH   2  31
TORSDOF 8
ENDMDL
MODEL 10
REMARK VINA RESULT:      -7.8     17.088     18.804
REMARK  8 active torsions:
REMARK  status: ('A' for Active; 'I' for Inactive)
REMARK    1  A    between atoms: C_2  and  O_3 
REMARK    2  A    between atoms: O_3  and  C_4 
REMARK    3  A    between atoms: C_5  and  N_6 
REMARK       I    between atoms: N_6  and  C_7 
REMARK    4  A    between atoms: C_7  and  C_8 
REMARK    5  A    between atoms: C_8  and  C_9 
REMARK    6  A    between atoms: C_9  and  S_10 
REMARK    7  A    between atoms: S_10  and  C_11 
REMARK    8  A    between atoms: N_12  and  C_13 
ROOT
HETATM    1  C   UNL     1      -5.661 -13.590 -39.475  1.00  0.00     0.177 A 
HETATM    2  N   UNL     1      -6.850 -13.596 -38.709  1.00  0.00    -0.276 N 
HETATM    3  C   UNL     1      -6.725 -13.535 -37.272  1.00  0.00     0.124 A 
HETATM    4  N   UNL     1      -7.758 -13.468 -36.455  1.00  0.00    -0.384 N 
HETATM    5  H   UNL     1      -7.629 -13.403 -35.456  1.00  0.00     0.157 HD
HETATM    6  H   UNL     1      -8.700 -13.457 -36.825  1.00  0.00     0.157 HD
HETATM    7  C   UNL     1      -5.393 -13.505 -36.754  1.00  0.00     0.081 A 
HETATM    8  C   UNL     1      -4.331 -13.475 -37.649  1.00  0.00     0.187 A 
HETATM    9  N   UNL     1      -3.153 -13.456 -37.042  1.00  0.00    -0.153 NA
HETATM   10  N   UNL     1      -3.475 -13.469 -35.735  1.00  0.00    -0.280 N 
HETATM   11  H   UNL     1      -2.717 -13.461 -35.059  1.00  0.00     0.189 HD
HETATM   12  C   UNL     1      -4.835 -13.500 -35.497  1.00  0.00     0.042 A 
HETATM   13  C   UNL     1      -5.379 -13.526 -34.122  1.00  0.00     0.071 C 
HETATM   14  N   UNL     1      -4.440 -13.500 -39.032  1.00  0.00    -0.202 NA
ENDROOT
BRANCH   1  15
HETATM   15  S   UNL     1      -5.782 -13.726 -41.249  1.00  0.00    -0.091 SA
BRANCH  15  16
HETATM   16  C   UNL     1      -4.031 -13.725 -41.763  1.00  0.00     0.091 C 
BRANCH  16  17
HETATM   17  C   UNL     1      -3.523 -15.038 -42.346  1.00  0.00     0.113 C 
BRANCH  17  18
HETATM   18  C   UNL     1      -2.364 -15.607 -41.558  1.00  0.00     0.223 C 
HETATM   19  N   UNL     1      -2.210 -15.006 -40.321  1.00  0.00    -0.325 N 
HETATM   20  H   UNL     1      -3.052 -14.644 -39.893  1.00  0.00     0.169 HD
HETATM   21  O   UNL     1      -1.707 -16.543 -42.006  1.00  0.00    -0.273 OA
BRANCH  19  22
HETATM   22  C   UNL     1      -1.110 -15.206 -39.457  1.00  0.00     0.068 A 
HETATM   23  C   UNL     1      -1.051 -16.214 -38.480  1.00  0.00     0.095 A 
HETATM   24  C   UNL     1       0.094 -16.346 -37.683  1.00  0.00     0.039 A 
HETATM   25  C   UNL     1       1.173 -15.477 -37.846  1.00  0.00     0.003 A 
HETATM   26  C   UNL     1       1.131 -14.495 -38.831  1.00  0.00     0.002 A 
HETATM   27  C   UNL     1       0.002 -14.372 -39.646  1.00  0.00     0.032 A 
BRANCH  23  28
HETATM   28  O   UNL     1      -2.020 -17.186 -38.454  1.00  0.00    -0.349 OA
BRANCH  28  29
HETATM   29  C   UNL     1      -3.012 -16.995 -37.442  1.00  0.00     0.171 C 
HETATM   30  C   UNL     1      -4.393 -17.076 -38.070  1.00  0.00     0.034 C 
ENDBRANCH  28  29
ENDBRANCH  23  28
ENDBRANCH  19  22
ENDBRANCH  17  18
ENDBRANCH  16  17
ENDBRANCH  15  16
ENDBRANCH   1  15
BRANCH   2  31
HETATM   31  C   UNL     1      -8.142 -13.621 -39.316  1.00  0.00     0.044 A 
HETATM   32  C   UNL     1      -8.793 -12.430 -39.670  1.00  0.00     0.054 A 
HETATM   33  C   UNL     1     -10.083 -12.471 -40.198  1.00  0.00     0.036 A 
HETATM   34 CL   UNL     1     -10.874 -11.004 -40.627  1.00  0.00    -0.084 Cl
HETATM   35  C   UNL     1     -10.744 -13.686 -40.366  1.00  0.00     0.024 A 
HETATM   36  C   UNL     1     -10.107 -14.875 -40.011  1.00  0.00     0.004 A 
HETATM   37  C   UNL     1      -8.812 -14.844 -39.488  1.00  0.00     0.030 A 
ENDBRANCH   2  31
TORSDOF 8
ENDMDL
