MODEL 1
REMARK VINA RESULT:      -8.9      0.000      0.000
REMARK  3 active torsions:
REMARK  status: ('A' for Active; 'I' for Inactive)
REMARK    1  A    between atoms: C_4  and  C_5 
REMARK    2  A    between atoms: C_11  and  C_12 
REMARK    3  A    between atoms: C_21  and  N_22 
ROOT
HETATM    1  C   UNL     1      -7.508   0.093 -33.832  1.00  0.00     0.071 A 
HETATM    2  N   UNL     1      -8.888   0.042 -33.772  1.00  0.00    -0.274 N 
HETATM    3  H   UNL     1      -9.477  -0.777 -33.871  1.00  0.00     0.189 HD
HETATM    4  N   UNL     1      -9.484   1.241 -33.636  1.00  0.00    -0.148 NA
HETATM    5  C   UNL     1      -8.445   2.062 -33.583  1.00  0.00     0.199 A 
HETATM    6  C   UNL     1      -7.194   1.429 -33.646  1.00  0.00     0.036 A 
HETATM    7  C   UNL     1      -5.935   2.240 -33.581  1.00  0.00     0.079 C 
HETATM    8  C   UNL     1      -6.287   3.700 -33.925  1.00  0.00     0.063 C 
HETATM    9  C   UNL     1      -5.130   4.585 -34.360  1.00  0.00     0.020 C 
HETATM   10  N   UNL     1      -4.170   5.319 -34.721  1.00  0.00    -0.096 N 
HETATM   11  C   UNL     1      -7.545   4.202 -33.878  1.00  0.00     0.139 C 
HETATM   12  O   UNL     1      -8.644   3.393 -33.567  1.00  0.00    -0.277 OA
ENDROOT
BRANCH   7  13
HETATM   13  C   UNL     1      -5.190   2.217 -32.194  1.00  0.00     0.022 C 
HETATM   14  C   UNL     1      -5.807   1.308 -31.152  1.00  0.00    -0.025 C 
HETATM   15  C   UNL     1      -5.144   0.327 -30.525  1.00  0.00    -0.030 C 
HETATM   16  C   UNL     1      -3.709  -0.007 -30.795  1.00  0.00     0.027 C 
HETATM   17  C   UNL     1      -3.189   0.586 -32.101  1.00  0.00     0.004 C 
HETATM   18  C   UNL     1      -3.660   2.017 -32.324  1.00  0.00     0.010 C 
ENDBRANCH   7  13
BRANCH  11  19
HETATM   19  N   UNL     1      -7.895   5.509 -34.142  1.00  0.00    -0.282 NA
HETATM   20  H   UNL     1      -8.688   5.640 -34.763  1.00  0.00     0.126 HD
HETATM   21  H   UNL     1      -7.964   6.058 -33.286  1.00  0.00     0.126 HD
ENDBRANCH  11  19
BRANCH   1  22
HETATM   22  C   UNL     1      -6.712  -1.099 -34.096  1.00  0.00    -0.007 A 
HETATM   23  C   UNL     1      -5.319  -1.069 -33.968  1.00  0.00     0.014 A 
HETATM   24  C   UNL     1      -4.558  -2.212 -34.223  1.00  0.00     0.001 A 
HETATM   25  C   UNL     1      -5.185  -3.395 -34.611  1.00  0.00     0.000 A 
HETATM   26  C   UNL     1      -6.569  -3.436 -34.747  1.00  0.00     0.001 A 
HETATM   27  C   UNL     1      -7.331  -2.292 -34.494  1.00  0.00     0.014 A 
ENDBRANCH   1  22
TORSDOF 3
ENDMDL
MODEL 2
REMARK VINA RESULT:      -8.3      3.124      6.370
REMARK  3 active torsions:
REMARK  status: ('A' for Active; 'I' for Inactive)
REMARK    1  A    between atoms: C_4  and  C_5 
REMARK    2  A    between atoms: C_11  and  C_12 
REMARK    3  A    between atoms: C_21  and  N_22 
ROOT
HETATM    1  C   UNL     1      -4.119   1.568 -32.169  1.00  0.00     0.071 A 
HETATM    2  N   UNL     1      -3.099   1.589 -31.237  1.00  0.00    -0.274 N 
HETATM    3  H   UNL     1      -2.645   2.405 -30.843  1.00  0.00     0.189 HD
HETATM    4  N   UNL     1      -2.636   0.374 -30.890  1.00  0.00    -0.148 NA
HETATM    5  C   UNL     1      -3.407  -0.431 -31.607  1.00  0.00     0.199 A 
HETATM    6  C   UNL     1      -4.377   0.224 -32.381  1.00  0.00     0.036 A 
HETATM    7  C   UNL     1      -5.326  -0.570 -33.228  1.00  0.00     0.079 C 
HETATM    8  C   UNL     1      -4.728  -1.974 -33.433  1.00  0.00     0.063 C 
HETATM    9  C   UNL     1      -5.276  -2.774 -34.603  1.00  0.00     0.020 C 
HETATM   10  N   UNL     1      -5.730  -3.438 -35.575  1.00  0.00    -0.096 N 
HETATM   11  C   UNL     1      -3.751  -2.497 -32.651  1.00  0.00     0.139 C 
HETATM   12  O   UNL     1      -3.163  -1.755 -31.620  1.00  0.00    -0.277 OA
ENDROOT
BRANCH   7  13
HETATM   13  C   UNL     1      -6.781  -0.724 -32.645  1.00  0.00     0.022 C 
HETATM   14  C   UNL     1      -7.094   0.169 -31.463  1.00  0.00    -0.025 C 
HETATM   15  C   UNL     1      -8.123   1.027 -31.424  1.00  0.00    -0.030 C 
HETATM   16  C   UNL     1      -9.081   1.224 -32.557  1.00  0.00     0.027 C 
HETATM   17  C   UNL     1      -8.565   0.673 -33.883  1.00  0.00     0.004 C 
HETATM   18  C   UNL     1      -7.884  -0.680 -33.731  1.00  0.00     0.010 C 
ENDBRANCH   7  13
BRANCH  11  19
HETATM   19  N   UNL     1      -3.216  -3.761 -32.777  1.00  0.00    -0.282 NA
HETATM   20  H   UNL     1      -3.661  -4.489 -32.225  1.00  0.00     0.126 HD
HETATM   21  H   UNL     1      -3.093  -4.020 -33.755  1.00  0.00     0.126 HD
ENDBRANCH  11  19
BRANCH   1  22
HETATM   22  C   UNL     1      -4.654   2.796 -32.742  1.00  0.00    -0.007 A 
HETATM   23  C   UNL     1      -5.771   2.762 -33.585  1.00  0.00     0.014 A 
HETATM   24  C   UNL     1      -6.281   3.941 -34.133  1.00  0.00     0.001 A 
HETATM   25  C   UNL     1      -5.676   5.164 -33.847  1.00  0.00     0.000 A 
HETATM   26  C   UNL     1      -4.561   5.210 -33.014  1.00  0.00     0.001 A 
HETATM   27  C   UNL     1      -4.049   4.031 -32.466  1.00  0.00     0.014 A 
ENDBRANCH   1  22
TORSDOF 3
ENDMDL
MODEL 3
REMARK VINA RESULT:      -8.2      2.397      4.523
REMARK  3 active torsions:
REMARK  status: ('A' for Active; 'I' for Inactive)
REMARK    1  A    between atoms: C_4  and  C_5 
REMARK    2  A    between atoms: C_11  and  C_12 
REMARK    3  A    between atoms: C_21  and  N_22 
ROOT
HETATM    1  C   UNL     1      -9.156   2.351 -32.228  1.00  0.00     0.071 A 
HETATM    2  N   UNL     1      -9.378   2.368 -30.864  1.00  0.00    -0.274 N 
HETATM    3  H   UNL     1     -10.246   2.165 -30.381  1.00  0.00     0.189 HD
HETATM    4  N   UNL     1      -8.322   2.769 -30.133  1.00  0.00    -0.148 NA
HETATM    5  C   UNL     1      -7.406   2.985 -31.066  1.00  0.00     0.199 A 
HETATM    6  C   UNL     1      -7.825   2.703 -32.375  1.00  0.00     0.036 A 
HETATM    7  C   UNL     1      -6.881   2.888 -33.524  1.00  0.00     0.079 C 
HETATM    8  C   UNL     1      -5.741   3.817 -33.065  1.00  0.00     0.063 C 
HETATM    9  C   UNL     1      -4.941   4.495 -34.166  1.00  0.00     0.020 C 
HETATM   10  N   UNL     1      -4.278   5.058 -35.078  1.00  0.00    -0.096 N 
HETATM   11  C   UNL     1      -5.448   4.061 -31.764  1.00  0.00     0.139 C 
HETATM   12  O   UNL     1      -6.219   3.523 -30.727  1.00  0.00    -0.277 OA
ENDROOT
BRANCH   7  13
HETATM   13  C   UNL     1      -6.250   1.564 -34.098  1.00  0.00     0.022 C 
HETATM   14  C   UNL     1      -5.846   0.544 -33.055  1.00  0.00    -0.025 C 
HETATM   15  C   UNL     1      -6.286  -0.722 -33.034  1.00  0.00    -0.030 C 
HETATM   16  C   UNL     1      -7.251  -1.280 -34.034  1.00  0.00     0.027 C 
HETATM   17  C   UNL     1      -7.988  -0.203 -34.824  1.00  0.00     0.004 C 
HETATM   18  C   UNL     1      -7.076   0.940 -35.250  1.00  0.00     0.010 C 
ENDBRANCH   7  13
BRANCH  11  19
HETATM   19  N   UNL     1      -4.415   4.853 -31.312  1.00  0.00    -0.282 NA
HETATM   20  H   UNL     1      -4.645   5.499 -30.562  1.00  0.00     0.126 HD
HETATM   21  H   UNL     1      -3.577   4.305 -31.122  1.00  0.00     0.126 HD
ENDBRANCH  11  19
BRANCH   1  22
HETATM   22  C   UNL     1     -10.227   2.057 -33.171  1.00  0.00    -0.007 A 
HETATM   23  C   UNL     1     -10.954   0.864 -33.075  1.00  0.00     0.014 A 
HETATM   24  C   UNL     1     -11.979   0.584 -33.982  1.00  0.00     0.001 A 
HETATM   25  C   UNL     1     -12.284   1.493 -34.993  1.00  0.00     0.000 A 
HETATM   26  C   UNL     1     -11.565   2.680 -35.102  1.00  0.00     0.001 A 
HETATM   27  C   UNL     1     -10.538   2.960 -34.197  1.00  0.00     0.014 A 
ENDBRANCH   1  22
TORSDOF 3
ENDMDL
MODEL 4
REMARK VINA RESULT:      -8.2      1.056      2.047
REMARK  3 active torsions:
REMARK  status: ('A' for Active; 'I' for Inactive)
REMARK    1  A    between atoms: C_4  and  C_5 
REMARK    2  A    between atoms: C_11  and  C_12 
REMARK    3  A    between atoms: C_21  and  N_22 
ROOT
HETATM    1  C   UNL     1      -7.177  -0.038 -33.605  1.00  0.00     0.071 A 
HETATM    2  N   UNL     1      -8.544  -0.141 -33.437  1.00  0.00    -0.274 N 
HETATM    3  H   UNL     1      -9.102  -0.987 -33.448  1.00  0.00     0.189 HD
HETATM    4  N   UNL     1      -9.181   1.039 -33.316  1.00  0.00    -0.148 NA
HETATM    5  C   UNL     1      -8.178   1.903 -33.386  1.00  0.00     0.199 A 
HETATM    6  C   UNL     1      -6.909   1.317 -33.513  1.00  0.00     0.036 A 
HETATM    7  C   UNL     1      -5.685   2.180 -33.587  1.00  0.00     0.079 C 
HETATM    8  C   UNL     1      -6.125   3.605 -33.976  1.00  0.00     0.063 C 
HETATM    9  C   UNL     1      -5.044   4.510 -34.544  1.00  0.00     0.020 C 
HETATM   10  N   UNL     1      -4.147   5.262 -35.014  1.00  0.00    -0.096 N 
HETATM   11  C   UNL     1      -7.397   4.058 -33.858  1.00  0.00     0.139 C 
HETATM   12  O   UNL     1      -8.433   3.224 -33.422  1.00  0.00    -0.277 OA
ENDROOT
BRANCH   7  13
HETATM   13  C   UNL     1      -4.838   2.262 -32.262  1.00  0.00     0.022 C 
HETATM   14  C   UNL     1      -3.380   2.625 -32.456  1.00  0.00    -0.025 C 
HETATM   15  C   UNL     1      -2.780   3.662 -31.857  1.00  0.00    -0.030 C 
HETATM   16  C   UNL     1      -3.484   4.608 -30.934  1.00  0.00     0.027 C 
HETATM   17  C   UNL     1      -5.004   4.533 -31.043  1.00  0.00     0.004 C 
HETATM   18  C   UNL     1      -5.515   3.102 -31.151  1.00  0.00     0.010 C 
ENDBRANCH   7  13
BRANCH  11  19
HETATM   19  N   UNL     1      -7.823   5.333 -34.159  1.00  0.00    -0.282 NA
HETATM   20  H   UNL     1      -7.888   5.977 -33.376  1.00  0.00     0.126 HD
HETATM   21  H   UNL     1      -7.315   5.721 -34.953  1.00  0.00     0.126 HD
ENDBRANCH  11  19
BRANCH   1  22
HETATM   22  C   UNL     1      -6.351  -1.210 -33.869  1.00  0.00    -0.007 A 
HETATM   23  C   UNL     1      -6.843  -2.272 -34.636  1.00  0.00     0.014 A 
HETATM   24  C   UNL     1      -6.050  -3.393 -34.885  1.00  0.00     0.001 A 
HETATM   25  C   UNL     1      -4.758  -3.464 -34.368  1.00  0.00     0.000 A 
HETATM   26  C   UNL     1      -4.258  -2.417 -33.599  1.00  0.00     0.001 A 
HETATM   27  C   UNL     1      -5.052  -1.295 -33.347  1.00  0.00     0.014 A 
ENDBRANCH   1  22
TORSDOF 3
ENDMDL
MODEL 5
REMARK VINA RESULT:      -8.0      2.674      4.394
REMARK  3 active torsions:
REMARK  status: ('A' for Active; 'I' for Inactive)
REMARK    1  A    between atoms: C_4  and  C_5 
REMARK    2  A    between atoms: C_11  and  C_12 
REMARK    3  A    between atoms: C_21  and  N_22 
ROOT
HETATM    1  C   UNL     1      -4.545  -0.411 -32.751  1.00  0.00     0.071 A 
HETATM    2  N   UNL     1      -3.219  -0.396 -32.363  1.00  0.00    -0.274 N 
HETATM    3  H   UNL     1      -2.515  -1.099 -32.556  1.00  0.00     0.189 HD
HETATM    4  N   UNL     1      -2.878   0.650 -31.586  1.00  0.00    -0.148 NA
HETATM    5  C   UNL     1      -4.018   1.320 -31.508  1.00  0.00     0.199 A 
HETATM    6  C   UNL     1      -5.078   0.759 -32.238  1.00  0.00     0.036 A 
HETATM    7  C   UNL     1      -6.421   1.426 -32.249  1.00  0.00     0.079 C 
HETATM    8  C   UNL     1      -6.491   2.385 -31.045  1.00  0.00     0.063 C 
HETATM    9  C   UNL     1      -7.882   2.809 -30.603  1.00  0.00     0.020 C 
HETATM   10  N   UNL     1      -9.036   3.161 -30.236  1.00  0.00    -0.096 N 
HETATM   11  C   UNL     1      -5.400   2.831 -30.374  1.00  0.00     0.139 C 
HETATM   12  O   UNL     1      -4.111   2.392 -30.699  1.00  0.00    -0.277 OA
ENDROOT
BRANCH   7  13
HETATM   13  C   UNL     1      -6.760   2.237 -33.555  1.00  0.00     0.022 C 
HETATM   14  C   UNL     1      -8.234   2.503 -33.779  1.00  0.00    -0.025 C 
HETATM   15  C   UNL     1      -8.758   3.725 -33.946  1.00  0.00    -0.030 C 
HETATM   16  C   UNL     1      -7.950   4.985 -33.912  1.00  0.00     0.027 C 
HETATM   17  C   UNL     1      -6.572   4.798 -33.285  1.00  0.00     0.004 C 
HETATM   18  C   UNL     1      -5.894   3.509 -33.730  1.00  0.00     0.010 C 
ENDBRANCH   7  13
BRANCH  11  19
HETATM   19  N   UNL     1      -5.417   3.716 -29.318  1.00  0.00    -0.282 NA
HETATM   20  H   UNL     1      -6.335   4.004 -28.995  1.00  0.00     0.126 HD
HETATM   21  H   UNL     1      -4.805   3.411 -28.563  1.00  0.00     0.126 HD
ENDBRANCH  11  19
BRANCH   1  22
HETATM   22  C   UNL     1      -5.109  -1.531 -33.494  1.00  0.00    -0.007 A 
HETATM   23  C   UNL     1      -6.452  -1.522 -33.887  1.00  0.00     0.014 A 
HETATM   24  C   UNL     1      -6.990  -2.597 -34.598  1.00  0.00     0.001 A 
HETATM   25  C   UNL     1      -6.190  -3.692 -34.919  1.00  0.00     0.000 A 
HETATM   26  C   UNL     1      -4.854  -3.715 -34.529  1.00  0.00     0.001 A 
HETATM   27  C   UNL     1      -4.315  -2.641 -33.816  1.00  0.00     0.014 A 
ENDBRANCH   1  22
TORSDOF 3
ENDMDL
MODEL 6
REMARK VINA RESULT:      -7.9     14.725     16.727
REMARK  3 active torsions:
REMARK  status: ('A' for Active; 'I' for Inactive)
REMARK    1  A    between atoms: C_4  and  C_5 
REMARK    2  A    between atoms: C_11  and  C_12 
REMARK    3  A    between atoms: C_21  and  N_22 
ROOT
HETATM    1  C   UNL     1      -4.702 -13.473 -39.529  1.00  0.00     0.071 A 
HETATM    2  N   UNL     1      -3.701 -12.521 -39.488  1.00  0.00    -0.274 N 
HETATM    3  H   UNL     1      -3.115 -12.214 -40.256  1.00  0.00     0.189 HD
HETATM    4  N   UNL     1      -3.461 -12.018 -38.263  1.00  0.00    -0.148 NA
HETATM    5  C   UNL     1      -4.356 -12.656 -37.522  1.00  0.00     0.199 A 
HETATM    6  C   UNL     1      -5.190 -13.531 -38.235  1.00  0.00     0.036 A 
HETATM    7  C   UNL     1      -6.256 -14.305 -37.520  1.00  0.00     0.079 C 
HETATM    8  C   UNL     1      -5.912 -14.323 -36.018  1.00  0.00     0.063 C 
HETATM    9  C   UNL     1      -6.582 -15.405 -35.188  1.00  0.00     0.020 C 
HETATM   10  N   UNL     1      -7.138 -16.303 -34.499  1.00  0.00    -0.096 N 
HETATM   11  C   UNL     1      -5.048 -13.456 -35.434  1.00  0.00     0.139 C 
HETATM   12  O   UNL     1      -4.348 -12.504 -36.185  1.00  0.00    -0.277 OA
ENDROOT
BRANCH   7  13
HETATM   13  C   UNL     1      -7.720 -13.750 -37.692  1.00  0.00     0.022 C 
HETATM   14  C   UNL     1      -7.825 -12.445 -38.452  1.00  0.00    -0.025 C 
HETATM   15  C   UNL     1      -8.578 -12.272 -39.546  1.00  0.00    -0.030 C 
HETATM   16  C   UNL     1      -9.397 -13.361 -40.168  1.00  0.00     0.027 C 
HETATM   17  C   UNL     1      -8.998 -14.756 -39.698  1.00  0.00     0.004 C 
HETATM   18  C   UNL     1      -8.723 -14.815 -38.201  1.00  0.00     0.010 C 
ENDBRANCH   7  13
BRANCH  11  19
HETATM   19  N   UNL     1      -4.742 -13.414 -34.091  1.00  0.00    -0.282 NA
HETATM   20  H   UNL     1      -5.313 -12.794 -33.524  1.00  0.00     0.126 HD
HETATM   21  H   UNL     1      -4.657 -14.350 -33.697  1.00  0.00     0.126 HD
ENDBRANCH  11  19
BRANCH   1  22
HETATM   22  C   UNL     1      -5.009 -14.204 -40.752  1.00  0.00    -0.007 A 
HETATM   23  C   UNL     1      -4.635 -13.695 -42.001  1.00  0.00     0.014 A 
HETATM   24  C   UNL     1      -4.932 -14.397 -43.171  1.00  0.00     0.001 A 
HETATM   25  C   UNL     1      -5.609 -15.613 -43.103  1.00  0.00     0.000 A 
HETATM   26  C   UNL     1      -5.992 -16.128 -41.867  1.00  0.00     0.001 A 
HETATM   27  C   UNL     1      -5.697 -15.425 -40.696  1.00  0.00     0.014 A 
ENDBRANCH   1  22
TORSDOF 3
ENDMDL
MODEL 7
REMARK VINA RESULT:      -7.7      2.942      4.350
REMARK  3 active torsions:
REMARK  status: ('A' for Active; 'I' for Inactive)
REMARK    1  A    between atoms: C_4  and  C_5 
REMARK    2  A    between atoms: C_11  and  C_12 
REMARK    3  A    between atoms: C_21  and  N_22 
ROOT
HETATM    1  C   UNL     1     -10.176   1.069 -33.608  1.00  0.00     0.071 A 
HETATM    2  N   UNL     1     -11.286   0.276 -33.389  1.00  0.00    -0.274 N 
HETATM    3  H   UNL     1     -11.308  -0.729 -33.264  1.00  0.00     0.189 HD
HETATM    4  N   UNL     1     -12.458   0.939 -33.419  1.00  0.00    -0.148 NA
HETATM    5  C   UNL     1     -12.065   2.185 -33.638  1.00  0.00     0.199 A 
HETATM    6  C   UNL     1     -10.675   2.356 -33.716  1.00  0.00     0.036 A 
HETATM    7  C   UNL     1     -10.095   3.720 -33.946  1.00  0.00     0.079 C 
HETATM    8  C   UNL     1     -11.203   4.622 -34.521  1.00  0.00     0.063 C 
HETATM    9  C   UNL     1     -10.741   5.878 -35.241  1.00  0.00     0.020 C 
HETATM   10  N   UNL     1     -10.358   6.921 -35.838  1.00  0.00    -0.096 N 
HETATM   11  C   UNL     1     -12.526   4.338 -34.432  1.00  0.00     0.139 C 
HETATM   12  O   UNL     1     -12.982   3.147 -33.854  1.00  0.00    -0.277 OA
ENDROOT
BRANCH   7  13
HETATM   13  C   UNL     1      -9.491   4.418 -32.670  1.00  0.00     0.022 C 
HETATM   14  C   UNL     1      -9.984   3.870 -31.347  1.00  0.00    -0.025 C 
HETATM   15  C   UNL     1      -9.180   3.400 -30.384  1.00  0.00    -0.030 C 
HETATM   16  C   UNL     1      -7.689   3.340 -30.505  1.00  0.00     0.027 C 
HETATM   17  C   UNL     1      -7.197   3.481 -31.943  1.00  0.00     0.004 C 
HETATM   18  C   UNL     1      -7.949   4.554 -32.718  1.00  0.00     0.010 C 
ENDBRANCH   7  13
BRANCH  11  19
HETATM   19  N   UNL     1     -13.548   5.135 -34.899  1.00  0.00    -0.282 NA
HETATM   20  H   UNL     1     -14.383   5.171 -34.322  1.00  0.00     0.126 HD
HETATM   21  H   UNL     1     -13.211   6.058 -35.170  1.00  0.00     0.126 HD
ENDBRANCH  11  19
BRANCH   1  22
HETATM   22  C   UNL     1      -8.841   0.495 -33.726  1.00  0.00    -0.007 A 
HETATM   23  C   UNL     1      -8.136   0.091 -32.588  1.00  0.00     0.014 A 
HETATM   24  C   UNL     1      -6.856  -0.457 -32.704  1.00  0.00     0.001 A 
HETATM   25  C   UNL     1      -6.270  -0.602 -33.960  1.00  0.00     0.000 A 
HETATM   26  C   UNL     1      -6.960  -0.198 -35.100  1.00  0.00     0.001 A 
HETATM   27  C   UNL     1      -8.239   0.352 -34.984  1.00  0.00     0.014 A 
ENDBRANCH   1  22
TORSDOF 3
ENDMDL
MODEL 8
REMARK VINA RESULT:      -7.3      2.976      6.245
REMARK  3 active torsions:
REMARK  status: ('A' for Active; 'I' for Inactive)
REMARK    1  A    between atoms: C_4  and  C_5 
REMARK    2  A    between atoms: C_11  and  C_12 
REMARK    3  A    between atoms: C_21  and  N_22 
ROOT
HETATM    1  C   UNL     1      -2.987   5.262 -33.315  1.00  0.00     0.071 A 
HETATM    2  N   UNL     1      -2.949   5.531 -34.670  1.00  0.00    -0.274 N 
HETATM    3  H   UNL     1      -2.177   5.922 -35.197  1.00  0.00     0.189 HD
HETATM    4  N   UNL     1      -4.108   5.301 -35.316  1.00  0.00    -0.148 NA
HETATM    5  C   UNL     1      -4.883   4.851 -34.341  1.00  0.00     0.199 A 
HETATM    6  C   UNL     1      -4.253   4.749 -33.091  1.00  0.00     0.036 A 
HETATM    7  C   UNL     1      -5.013   4.239 -31.904  1.00  0.00     0.079 C 
HETATM    8  C   UNL     1      -6.518   4.359 -32.209  1.00  0.00     0.063 C 
HETATM    9  C   UNL     1      -7.452   4.333 -31.009  1.00  0.00     0.020 C 
HETATM   10  N   UNL     1      -8.226   4.312 -30.014  1.00  0.00    -0.096 N 
HETATM   11  C   UNL     1      -7.023   4.503 -33.459  1.00  0.00     0.139 C 
HETATM   12  O   UNL     1      -6.188   4.618 -34.576  1.00  0.00    -0.277 OA
ENDROOT
BRANCH   7  13
HETATM   13  C   UNL     1      -4.701   2.751 -31.494  1.00  0.00     0.022 C 
HETATM   14  C   UNL     1      -5.196   2.348 -30.120  1.00  0.00    -0.025 C 
HETATM   15  C   UNL     1      -6.011   1.309 -29.892  1.00  0.00    -0.030 C 
HETATM   16  C   UNL     1      -6.551   0.425 -30.973  1.00  0.00     0.027 C 
HETATM   17  C   UNL     1      -6.423   1.035 -32.367  1.00  0.00     0.004 C 
HETATM   18  C   UNL     1      -5.082   1.721 -32.586  1.00  0.00     0.010 C 
ENDBRANCH   7  13
BRANCH  11  19
HETATM   19  N   UNL     1      -8.362   4.576 -33.777  1.00  0.00    -0.282 NA
HETATM   20  H   UNL     1      -8.997   4.714 -32.997  1.00  0.00     0.126 HD
HETATM   21  H   UNL     1      -8.530   5.222 -34.547  1.00  0.00     0.126 HD
ENDBRANCH  11  19
BRANCH   1  22
HETATM   22  C   UNL     1      -1.858   5.566 -32.446  1.00  0.00    -0.007 A 
HETATM   23  C   UNL     1      -1.543   4.733 -31.367  1.00  0.00     0.014 A 
HETATM   24  C   UNL     1      -0.461   5.028 -30.535  1.00  0.00     0.001 A 
HETATM   25  C   UNL     1       0.314   6.162 -30.773  1.00  0.00     0.000 A 
HETATM   26  C   UNL     1       0.008   7.002 -31.839  1.00  0.00     0.001 A 
HETATM   27  C   UNL     1      -1.076   6.708 -32.672  1.00  0.00     0.014 A 
ENDBRANCH   1  22
TORSDOF 3
ENDMDL
MODEL 9
REMARK VINA RESULT:      -7.2     15.012     17.462
REMARK  3 active torsions:
REMARK  status: ('A' for Active; 'I' for Inactive)
REMARK    1  A    between atoms: C_4  and  C_5 
REMARK    2  A    between atoms: C_11  and  C_12 
REMARK    3  A    between atoms: C_21  and  N_22 
ROOT
HETATM    1  C   UNL     1      -7.238 -15.703 -41.163  1.00  0.00     0.071 A 
HETATM    2  N   UNL     1      -7.643 -16.952 -41.593  1.00  0.00    -0.274 N 
HETATM    3  H   UNL     1      -7.055 -17.701 -41.944  1.00  0.00     0.189 HD
HETATM    4  N   UNL     1      -8.976 -17.135 -41.599  1.00  0.00    -0.148 NA
HETATM    5  C   UNL     1      -9.416 -15.974 -41.134  1.00  0.00     0.199 A 
HETATM    6  C   UNL     1      -8.407 -15.059 -40.795  1.00  0.00     0.036 A 
HETATM    7  C   UNL     1      -8.767 -13.713 -40.242  1.00  0.00     0.079 C 
HETATM    8  C   UNL     1     -10.239 -13.427 -40.594  1.00  0.00     0.063 C 
HETATM    9  C   UNL     1     -10.672 -11.971 -40.539  1.00  0.00     0.020 C 
HETATM   10  N   UNL     1     -11.032 -10.763 -40.493  1.00  0.00    -0.096 N 
HETATM   11  C   UNL     1     -11.126 -14.386 -40.958  1.00  0.00     0.139 C 
HETATM   12  O   UNL     1     -10.738 -15.723 -41.104  1.00  0.00    -0.277 OA
ENDROOT
BRANCH   7  13
HETATM   13  C   UNL     1      -8.583 -13.553 -38.686  1.00  0.00     0.022 C 
HETATM   14  C   UNL     1      -8.420 -14.852 -37.924  1.00  0.00    -0.025 C 
HETATM   15  C   UNL     1      -7.379 -15.129 -37.128  1.00  0.00    -0.030 C 
HETATM   16  C   UNL     1      -6.232 -14.192 -36.908  1.00  0.00     0.027 C 
HETATM   17  C   UNL     1      -6.150 -13.086 -37.956  1.00  0.00     0.004 C 
HETATM   18  C   UNL     1      -7.513 -12.502 -38.300  1.00  0.00     0.010 C 
ENDBRANCH   7  13
BRANCH  11  19
HETATM   19  N   UNL     1     -12.457 -14.177 -41.244  1.00  0.00    -0.282 NA
HETATM   20  H   UNL     1     -12.749 -13.207 -41.316  1.00  0.00     0.126 HD
HETATM   21  H   UNL     1     -12.766 -14.746 -42.031  1.00  0.00     0.126 HD
ENDBRANCH  11  19
BRANCH   1  22
HETATM   22  C   UNL     1      -5.839 -15.298 -41.206  1.00  0.00    -0.007 A 
HETATM   23  C   UNL     1      -4.850 -16.080 -40.599  1.00  0.00     0.014 A 
HETATM   24  C   UNL     1      -3.511 -15.688 -40.641  1.00  0.00     0.001 A 
HETATM   25  C   UNL     1      -3.148 -14.509 -41.288  1.00  0.00     0.000 A 
HETATM   26  C   UNL     1      -4.123 -13.719 -41.891  1.00  0.00     0.001 A 
HETATM   27  C   UNL     1      -5.464 -14.109 -41.848  1.00  0.00     0.014 A 
ENDBRANCH   1  22
TORSDOF 3
ENDMDL
MODEL 10
REMARK VINA RESULT:      -7.2     14.719     16.736
REMARK  3 active torsions:
REMARK  status: ('A' for Active; 'I' for Inactive)
REMARK    1  A    between atoms: C_4  and  C_5 
REMARK    2  A    between atoms: C_11  and  C_12 
REMARK    3  A    between atoms: C_21  and  N_22 
ROOT
HETATM    1  C   UNL     1      -4.301 -12.669 -38.664  1.00  0.00     0.071 A 
HETATM    2  N   UNL     1      -3.497 -11.555 -38.813  1.00  0.00    -0.274 N 
HETATM    3  H   UNL     1      -3.741 -10.676 -39.256  1.00  0.00     0.189 HD
HETATM    4  N   UNL     1      -2.235 -11.716 -38.372  1.00  0.00    -0.148 NA
HETATM    5  C   UNL     1      -2.260 -12.958 -37.911  1.00  0.00     0.199 A 
HETATM    6  C   UNL     1      -3.507 -13.594 -38.008  1.00  0.00     0.036 A 
HETATM    7  C   UNL     1      -3.678 -14.997 -37.508  1.00  0.00     0.079 C 
HETATM    8  C   UNL     1      -2.283 -15.640 -37.396  1.00  0.00     0.063 C 
HETATM    9  C   UNL     1      -2.244 -17.159 -37.353  1.00  0.00     0.020 C 
HETATM   10  N   UNL     1      -2.212 -18.420 -37.317  1.00  0.00    -0.096 N 
HETATM   11  C   UNL     1      -1.128 -14.931 -37.358  1.00  0.00     0.139 C 
HETATM   12  O   UNL     1      -1.122 -13.537 -37.484  1.00  0.00    -0.277 OA
ENDROOT
BRANCH   7  13
HETATM   13  C   UNL     1      -4.406 -15.133 -36.118  1.00  0.00     0.022 C 
HETATM   14  C   UNL     1      -4.515 -13.847 -35.325  1.00  0.00    -0.025 C 
HETATM   15  C   UNL     1      -5.672 -13.335 -34.883  1.00  0.00    -0.030 C 
HETATM   16  C   UNL     1      -7.007 -13.962 -35.138  1.00  0.00     0.027 C 
HETATM   17  C   UNL     1      -6.981 -14.996 -36.260  1.00  0.00     0.004 C 
HETATM   18  C   UNL     1      -5.752 -15.893 -36.203  1.00  0.00     0.010 C 
ENDBRANCH   7  13
BRANCH  11  19
HETATM   19  N   UNL     1       0.135 -15.465 -37.221  1.00  0.00    -0.282 NA
HETATM   20  H   UNL     1       0.431 -16.100 -37.956  1.00  0.00     0.126 HD
HETATM   21  H   UNL     1       0.826 -14.745 -37.014  1.00  0.00     0.126 HD
ENDBRANCH  11  19
BRANCH   1  22
HETATM   22  C   UNL     1      -5.658 -12.706 -39.195  1.00  0.00    -0.007 A 
HETATM   23  C   UNL     1      -5.897 -13.107 -40.514  1.00  0.00     0.014 A 
HETATM   24  C   UNL     1      -7.198 -13.140 -41.020  1.00  0.00     0.001 A 
HETATM   25  C   UNL     1      -8.271 -12.769 -40.212  1.00  0.00     0.000 A 
HETATM   26  C   UNL     1      -8.046 -12.363 -38.900  1.00  0.00     0.001 A 
HETATM   27  C   UNL     1      -6.744 -12.328 -38.393  1.00  0.00     0.014 A 
ENDBRANCH   1  22
TORSDOF 3
ENDMDL
