MODEL 1
REMARK VINA RESULT:      -9.5      0.000      0.000
REMARK  7 active torsions:
REMARK  status: ('A' for Active; 'I' for Inactive)
REMARK    1  A    between atoms: C_2  and  N_3 
REMARK    2  A    between atoms: C_2  and  C_12 
REMARK       I    between atoms: N_3  and  C_4 
REMARK    3  A    between atoms: C_4  and  C_5 
REMARK    4  A    between atoms: N_17  and  C_19 
REMARK    5  A    between atoms: C_19  and  C_20 
REMARK    6  A    between atoms: C_22  and  C_23 
REMARK    7  A    between atoms: C_23  and  N_24 
ROOT
HETATM    1  C   UNL     1      -3.455   5.231 -33.640  1.00  0.00     0.152 A 
HETATM    2  N   UNL     1      -4.377   5.118 -32.621  1.00  0.00    -0.317 N 
HETATM    3  C   UNL     1      -5.608   5.115 -33.228  1.00  0.00     0.131 A 
HETATM    4  C   UNL     1      -6.912   4.848 -32.570  1.00  0.00     0.108 C 
HETATM    5  C   UNL     1      -6.834   3.585 -31.721  1.00  0.00     0.243 C 
HETATM    6  N   UNL     1      -6.209   3.821 -30.346  1.00  0.00    -0.065 N 
HETATM    7  H   UNL     1      -6.996   4.088 -29.737  1.00  0.00     0.280 HD
HETATM    8  C   UNL     1      -5.234   4.993 -30.238  1.00  0.00     0.255 C 
HETATM    9  C   UNL     1      -4.062   4.943 -31.221  1.00  0.00     0.159 C 
HETATM   10  N   UNL     1      -5.445   5.286 -34.518  1.00  0.00    -0.135 NA
HETATM   11  N   UNL     1      -4.107   5.363 -34.777  1.00  0.00    -0.133 NA
ENDROOT
BRANCH   6  12
HETATM   12  C   UNL     1      -5.654   2.542 -29.728  1.00  0.00     0.280 C 
BRANCH  12  13
HETATM   13  C   UNL     1      -5.683   1.350 -30.645  1.00  0.00     0.009 A 
HETATM   14  S   UNL     1      -4.407   1.090 -31.764  1.00  0.00    -0.096 SA
HETATM   15  C   UNL     1      -5.113  -0.350 -32.371  1.00  0.00     0.009 A 
HETATM   16  C   UNL     1      -6.299  -0.632 -31.720  1.00  0.00     0.017 A 
HETATM   17  C   UNL     1      -6.621   0.338 -30.720  1.00  0.00     0.017 A 
BRANCH  15  18
HETATM   18  C   UNL     1      -4.452  -1.116 -33.483  1.00  0.00     0.280 C 
BRANCH  18  19
HETATM   19  N   UNL     1      -5.086  -2.466 -33.757  1.00  0.00    -0.067 N 
HETATM   20  H   UNL     1      -5.490  -2.783 -32.867  1.00  0.00     0.280 HD
HETATM   21  C   UNL     1      -6.206  -2.392 -34.771  1.00  0.00     0.235 C 
HETATM   22  C   UNL     1      -6.857  -3.760 -34.916  1.00  0.00     0.028 C 
HETATM   23  C   UNL     1      -5.842  -4.832 -35.291  1.00  0.00     0.003 C 
HETATM   24  C   UNL     1      -4.684  -4.856 -34.301  1.00  0.00     0.028 C 
HETATM   25  C   UNL     1      -4.038  -3.485 -34.157  1.00  0.00     0.235 C 
ENDBRANCH  18  19
ENDBRANCH  15  18
ENDBRANCH  12  13
ENDBRANCH   6  12
BRANCH   1  26
HETATM   26  C   UNL     1      -1.969   5.156 -33.482  1.00  0.00     0.152 C 
HETATM   27  C   UNL     1      -1.274   5.355 -34.828  1.00  0.00     0.040 C 
BRANCH  26  28
HETATM   28  N   UNL     1      -1.560   6.164 -32.530  1.00  0.00    -0.349 N 
HETATM   29  C   UNL     1      -0.631   5.870 -31.557  1.00  0.00     0.222 C 
HETATM   30  O   UNL     1      -0.259   4.718 -31.354  1.00  0.00    -0.273 OA
HETATM   31  H   UNL     1      -1.729   7.135 -32.780  1.00  0.00     0.163 HD
BRANCH  29  32
HETATM   32  C   UNL     1      -0.119   7.083 -30.782  1.00  0.00     0.082 C 
HETATM   33  C   UNL     1      -1.265   8.010 -30.363  1.00  0.00     0.040 C 
HETATM   34  C   UNL     1      -2.039   7.433 -29.185  1.00  0.00     0.168 C 
HETATM   35  O   UNL     1      -1.164   7.171 -28.094  1.00  0.00    -0.391 OA
HETATM   36  C   UNL     1      -0.176   6.191 -28.410  1.00  0.00     0.168 C 
HETATM   37  C   UNL     1       0.706   6.665 -29.559  1.00  0.00     0.040 C 
ENDBRANCH  29  32
ENDBRANCH  26  28
ENDBRANCH   1  26
TORSDOF 7
ENDMDL
MODEL 2
REMARK VINA RESULT:      -8.9      1.808      2.414
REMARK  7 active torsions:
REMARK  status: ('A' for Active; 'I' for Inactive)
REMARK    1  A    between atoms: C_2  and  N_3 
REMARK    2  A    between atoms: C_2  and  C_12 
REMARK       I    between atoms: N_3  and  C_4 
REMARK    3  A    between atoms: C_4  and  C_5 
REMARK    4  A    between atoms: N_17  and  C_19 
REMARK    5  A    between atoms: C_19  and  C_20 
REMARK    6  A    between atoms: C_22  and  C_23 
REMARK    7  A    between atoms: C_23  and  N_24 
ROOT
HETATM    1  C   UNL     1      -4.656   4.750 -32.368  1.00  0.00     0.152 A 
HETATM    2  N   UNL     1      -6.025   4.657 -32.225  1.00  0.00    -0.317 N 
HETATM    3  C   UNL     1      -6.554   5.039 -33.432  1.00  0.00     0.131 A 
HETATM    4  C   UNL     1      -7.980   4.951 -33.835  1.00  0.00     0.108 C 
HETATM    5  C   UNL     1      -8.539   3.568 -33.525  1.00  0.00     0.243 C 
HETATM    6  N   UNL     1      -8.960   3.402 -32.064  1.00  0.00    -0.065 N 
HETATM    7  H   UNL     1      -9.939   3.719 -32.030  1.00  0.00     0.280 HD
HETATM    8  C   UNL     1      -8.240   4.288 -31.048  1.00  0.00     0.255 C 
HETATM    9  C   UNL     1      -6.715   4.161 -31.056  1.00  0.00     0.159 C 
HETATM   10  N   UNL     1      -5.577   5.405 -34.228  1.00  0.00    -0.135 NA
HETATM   11  N   UNL     1      -4.396   5.230 -33.566  1.00  0.00    -0.133 NA
ENDROOT
BRANCH   6  12
HETATM   12  C   UNL     1      -9.007   1.940 -31.632  1.00  0.00     0.280 C 
BRANCH  12  13
HETATM   13  C   UNL     1      -8.184   1.015 -32.486  1.00  0.00     0.009 A 
HETATM   14  S   UNL     1      -6.481   0.933 -32.274  1.00  0.00    -0.096 SA
HETATM   15  C   UNL     1      -6.296  -0.250 -33.501  1.00  0.00     0.009 A 
HETATM   16  C   UNL     1      -7.518  -0.583 -34.055  1.00  0.00     0.017 A 
HETATM   17  C   UNL     1      -8.603   0.134 -33.463  1.00  0.00     0.017 A 
BRANCH  15  18
HETATM   18  C   UNL     1      -4.933  -0.772 -33.860  1.00  0.00     0.280 C 
BRANCH  18  19
HETATM   19  N   UNL     1      -4.722  -2.229 -33.500  1.00  0.00    -0.067 N 
HETATM   20  H   UNL     1      -5.514  -2.499 -32.905  1.00  0.00     0.280 HD
HETATM   21  C   UNL     1      -4.723  -3.138 -34.709  1.00  0.00     0.235 C 
HETATM   22  C   UNL     1      -4.609  -4.589 -34.260  1.00  0.00     0.028 C 
HETATM   23  C   UNL     1      -3.375  -4.818 -33.398  1.00  0.00     0.003 C 
HETATM   24  C   UNL     1      -3.347  -3.854 -32.218  1.00  0.00     0.028 C 
HETATM   25  C   UNL     1      -3.464  -2.406 -32.672  1.00  0.00     0.235 C 
ENDBRANCH  18  19
ENDBRANCH  15  18
ENDBRANCH  12  13
ENDBRANCH   6  12
BRANCH   1  26
HETATM   26  C   UNL     1      -3.644   4.319 -31.353  1.00  0.00     0.152 C 
HETATM   27  C   UNL     1      -3.267   2.853 -31.558  1.00  0.00     0.040 C 
BRANCH  26  28
HETATM   28  N   UNL     1      -2.486   5.178 -31.472  1.00  0.00    -0.349 N 
HETATM   29  C   UNL     1      -2.312   6.238 -30.610  1.00  0.00     0.222 C 
HETATM   30  O   UNL     1      -3.201   6.593 -29.843  1.00  0.00    -0.273 OA
HETATM   31  H   UNL     1      -1.685   4.810 -31.978  1.00  0.00     0.163 HD
BRANCH  29  32
HETATM   32  C   UNL     1      -0.939   6.904 -30.695  1.00  0.00     0.082 C 
HETATM   33  C   UNL     1      -0.588   7.640 -29.398  1.00  0.00     0.040 C 
HETATM   34  C   UNL     1      -0.181   6.665 -28.301  1.00  0.00     0.168 C 
HETATM   35  O   UNL     1       0.900   5.848 -28.738  1.00  0.00    -0.391 OA
HETATM   36  C   UNL     1       0.550   5.032 -29.854  1.00  0.00     0.168 C 
HETATM   37  C   UNL     1       0.158   5.893 -31.050  1.00  0.00     0.040 C 
ENDBRANCH  29  32
ENDBRANCH  26  28
ENDBRANCH   1  26
TORSDOF 7
ENDMDL
MODEL 3
REMARK VINA RESULT:      -8.8      1.914      2.792
REMARK  7 active torsions:
REMARK  status: ('A' for Active; 'I' for Inactive)
REMARK    1  A    between atoms: C_2  and  N_3 
REMARK    2  A    between atoms: C_2  and  C_12 
REMARK       I    between atoms: N_3  and  C_4 
REMARK    3  A    between atoms: C_4  and  C_5 
REMARK    4  A    between atoms: N_17  and  C_19 
REMARK    5  A    between atoms: C_19  and  C_20 
REMARK    6  A    between atoms: C_22  and  C_23 
REMARK    7  A    between atoms: C_23  and  N_24 
ROOT
HETATM    1  C   UNL     1      -4.953   4.098 -32.499  1.00  0.00     0.152 A 
HETATM    2  N   UNL     1      -6.300   3.878 -32.303  1.00  0.00    -0.317 N 
HETATM    3  C   UNL     1      -6.919   4.291 -33.456  1.00  0.00     0.131 A 
HETATM    4  C   UNL     1      -8.351   4.107 -33.801  1.00  0.00     0.108 C 
HETATM    5  C   UNL     1      -8.776   2.663 -33.564  1.00  0.00     0.243 C 
HETATM    6  N   UNL     1      -9.109   2.365 -32.101  1.00  0.00    -0.065 N 
HETATM    7  H   UNL     1     -10.108   2.594 -32.002  1.00  0.00     0.280 HD
HETATM    8  C   UNL     1      -8.415   3.242 -31.058  1.00  0.00     0.255 C 
HETATM    9  C   UNL     1      -6.887   3.248 -31.142  1.00  0.00     0.159 C 
HETATM   10  N   UNL     1      -6.017   4.792 -34.266  1.00  0.00    -0.135 NA
HETATM   11  N   UNL     1      -4.794   4.677 -33.671  1.00  0.00    -0.133 NA
ENDROOT
BRANCH   6  12
HETATM   12  C   UNL     1      -9.012   0.879 -31.771  1.00  0.00     0.280 C 
BRANCH  12  13
HETATM   13  C   UNL     1      -7.630   0.303 -31.910  1.00  0.00     0.009 A 
HETATM   14  S   UNL     1      -6.873   0.241 -33.451  1.00  0.00    -0.096 SA
HETATM   15  C   UNL     1      -5.448  -0.474 -32.820  1.00  0.00     0.009 A 
HETATM   16  C   UNL     1      -5.547  -0.652 -31.454  1.00  0.00     0.017 A 
HETATM   17  C   UNL     1      -6.795  -0.194 -30.929  1.00  0.00     0.017 A 
BRANCH  15  18
HETATM   18  C   UNL     1      -4.308  -0.838 -33.731  1.00  0.00     0.280 C 
BRANCH  18  19
HETATM   19  N   UNL     1      -4.322  -2.285 -34.180  1.00  0.00    -0.067 N 
HETATM   20  H   UNL     1      -3.767  -2.327 -35.044  1.00  0.00     0.280 HD
HETATM   21  C   UNL     1      -3.683  -3.218 -33.176  1.00  0.00     0.235 C 
HETATM   22  C   UNL     1      -3.643  -4.631 -33.741  1.00  0.00     0.028 C 
HETATM   23  C   UNL     1      -5.030  -5.117 -34.143  1.00  0.00     0.003 C 
HETATM   24  C   UNL     1      -5.694  -4.139 -35.104  1.00  0.00     0.028 C 
HETATM   25  C   UNL     1      -5.728  -2.728 -34.536  1.00  0.00     0.235 C 
ENDBRANCH  18  19
ENDBRANCH  15  18
ENDBRANCH  12  13
ENDBRANCH   6  12
BRANCH   1  26
HETATM   26  C   UNL     1      -3.859   3.690 -31.562  1.00  0.00     0.152 C 
HETATM   27  C   UNL     1      -3.337   2.299 -31.917  1.00  0.00     0.040 C 
BRANCH  26  28
HETATM   28  N   UNL     1      -2.805   4.678 -31.637  1.00  0.00    -0.349 N 
HETATM   29  C   UNL     1      -2.803   5.762 -30.788  1.00  0.00     0.222 C 
HETATM   30  O   UNL     1      -3.769   6.021 -30.077  1.00  0.00    -0.273 OA
HETATM   31  H   UNL     1      -1.939   4.400 -32.092  1.00  0.00     0.163 HD
BRANCH  29  32
HETATM   32  C   UNL     1      -1.515   6.584 -30.813  1.00  0.00     0.082 C 
HETATM   33  C   UNL     1      -0.899   6.625 -32.215  1.00  0.00     0.040 C 
HETATM   34  C   UNL     1      -1.665   7.574 -33.128  1.00  0.00     0.168 C 
HETATM   35  O   UNL     1      -1.726   8.875 -32.554  1.00  0.00    -0.391 OA
HETATM   36  C   UNL     1      -2.434   8.893 -31.316  1.00  0.00     0.168 C 
HETATM   37  C   UNL     1      -1.743   8.006 -30.287  1.00  0.00     0.040 C 
ENDBRANCH  29  32
ENDBRANCH  26  28
ENDBRANCH   1  26
TORSDOF 7
ENDMDL
MODEL 4
REMARK VINA RESULT:      -8.6      3.809      5.689
REMARK  7 active torsions:
REMARK  status: ('A' for Active; 'I' for Inactive)
REMARK    1  A    between atoms: C_2  and  N_3 
REMARK    2  A    between atoms: C_2  and  C_12 
REMARK       I    between atoms: N_3  and  C_4 
REMARK    3  A    between atoms: C_4  and  C_5 
REMARK    4  A    between atoms: N_17  and  C_19 
REMARK    5  A    between atoms: C_19  and  C_20 
REMARK    6  A    between atoms: C_22  and  C_23 
REMARK    7  A    between atoms: C_23  and  N_24 
ROOT
HETATM    1  C   UNL     1      -4.631   4.343 -31.300  1.00  0.00     0.152 A 
HETATM    2  N   UNL     1      -4.783   2.974 -31.349  1.00  0.00    -0.317 N 
HETATM    3  C   UNL     1      -5.451   2.630 -30.201  1.00  0.00     0.131 A 
HETATM    4  C   UNL     1      -5.996   1.289 -29.868  1.00  0.00     0.108 C 
HETATM    5  C   UNL     1      -6.806   0.737 -31.034  1.00  0.00     0.243 C 
HETATM    6  N   UNL     1      -5.941   0.096 -32.119  1.00  0.00    -0.065 N 
HETATM    7  H   UNL     1      -5.834  -0.886 -31.830  1.00  0.00     0.280 HD
HETATM    8  C   UNL     1      -4.508   0.614 -32.235  1.00  0.00     0.255 C 
HETATM    9  C   UNL     1      -4.390   2.125 -32.451  1.00  0.00     0.159 C 
HETATM   10  N   UNL     1      -5.629   3.707 -29.474  1.00  0.00    -0.135 NA
HETATM   11  N   UNL     1      -5.115   4.774 -30.154  1.00  0.00    -0.133 NA
ENDROOT
BRANCH   6  12
HETATM   12  C   UNL     1      -6.649   0.031 -33.469  1.00  0.00     0.280 C 
BRANCH  12  13
HETATM   13  C   UNL     1      -8.110   0.384 -33.418  1.00  0.00     0.009 A 
HETATM   14  S   UNL     1      -8.650   1.912 -33.987  1.00  0.00    -0.096 SA
HETATM   15  C   UNL     1     -10.290   1.564 -33.633  1.00  0.00     0.009 A 
HETATM   16  C   UNL     1     -10.423   0.297 -33.098  1.00  0.00     0.017 A 
HETATM   17  C   UNL     1      -9.173  -0.386 -32.987  1.00  0.00     0.017 A 
BRANCH  15  18
HETATM   18  C   UNL     1     -11.362   2.588 -33.891  1.00  0.00     0.280 C 
BRANCH  18  19
HETATM   19  N   UNL     1     -12.596   2.412 -33.028  1.00  0.00    -0.067 N 
HETATM   20  H   UNL     1     -12.356   1.711 -32.317  1.00  0.00     0.280 HD
HETATM   21  C   UNL     1     -12.993   3.682 -32.308  1.00  0.00     0.235 C 
HETATM   22  C   UNL     1     -14.173   3.401 -31.387  1.00  0.00     0.028 C 
HETATM   23  C   UNL     1     -15.351   2.804 -32.146  1.00  0.00     0.003 C 
HETATM   24  C   UNL     1     -14.928   1.563 -32.921  1.00  0.00     0.028 C 
HETATM   25  C   UNL     1     -13.747   1.848 -33.838  1.00  0.00     0.235 C 
ENDBRANCH  18  19
ENDBRANCH  15  18
ENDBRANCH  12  13
ENDBRANCH   6  12
BRANCH   1  26
HETATM   26  C   UNL     1      -4.066   5.196 -32.393  1.00  0.00     0.152 C 
HETATM   27  C   UNL     1      -5.158   6.062 -33.018  1.00  0.00     0.040 C 
BRANCH  26  28
HETATM   28  N   UNL     1      -3.010   6.011 -31.835  1.00  0.00    -0.349 N 
HETATM   29  C   UNL     1      -1.711   5.554 -31.816  1.00  0.00     0.222 C 
HETATM   30  O   UNL     1      -1.437   4.392 -32.101  1.00  0.00    -0.273 OA
HETATM   31  H   UNL     1      -3.188   7.008 -31.749  1.00  0.00     0.163 HD
BRANCH  29  32
HETATM   32  C   UNL     1      -0.674   6.606 -31.425  1.00  0.00     0.082 C 
HETATM   33  C   UNL     1      -1.232   7.590 -30.392  1.00  0.00     0.040 C 
HETATM   34  C   UNL     1      -1.295   6.961 -29.006  1.00  0.00     0.168 C 
HETATM   35  O   UNL     1      -0.012   6.481 -28.619  1.00  0.00    -0.391 OA
HETATM   36  C   UNL     1       0.466   5.448 -29.479  1.00  0.00     0.168 C 
HETATM   37  C   UNL     1       0.616   5.961 -30.906  1.00  0.00     0.040 C 
ENDBRANCH  29  32
ENDBRANCH  26  28
ENDBRANCH   1  26
TORSDOF 7
ENDMDL
MODEL 5
REMARK VINA RESULT:      -8.4      3.211      9.527
REMARK  7 active torsions:
REMARK  status: ('A' for Active; 'I' for Inactive)
REMARK    1  A    between atoms: C_2  and  N_3 
REMARK    2  A    between atoms: C_2  and  C_12 
REMARK       I    between atoms: N_3  and  C_4 
REMARK    3  A    between atoms: C_4  and  C_5 
REMARK    4  A    between atoms: N_17  and  C_19 
REMARK    5  A    between atoms: C_19  and  C_20 
REMARK    6  A    between atoms: C_22  and  C_23 
REMARK    7  A    between atoms: C_23  and  N_24 
ROOT
HETATM    1  C   UNL     1      -5.059   4.661 -33.405  1.00  0.00     0.152 A 
HETATM    2  N   UNL     1      -3.728   4.970 -33.218  1.00  0.00    -0.317 N 
HETATM    3  C   UNL     1      -3.238   5.285 -34.461  1.00  0.00     0.131 A 
HETATM    4  C   UNL     1      -1.896   5.843 -34.762  1.00  0.00     0.108 C 
HETATM    5  C   UNL     1      -1.595   7.030 -33.855  1.00  0.00     0.243 C 
HETATM    6  N   UNL     1      -1.093   6.619 -32.471  1.00  0.00    -0.065 N 
HETATM    7  H   UNL     1      -0.072   6.536 -32.571  1.00  0.00     0.280 HD
HETATM    8  C   UNL     1      -1.537   5.244 -31.972  1.00  0.00     0.255 C 
HETATM    9  C   UNL     1      -3.052   5.032 -31.942  1.00  0.00     0.159 C 
HETATM   10  N   UNL     1      -4.188   5.109 -35.349  1.00  0.00    -0.135 NA
HETATM   11  N   UNL     1      -5.320   4.717 -34.695  1.00  0.00    -0.133 NA
ENDROOT
BRANCH   6  12
HETATM   12  C   UNL     1      -1.297   7.711 -31.426  1.00  0.00     0.280 C 
BRANCH  12  13
HETATM   13  C   UNL     1      -0.780   7.363 -30.058  1.00  0.00     0.009 A 
HETATM   14  S   UNL     1      -1.877   7.075 -28.768  1.00  0.00    -0.096 SA
HETATM   15  C   UNL     1      -0.617   6.757 -27.649  1.00  0.00     0.009 A 
HETATM   16  C   UNL     1       0.620   6.859 -28.256  1.00  0.00     0.017 A 
HETATM   17  C   UNL     1       0.527   7.195 -29.642  1.00  0.00     0.017 A 
BRANCH  15  18
HETATM   18  C   UNL     1      -0.932   6.438 -26.214  1.00  0.00     0.280 C 
BRANCH  18  19
HETATM   19  N   UNL     1      -1.348   7.645 -25.396  1.00  0.00    -0.067 N 
HETATM   20  H   UNL     1      -1.002   7.483 -24.442  1.00  0.00     0.280 HD
HETATM   21  C   UNL     1      -0.732   8.933 -25.897  1.00  0.00     0.235 C 
HETATM   22  C   UNL     1      -1.112  10.078 -24.968  1.00  0.00     0.028 C 
HETATM   23  C   UNL     1      -2.623  10.208 -24.821  1.00  0.00     0.003 C 
HETATM   24  C   UNL     1      -3.244   8.888 -24.380  1.00  0.00     0.028 C 
HETATM   25  C   UNL     1      -2.858   7.747 -25.310  1.00  0.00     0.235 C 
ENDBRANCH  18  19
ENDBRANCH  15  18
ENDBRANCH  12  13
ENDBRANCH   6  12
BRANCH   1  26
HETATM   26  C   UNL     1      -6.046   4.372 -32.318  1.00  0.00     0.152 C 
HETATM   27  C   UNL     1      -7.197   5.375 -32.356  1.00  0.00     0.040 C 
BRANCH  26  28
HETATM   28  N   UNL     1      -6.528   3.019 -32.489  1.00  0.00    -0.349 N 
HETATM   29  C   UNL     1      -6.006   1.991 -31.735  1.00  0.00     0.222 C 
HETATM   30  O   UNL     1      -5.010   2.152 -31.037  1.00  0.00    -0.273 OA
HETATM   31  H   UNL     1      -7.436   2.901 -32.930  1.00  0.00     0.163 HD
BRANCH  29  32
HETATM   32  C   UNL     1      -6.769   0.673 -31.846  1.00  0.00     0.082 C 
HETATM   33  C   UNL     1      -7.287   0.438 -33.269  1.00  0.00     0.040 C 
HETATM   34  C   UNL     1      -6.163   0.005 -34.202  1.00  0.00     0.168 C 
HETATM   35  O   UNL     1      -5.513  -1.154 -33.693  1.00  0.00    -0.391 OA
HETATM   36  C   UNL     1      -4.886  -0.919 -32.434  1.00  0.00     0.168 C 
HETATM   37  C   UNL     1      -5.915  -0.514 -31.385  1.00  0.00     0.040 C 
ENDBRANCH  29  32
ENDBRANCH  26  28
ENDBRANCH   1  26
TORSDOF 7
ENDMDL
MODEL 6
REMARK VINA RESULT:      -8.3      2.369      4.106
REMARK  7 active torsions:
REMARK  status: ('A' for Active; 'I' for Inactive)
REMARK    1  A    between atoms: C_2  and  N_3 
REMARK    2  A    between atoms: C_2  and  C_12 
REMARK       I    between atoms: N_3  and  C_4 
REMARK    3  A    between atoms: C_4  and  C_5 
REMARK    4  A    between atoms: N_17  and  C_19 
REMARK    5  A    between atoms: C_19  and  C_20 
REMARK    6  A    between atoms: C_22  and  C_23 
REMARK    7  A    between atoms: C_23  and  N_24 
ROOT
HETATM    1  C   UNL     1      -0.569   6.338 -29.804  1.00  0.00     0.152 A 
HETATM    2  N   UNL     1      -1.653   5.999 -30.586  1.00  0.00    -0.317 N 
HETATM    3  C   UNL     1      -1.160   5.193 -31.581  1.00  0.00     0.131 A 
HETATM    4  C   UNL     1      -1.959   4.439 -32.579  1.00  0.00     0.108 C 
HETATM    5  C   UNL     1      -3.075   3.662 -31.893  1.00  0.00     0.243 C 
HETATM    6  N   UNL     1      -4.304   4.518 -31.584  1.00  0.00    -0.065 N 
HETATM    7  H   UNL     1      -4.889   4.461 -32.429  1.00  0.00     0.280 HD
HETATM    8  C   UNL     1      -4.055   6.015 -31.397  1.00  0.00     0.255 C 
HETATM    9  C   UNL     1      -3.026   6.362 -30.319  1.00  0.00     0.159 C 
HETATM   10  N   UNL     1       0.143   5.108 -31.452  1.00  0.00    -0.135 NA
HETATM   11  N   UNL     1       0.513   5.822 -30.350  1.00  0.00    -0.133 NA
ENDROOT
BRANCH   6  12
HETATM   12  C   UNL     1      -5.163   3.927 -30.471  1.00  0.00     0.280 C 
BRANCH  12  13
HETATM   13  C   UNL     1      -5.746   2.578 -30.790  1.00  0.00     0.009 A 
HETATM   14  S   UNL     1      -6.361   2.253 -32.361  1.00  0.00    -0.096 SA
HETATM   15  C   UNL     1      -6.792   0.644 -31.957  1.00  0.00     0.009 A 
HETATM   16  C   UNL     1      -6.462   0.358 -30.646  1.00  0.00     0.017 A 
HETATM   17  C   UNL     1      -5.850   1.464 -29.979  1.00  0.00     0.017 A 
BRANCH  15  18
HETATM   18  C   UNL     1      -7.458  -0.246 -32.969  1.00  0.00     0.280 C 
BRANCH  18  19
HETATM   19  N   UNL     1      -6.624  -1.447 -33.369  1.00  0.00    -0.067 N 
HETATM   20  H   UNL     1      -6.557  -2.044 -32.536  1.00  0.00     0.280 HD
HETATM   21  C   UNL     1      -7.263  -2.264 -34.471  1.00  0.00     0.235 C 
HETATM   22  C   UNL     1      -6.422  -3.503 -34.744  1.00  0.00     0.028 C 
HETATM   23  C   UNL     1      -4.982  -3.143 -35.087  1.00  0.00     0.003 C 
HETATM   24  C   UNL     1      -4.366  -2.266 -34.004  1.00  0.00     0.028 C 
HETATM   25  C   UNL     1      -5.213  -1.030 -33.732  1.00  0.00     0.235 C 
ENDBRANCH  18  19
ENDBRANCH  15  18
ENDBRANCH  12  13
ENDBRANCH   6  12
BRANCH   1  26
HETATM   26  C   UNL     1      -0.627   7.109 -28.522  1.00  0.00     0.152 C 
HETATM   27  C   UNL     1       0.715   7.044 -27.795  1.00  0.00     0.040 C 
BRANCH  26  28
HETATM   28  N   UNL     1      -0.989   8.475 -28.828  1.00  0.00    -0.349 N 
HETATM   29  C   UNL     1      -1.761   9.205 -27.952  1.00  0.00     0.222 C 
HETATM   30  O   UNL     1      -2.307   8.679 -26.988  1.00  0.00    -0.273 OA
HETATM   31  H   UNL     1      -0.425   8.961 -29.520  1.00  0.00     0.163 HD
BRANCH  29  32
HETATM   32  C   UNL     1      -1.862  10.693 -28.285  1.00  0.00     0.082 C 
HETATM   33  C   UNL     1      -2.244  10.918 -29.751  1.00  0.00     0.040 C 
HETATM   34  C   UNL     1      -3.724  10.643 -29.986  1.00  0.00     0.168 C 
HETATM   35  O   UNL     1      -4.522  11.439 -29.117  1.00  0.00    -0.391 OA
HETATM   36  C   UNL     1      -4.297  11.138 -27.741  1.00  0.00     0.168 C 
HETATM   37  C   UNL     1      -2.848  11.413 -27.358  1.00  0.00     0.040 C 
ENDBRANCH  29  32
ENDBRANCH  26  28
ENDBRANCH   1  26
TORSDOF 7
ENDMDL
MODEL 7
REMARK VINA RESULT:      -8.3      3.217      5.475
REMARK  7 active torsions:
REMARK  status: ('A' for Active; 'I' for Inactive)
REMARK    1  A    between atoms: C_2  and  N_3 
REMARK    2  A    between atoms: C_2  and  C_12 
REMARK       I    between atoms: N_3  and  C_4 
REMARK    3  A    between atoms: C_4  and  C_5 
REMARK    4  A    between atoms: N_17  and  C_19 
REMARK    5  A    between atoms: C_19  and  C_20 
REMARK    6  A    between atoms: C_22  and  C_23 
REMARK    7  A    between atoms: C_23  and  N_24 
ROOT
HETATM    1  C   UNL     1      -0.179   6.251 -28.799  1.00  0.00     0.152 A 
HETATM    2  N   UNL     1      -0.674   6.539 -30.053  1.00  0.00    -0.317 N 
HETATM    3  C   UNL     1      -0.191   5.557 -30.881  1.00  0.00     0.131 A 
HETATM    4  C   UNL     1      -0.575   5.333 -32.298  1.00  0.00     0.108 C 
HETATM    5  C   UNL     1      -2.091   5.331 -32.447  1.00  0.00     0.243 C 
HETATM    6  N   UNL     1      -2.691   6.735 -32.525  1.00  0.00    -0.065 N 
HETATM    7  H   UNL     1      -2.670   6.979 -33.526  1.00  0.00     0.280 HD
HETATM    8  C   UNL     1      -1.893   7.850 -31.849  1.00  0.00     0.255 C 
HETATM    9  C   UNL     1      -1.590   7.612 -30.368  1.00  0.00     0.159 C 
HETATM   10  N   UNL     1       0.598   4.769 -30.190  1.00  0.00    -0.135 NA
HETATM   11  N   UNL     1       0.611   5.202 -28.896  1.00  0.00    -0.133 NA
ENDROOT
BRANCH   6  12
HETATM   12  C   UNL     1      -4.168   6.763 -32.145  1.00  0.00     0.280 C 
BRANCH  12  13
HETATM   13  C   UNL     1      -4.960   5.591 -32.658  1.00  0.00     0.009 A 
HETATM   14  S   UNL     1      -5.652   4.470 -31.556  1.00  0.00    -0.096 SA
HETATM   15  C   UNL     1      -6.341   3.527 -32.811  1.00  0.00     0.009 A 
HETATM   16  C   UNL     1      -6.055   4.067 -34.050  1.00  0.00     0.017 A 
HETATM   17  C   UNL     1      -5.272   5.260 -33.962  1.00  0.00     0.017 A 
BRANCH  15  18
HETATM   18  C   UNL     1      -7.119   2.280 -32.491  1.00  0.00     0.280 C 
BRANCH  18  19
HETATM   19  N   UNL     1      -6.712   1.076 -33.316  1.00  0.00    -0.067 N 
HETATM   20  H   UNL     1      -5.848   1.339 -33.808  1.00  0.00     0.280 HD
HETATM   21  C   UNL     1      -6.408  -0.140 -32.469  1.00  0.00     0.235 C 
HETATM   22  C   UNL     1      -5.909  -1.272 -33.358  1.00  0.00     0.028 C 
HETATM   23  C   UNL     1      -6.904  -1.602 -34.463  1.00  0.00     0.003 C 
HETATM   24  C   UNL     1      -7.256  -0.359 -35.270  1.00  0.00     0.028 C 
HETATM   25  C   UNL     1      -7.750   0.770 -34.378  1.00  0.00     0.235 C 
ENDBRANCH  18  19
ENDBRANCH  15  18
ENDBRANCH  12  13
ENDBRANCH   6  12
BRANCH   1  26
HETATM   26  C   UNL     1      -0.532   6.974 -27.537  1.00  0.00     0.152 C 
HETATM   27  C   UNL     1      -0.633   5.997 -26.367  1.00  0.00     0.040 C 
BRANCH  26  28
HETATM   28  N   UNL     1       0.478   7.980 -27.291  1.00  0.00    -0.349 N 
HETATM   29  C   UNL     1       0.126   9.303 -27.149  1.00  0.00     0.222 C 
HETATM   30  O   UNL     1      -1.010   9.694 -27.401  1.00  0.00    -0.273 OA
HETATM   31  H   UNL     1       1.372   7.661 -26.927  1.00  0.00     0.163 HD
BRANCH  29  32
HETATM   32  C   UNL     1       1.252  10.210 -26.657  1.00  0.00     0.082 C 
HETATM   33  C   UNL     1       0.720  11.569 -26.191  1.00  0.00     0.040 C 
HETATM   34  C   UNL     1       0.047  11.463 -24.829  1.00  0.00     0.168 C 
HETATM   35  O   UNL     1       0.944  10.906 -23.873  1.00  0.00    -0.391 OA
HETATM   36  C   UNL     1       1.335   9.575 -24.204  1.00  0.00     0.168 C 
HETATM   37  C   UNL     1       2.066   9.544 -25.541  1.00  0.00     0.040 C 
ENDBRANCH  29  32
ENDBRANCH  26  28
ENDBRANCH   1  26
TORSDOF 7
ENDMDL
MODEL 8
REMARK VINA RESULT:      -8.3      2.233      3.798
REMARK  7 active torsions:
REMARK  status: ('A' for Active; 'I' for Inactive)
REMARK    1  A    between atoms: C_2  and  N_3 
REMARK    2  A    between atoms: C_2  and  C_12 
REMARK       I    between atoms: N_3  and  C_4 
REMARK    3  A    between atoms: C_4  and  C_5 
REMARK    4  A    between atoms: N_17  and  C_19 
REMARK    5  A    between atoms: C_19  and  C_20 
REMARK    6  A    between atoms: C_22  and  C_23 
REMARK    7  A    between atoms: C_23  and  N_24 
ROOT
HETATM    1  C   UNL     1      -0.885   5.627 -30.933  1.00  0.00     0.152 A 
HETATM    2  N   UNL     1      -2.144   6.107 -31.225  1.00  0.00    -0.317 N 
HETATM    3  C   UNL     1      -2.375   5.780 -32.537  1.00  0.00     0.131 A 
HETATM    4  C   UNL     1      -3.657   5.935 -33.271  1.00  0.00     0.108 C 
HETATM    5  C   UNL     1      -4.809   5.355 -32.461  1.00  0.00     0.243 C 
HETATM    6  N   UNL     1      -5.330   6.309 -31.385  1.00  0.00    -0.065 N 
HETATM    7  H   UNL     1      -6.049   6.876 -31.856  1.00  0.00     0.280 HD
HETATM    8  C   UNL     1      -4.331   7.334 -30.850  1.00  0.00     0.255 C 
HETATM    9  C   UNL     1      -3.042   6.735 -30.282  1.00  0.00     0.159 C 
HETATM   10  N   UNL     1      -1.302   5.204 -33.027  1.00  0.00    -0.135 NA
HETATM   11  N   UNL     1      -0.373   5.112 -32.031  1.00  0.00    -0.133 NA
ENDROOT
BRANCH   6  12
HETATM   12  C   UNL     1      -6.074   5.582 -30.269  1.00  0.00     0.280 C 
BRANCH  12  13
HETATM   13  C   UNL     1      -6.856   4.381 -30.727  1.00  0.00     0.009 A 
HETATM   14  S   UNL     1      -6.195   2.805 -30.555  1.00  0.00    -0.096 SA
HETATM   15  C   UNL     1      -7.577   2.055 -31.237  1.00  0.00     0.009 A 
HETATM   16  C   UNL     1      -8.531   2.994 -31.579  1.00  0.00     0.017 A 
HETATM   17  C   UNL     1      -8.122   4.329 -31.275  1.00  0.00     0.017 A 
BRANCH  15  18
HETATM   18  C   UNL     1      -7.630   0.562 -31.411  1.00  0.00     0.280 C 
BRANCH  18  19
HETATM   19  N   UNL     1      -6.884   0.063 -32.633  1.00  0.00    -0.067 N 
HETATM   20  H   UNL     1      -6.538   0.897 -33.124  1.00  0.00     0.280 HD
HETATM   21  C   UNL     1      -5.687  -0.793 -32.280  1.00  0.00     0.235 C 
HETATM   22  C   UNL     1      -4.935  -1.170 -33.549  1.00  0.00     0.028 C 
HETATM   23  C   UNL     1      -5.839  -1.871 -34.555  1.00  0.00     0.003 C 
HETATM   24  C   UNL     1      -7.074  -1.032 -34.855  1.00  0.00     0.028 C 
HETATM   25  C   UNL     1      -7.822  -0.655 -33.584  1.00  0.00     0.235 C 
ENDBRANCH  18  19
ENDBRANCH  15  18
ENDBRANCH  12  13
ENDBRANCH   6  12
BRANCH   1  26
HETATM   26  C   UNL     1      -0.241   5.638 -29.582  1.00  0.00     0.152 C 
HETATM   27  C   UNL     1       0.972   4.709 -29.557  1.00  0.00     0.040 C 
BRANCH  26  28
HETATM   28  N   UNL     1       0.137   6.999 -29.269  1.00  0.00    -0.349 N 
HETATM   29  C   UNL     1      -0.325   7.605 -28.122  1.00  0.00     0.222 C 
HETATM   30  O   UNL     1      -1.199   7.089 -27.433  1.00  0.00    -0.273 OA
HETATM   31  H   UNL     1       0.965   7.368 -29.729  1.00  0.00     0.163 HD
BRANCH  29  32
HETATM   32  C   UNL     1       0.342   8.941 -27.799  1.00  0.00     0.082 C 
HETATM   33  C   UNL     1      -0.437   9.718 -26.733  1.00  0.00     0.040 C 
HETATM   34  C   UNL     1      -0.211   9.132 -25.345  1.00  0.00     0.168 C 
HETATM   35  O   UNL     1       1.179   9.095 -25.042  1.00  0.00    -0.391 OA
HETATM   36  C   UNL     1       1.909   8.250 -25.929  1.00  0.00     0.168 C 
HETATM   37  C   UNL     1       1.800   8.753 -27.364  1.00  0.00     0.040 C 
ENDBRANCH  29  32
ENDBRANCH  26  28
ENDBRANCH   1  26
TORSDOF 7
ENDMDL
MODEL 9
REMARK VINA RESULT:      -8.3      2.168      3.154
REMARK  7 active torsions:
REMARK  status: ('A' for Active; 'I' for Inactive)
REMARK    1  A    between atoms: C_2  and  N_3 
REMARK    2  A    between atoms: C_2  and  C_12 
REMARK       I    between atoms: N_3  and  C_4 
REMARK    3  A    between atoms: C_4  and  C_5 
REMARK    4  A    between atoms: N_17  and  C_19 
REMARK    5  A    between atoms: C_19  and  C_20 
REMARK    6  A    between atoms: C_22  and  C_23 
REMARK    7  A    between atoms: C_23  and  N_24 
ROOT
HETATM    1  C   UNL     1      -4.969   5.835 -30.785  1.00  0.00     0.152 A 
HETATM    2  N   UNL     1      -6.067   5.086 -30.418  1.00  0.00    -0.317 N 
HETATM    3  C   UNL     1      -6.764   5.856 -29.521  1.00  0.00     0.131 A 
HETATM    4  C   UNL     1      -8.106   5.558 -28.962  1.00  0.00     0.108 C 
HETATM    5  C   UNL     1      -9.078   5.187 -30.075  1.00  0.00     0.243 C 
HETATM    6  N   UNL     1      -8.959   3.728 -30.517  1.00  0.00    -0.065 N 
HETATM    7  H   UNL     1      -9.593   3.208 -29.895  1.00  0.00     0.280 HD
HETATM    8  C   UNL     1      -7.597   3.067 -30.306  1.00  0.00     0.255 C 
HETATM    9  C   UNL     1      -6.423   3.796 -30.965  1.00  0.00     0.159 C 
HETATM   10  N   UNL     1      -6.097   6.966 -29.306  1.00  0.00    -0.135 NA
HETATM   11  N   UNL     1      -4.978   6.953 -30.088  1.00  0.00    -0.133 NA
ENDROOT
BRANCH   6  12
HETATM   12  C   UNL     1      -9.508   3.496 -31.921  1.00  0.00     0.280 C 
BRANCH  12  13
HETATM   13  C   UNL     1      -9.154   2.159 -32.511  1.00  0.00     0.009 A 
HETATM   14  S   UNL     1      -8.194   2.070 -33.933  1.00  0.00    -0.096 SA
HETATM   15  C   UNL     1      -8.223   0.356 -33.953  1.00  0.00     0.009 A 
HETATM   16  C   UNL     1      -8.945  -0.139 -32.884  1.00  0.00     0.017 A 
HETATM   17  C   UNL     1      -9.470   0.896 -32.048  1.00  0.00     0.017 A 
BRANCH  15  18
HETATM   18  C   UNL     1      -7.535  -0.407 -35.050  1.00  0.00     0.280 C 
BRANCH  18  19
HETATM   19  N   UNL     1      -6.146  -0.889 -34.682  1.00  0.00    -0.067 N 
HETATM   20  H   UNL     1      -5.499  -0.446 -35.346  1.00  0.00     0.280 HD
HETATM   21  C   UNL     1      -5.731  -0.473 -33.288  1.00  0.00     0.235 C 
HETATM   22  C   UNL     1      -4.293  -0.902 -33.030  1.00  0.00     0.028 C 
HETATM   23  C   UNL     1      -4.106  -2.400 -33.239  1.00  0.00     0.003 C 
HETATM   24  C   UNL     1      -4.586  -2.822 -34.622  1.00  0.00     0.028 C 
HETATM   25  C   UNL     1      -6.023  -2.388 -34.875  1.00  0.00     0.235 C 
ENDBRANCH  18  19
ENDBRANCH  15  18
ENDBRANCH  12  13
ENDBRANCH   6  12
BRANCH   1  26
HETATM   26  C   UNL     1      -3.975   5.464 -31.840  1.00  0.00     0.152 C 
HETATM   27  C   UNL     1      -4.434   5.958 -33.210  1.00  0.00     0.040 C 
BRANCH  26  28
HETATM   28  N   UNL     1      -2.695   6.035 -31.481  1.00  0.00    -0.349 N 
HETATM   29  C   UNL     1      -1.561   5.254 -31.465  1.00  0.00     0.222 C 
HETATM   30  O   UNL     1      -1.623   4.033 -31.576  1.00  0.00    -0.273 OA
HETATM   31  H   UNL     1      -2.603   7.046 -31.546  1.00  0.00     0.163 HD
BRANCH  29  32
HETATM   32  C   UNL     1      -0.257   6.033 -31.307  1.00  0.00     0.082 C 
HETATM   33  C   UNL     1      -0.397   7.166 -30.286  1.00  0.00     0.040 C 
HETATM   34  C   UNL     1      -0.390   6.630 -28.860  1.00  0.00     0.168 C 
HETATM   35  O   UNL     1       0.787   5.865 -28.622  1.00  0.00    -0.391 OA
HETATM   36  C   UNL     1       0.865   4.712 -29.458  1.00  0.00     0.168 C 
HETATM   37  C   UNL     1       0.909   5.112 -30.928  1.00  0.00     0.040 C 
ENDBRANCH  29  32
ENDBRANCH  26  28
ENDBRANCH   1  26
TORSDOF 7
ENDMDL
MODEL 10
REMARK VINA RESULT:      -8.2      4.553      7.475
REMARK  7 active torsions:
REMARK  status: ('A' for Active; 'I' for Inactive)
REMARK    1  A    between atoms: C_2  and  N_3 
REMARK    2  A    between atoms: C_2  and  C_12 
REMARK       I    between atoms: N_3  and  C_4 
REMARK    3  A    between atoms: C_4  and  C_5 
REMARK    4  A    between atoms: N_17  and  C_19 
REMARK    5  A    between atoms: C_19  and  C_20 
REMARK    6  A    between atoms: C_22  and  C_23 
REMARK    7  A    between atoms: C_23  and  N_24 
ROOT
HETATM    1  C   UNL     1      -4.717   1.717 -32.653  1.00  0.00     0.152 A 
HETATM    2  N   UNL     1      -5.817   1.307 -33.375  1.00  0.00    -0.317 N 
HETATM    3  C   UNL     1      -5.635  -0.033 -33.608  1.00  0.00     0.131 A 
HETATM    4  C   UNL     1      -6.624  -0.965 -34.205  1.00  0.00     0.108 C 
HETATM    5  C   UNL     1      -7.979  -0.814 -33.524  1.00  0.00     0.243 C 
HETATM    6  N   UNL     1      -8.794   0.364 -34.057  1.00  0.00    -0.065 N 
HETATM    7  H   UNL     1      -9.324  -0.016 -34.854  1.00  0.00     0.280 HD
HETATM    8  C   UNL     1      -7.996   1.523 -34.654  1.00  0.00     0.255 C 
HETATM    9  C   UNL     1      -6.954   2.133 -33.713  1.00  0.00     0.159 C 
HETATM   10  N   UNL     1      -4.471  -0.394 -33.121  1.00  0.00    -0.135 NA
HETATM   11  N   UNL     1      -3.896   0.694 -32.531  1.00  0.00    -0.133 NA
ENDROOT
BRANCH   6  12
HETATM   12  C   UNL     1      -9.856   0.835 -33.069  1.00  0.00     0.280 C 
BRANCH  12  13
HETATM   13  C   UNL     1     -10.899   1.740 -33.666  1.00  0.00     0.009 A 
HETATM   14  S   UNL     1     -11.136   3.319 -33.033  1.00  0.00    -0.096 SA
HETATM   15  C   UNL     1     -12.375   3.681 -34.161  1.00  0.00     0.009 A 
HETATM   16  C   UNL     1     -12.596   2.616 -35.013  1.00  0.00     0.017 A 
HETATM   17  C   UNL     1     -11.739   1.505 -34.737  1.00  0.00     0.017 A 
BRANCH  15  18
HETATM   18  C   UNL     1     -13.078   5.010 -34.124  1.00  0.00     0.280 C 
BRANCH  18  19
HETATM   19  N   UNL     1     -12.724   5.921 -35.283  1.00  0.00    -0.067 N 
HETATM   20  H   UNL     1     -12.358   5.316 -36.027  1.00  0.00     0.280 HD
HETATM   21  C   UNL     1     -13.924   6.658 -35.837  1.00  0.00     0.235 C 
HETATM   22  C   UNL     1     -13.508   7.470 -37.056  1.00  0.00     0.028 C 
HETATM   23  C   UNL     1     -12.370   8.430 -36.734  1.00  0.00     0.003 C 
HETATM   24  C   UNL     1     -11.191   7.690 -36.116  1.00  0.00     0.028 C 
HETATM   25  C   UNL     1     -11.612   6.877 -34.899  1.00  0.00     0.235 C 
ENDBRANCH  18  19
ENDBRANCH  15  18
ENDBRANCH  12  13
ENDBRANCH   6  12
BRANCH   1  26
HETATM   26  C   UNL     1      -4.522   3.077 -32.059  1.00  0.00     0.152 C 
HETATM   27  C   UNL     1      -4.830   3.060 -30.563  1.00  0.00     0.040 C 
BRANCH  26  28
HETATM   28  N   UNL     1      -3.158   3.491 -32.307  1.00  0.00    -0.349 N 
HETATM   29  C   UNL     1      -2.875   4.404 -33.298  1.00  0.00     0.222 C 
HETATM   30  O   UNL     1      -3.727   4.755 -34.108  1.00  0.00    -0.273 OA
HETATM   31  H   UNL     1      -2.484   3.340 -31.561  1.00  0.00     0.163 HD
BRANCH  29  32
HETATM   32  C   UNL     1      -1.439   4.927 -33.286  1.00  0.00     0.082 C 
HETATM   33  C   UNL     1      -1.274   6.144 -34.202  1.00  0.00     0.040 C 
HETATM   34  C   UNL     1      -1.863   7.397 -33.568  1.00  0.00     0.168 C 
HETATM   35  O   UNL     1      -1.279   7.630 -32.291  1.00  0.00    -0.391 OA
HETATM   36  C   UNL     1      -1.550   6.579 -31.367  1.00  0.00     0.168 C 
HETATM   37  C   UNL     1      -0.971   5.260 -31.865  1.00  0.00     0.040 C 
ENDBRANCH  29  32
ENDBRANCH  26  28
ENDBRANCH   1  26
TORSDOF 7
ENDMDL
