MODEL 1
REMARK VINA RESULT:     -10.2      0.000      0.000
REMARK  6 active torsions:
REMARK  status: ('A' for Active; 'I' for Inactive)
REMARK    1  A    between atoms: C_2  and  N_3 
REMARK    2  A    between atoms: C_11  and  C_12 
REMARK    3  A    between atoms: C_14  and  C_15 
REMARK    4  A    between atoms: C_15  and  O_16 
REMARK    5  A    between atoms: O_16  and  C_17 
REMARK    6  A    between atoms: C_19  and  C_20 
ROOT
HETATM    1  N   UNL     1      -4.815  -2.557 -34.399  1.00  0.00    -0.067 N 
HETATM    2  H   UNL     1      -4.090  -2.202 -35.036  1.00  0.00     0.280 HD
HETATM    3  C   UNL     1      -5.974  -1.564 -34.477  1.00  0.00     0.281 C 
HETATM    4  C   UNL     1      -5.633  -0.284 -33.791  1.00  0.00     0.018 A 
HETATM    5  C   UNL     1      -4.561  -0.096 -32.939  1.00  0.00    -0.023 A 
HETATM    6  C   UNL     1      -4.549   1.232 -32.406  1.00  0.00     0.073 A 
HETATM    7  C   UNL     1      -5.612   1.975 -32.862  1.00  0.00     0.088 A 
HETATM    8  N   UNL     1      -5.849   3.242 -32.469  1.00  0.00    -0.357 N 
HETATM    9  C   UNL     1      -4.797   3.993 -31.805  1.00  0.00     0.243 C 
HETATM   10  N   UNL     1      -3.939   3.102 -31.064  1.00  0.00    -0.330 N 
HETATM   11  C   UNL     1      -3.625   1.833 -31.462  1.00  0.00     0.256 C 
HETATM   12  O   UNL     1      -2.652   1.233 -31.018  1.00  0.00    -0.267 OA
HETATM   13  S   UNL     1      -6.596   1.111 -33.946  1.00  0.00    -0.074 SA
HETATM   14  C   UNL     1      -3.592  -1.200 -32.650  1.00  0.00     0.068 C 
HETATM   15  C   UNL     1      -4.189  -2.574 -33.000  1.00  0.00     0.240 C 
HETATM   16  H   UNL     1      -6.539   3.811 -32.951  1.00  0.00     0.162 HD
HETATM   17  H   UNL     1      -3.238   3.541 -30.484  1.00  0.00     0.165 HD
ENDROOT
BRANCH   9  18
HETATM   18  C   UNL     1      -3.946   4.851 -32.685  1.00  0.00     0.095 A 
HETATM   19  O   UNL     1      -3.207   5.811 -32.050  1.00  0.00    -0.313 OA
HETATM   20  C   UNL     1      -2.535   6.512 -33.008  1.00  0.00     0.077 A 
HETATM   21  C   UNL     1      -2.829   6.001 -34.254  1.00  0.00     0.037 A 
HETATM   22  C   UNL     1      -3.732   4.929 -34.047  1.00  0.00     0.039 A 
BRANCH  20  23
HETATM   23  C   UNL     1      -1.673   7.629 -32.537  1.00  0.00     0.240 C 
BRANCH  23  24
HETATM   24  O   UNL     1      -0.358   7.097 -32.409  1.00  0.00    -0.345 OA
BRANCH  24  25
HETATM   25  C   UNL     1       0.036   6.697 -31.162  1.00  0.00     0.070 A 
HETATM   26  C   UNL     1       0.355   7.535 -30.091  1.00  0.00     0.052 A 
HETATM   27  C   UNL     1       0.752   6.995 -28.853  1.00  0.00     0.050 A 
HETATM   28  C   UNL     1       0.818   5.601 -28.704  1.00  0.00     0.016 A 
HETATM   29  C   UNL     1       0.496   4.764 -29.769  1.00  0.00     0.004 A 
HETATM   30  C   UNL     1       0.106   5.313 -30.991  1.00  0.00     0.037 A 
BRANCH  27  31
HETATM   31  C   UNL     1       1.100   7.891 -27.689  1.00  0.00     0.417 C 
HETATM   32  F   UNL     1       0.019   8.531 -27.159  1.00  0.00    -0.166 F 
HETATM   33  F   UNL     1       1.673   7.211 -26.660  1.00  0.00    -0.166 F 
HETATM   34  F   UNL     1       1.981   8.871 -28.032  1.00  0.00    -0.166 F 
ENDBRANCH  27  31
ENDBRANCH  24  25
ENDBRANCH  23  24
ENDBRANCH  20  23
ENDBRANCH   9  18
BRANCH   1  35
HETATM   35  C   UNL     1      -5.191  -3.949 -34.845  1.00  0.00     0.231 C 
HETATM   36  C   UNL     1      -6.697  -4.109 -34.929  1.00  0.00     0.034 C 
ENDBRANCH   1  35
TORSDOF 6
ENDMDL
MODEL 2
REMARK VINA RESULT:      -9.9      5.588     10.582
REMARK  6 active torsions:
REMARK  status: ('A' for Active; 'I' for Inactive)
REMARK    1  A    between atoms: C_2  and  N_3 
REMARK    2  A    between atoms: C_11  and  C_12 
REMARK    3  A    between atoms: C_14  and  C_15 
REMARK    4  A    between atoms: C_15  and  O_16 
REMARK    5  A    between atoms: O_16  and  C_17 
REMARK    6  A    between atoms: C_19  and  C_20 
ROOT
HETATM    1  N   UNL     1       0.051   8.833 -27.243  1.00  0.00    -0.067 N 
HETATM    2  H   UNL     1      -0.232   8.062 -26.625  1.00  0.00     0.280 HD
HETATM    3  C   UNL     1      -1.186   9.196 -28.065  1.00  0.00     0.281 C 
HETATM    4  C   UNL     1      -1.485   8.147 -29.081  1.00  0.00     0.018 A 
HETATM    5  C   UNL     1      -0.622   7.136 -29.460  1.00  0.00    -0.023 A 
HETATM    6  C   UNL     1      -1.193   6.330 -30.497  1.00  0.00     0.073 A 
HETATM    7  C   UNL     1      -2.441   6.775 -30.862  1.00  0.00     0.088 A 
HETATM    8  N   UNL     1      -3.166   6.213 -31.849  1.00  0.00    -0.357 N 
HETATM    9  C   UNL     1      -2.800   4.896 -32.342  1.00  0.00     0.243 C 
HETATM   10  N   UNL     1      -1.378   4.692 -32.215  1.00  0.00    -0.330 N 
HETATM   11  C   UNL     1      -0.620   5.193 -31.196  1.00  0.00     0.256 C 
HETATM   12  O   UNL     1       0.485   4.738 -30.920  1.00  0.00    -0.267 OA
HETATM   13  S   UNL     1      -2.947   8.119 -29.952  1.00  0.00    -0.074 SA
HETATM   14  C   UNL     1       0.727   6.983 -28.829  1.00  0.00     0.068 C 
HETATM   15  C   UNL     1       1.169   8.282 -28.136  1.00  0.00     0.240 C 
HETATM   16  H   UNL     1      -4.143   6.458 -31.975  1.00  0.00     0.162 HD
HETATM   17  H   UNL     1      -1.012   3.845 -32.628  1.00  0.00     0.165 HD
ENDROOT
BRANCH   9  18
HETATM   18  C   UNL     1      -3.504   3.738 -31.711  1.00  0.00     0.095 A 
HETATM   19  O   UNL     1      -3.024   2.498 -32.035  1.00  0.00    -0.313 OA
HETATM   20  C   UNL     1      -3.811   1.577 -31.406  1.00  0.00     0.077 A 
HETATM   21  C   UNL     1      -4.785   2.219 -30.670  1.00  0.00     0.037 A 
HETATM   22  C   UNL     1      -4.586   3.608 -30.862  1.00  0.00     0.039 A 
BRANCH  20  23
HETATM   23  C   UNL     1      -3.476   0.146 -31.634  1.00  0.00     0.240 C 
BRANCH  23  24
HETATM   24  O   UNL     1      -3.496  -0.052 -33.045  1.00  0.00    -0.345 OA
BRANCH  24  25
HETATM   25  C   UNL     1      -4.595  -0.673 -33.572  1.00  0.00     0.070 A 
HETATM   26  C   UNL     1      -4.709  -2.033 -33.871  1.00  0.00     0.052 A 
HETATM   27  C   UNL     1      -5.900  -2.549 -34.417  1.00  0.00     0.050 A 
HETATM   28  C   UNL     1      -6.977  -1.680 -34.654  1.00  0.00     0.016 A 
HETATM   29  C   UNL     1      -6.867  -0.325 -34.353  1.00  0.00     0.004 A 
HETATM   30  C   UNL     1      -5.680   0.172 -33.814  1.00  0.00     0.037 A 
BRANCH  27  31
HETATM   31  C   UNL     1      -6.033  -4.016 -34.745  1.00  0.00     0.417 C 
HETATM   32  F   UNL     1      -5.074  -4.788 -34.161  1.00  0.00    -0.166 F 
HETATM   33  F   UNL     1      -7.225  -4.534 -34.342  1.00  0.00    -0.166 F 
HETATM   34  F   UNL     1      -5.946  -4.261 -36.081  1.00  0.00    -0.166 F 
ENDBRANCH  27  31
ENDBRANCH  24  25
ENDBRANCH  23  24
ENDBRANCH  20  23
ENDBRANCH   9  18
BRANCH   1  35
HETATM   35  C   UNL     1       0.550   9.968 -26.382  1.00  0.00     0.231 C 
HETATM   36  C   UNL     1       1.686   9.515 -25.485  1.00  0.00     0.034 C 
ENDBRANCH   1  35
TORSDOF 6
ENDMDL
MODEL 3
REMARK VINA RESULT:      -9.7      5.696      9.920
REMARK  6 active torsions:
REMARK  status: ('A' for Active; 'I' for Inactive)
REMARK    1  A    between atoms: C_2  and  N_3 
REMARK    2  A    between atoms: C_11  and  C_12 
REMARK    3  A    between atoms: C_14  and  C_15 
REMARK    4  A    between atoms: C_15  and  O_16 
REMARK    5  A    between atoms: O_16  and  C_17 
REMARK    6  A    between atoms: C_19  and  C_20 
ROOT
HETATM    1  N   UNL     1      -0.648   6.159 -28.740  1.00  0.00    -0.067 N 
HETATM    2  H   UNL     1      -1.058   5.299 -28.353  1.00  0.00     0.280 HD
HETATM    3  C   UNL     1      -1.812   7.125 -28.960  1.00  0.00     0.281 C 
HETATM    4  C   UNL     1      -2.654   6.699 -30.114  1.00  0.00     0.018 A 
HETATM    5  C   UNL     1      -2.297   5.754 -31.057  1.00  0.00    -0.023 A 
HETATM    6  C   UNL     1      -3.306   5.618 -32.063  1.00  0.00     0.073 A 
HETATM    7  C   UNL     1      -4.362   6.471 -31.846  1.00  0.00     0.088 A 
HETATM    8  N   UNL     1      -5.417   6.567 -32.679  1.00  0.00    -0.357 N 
HETATM    9  C   UNL     1      -5.644   5.525 -33.666  1.00  0.00     0.243 C 
HETATM   10  N   UNL     1      -4.390   4.938 -34.071  1.00  0.00    -0.330 N 
HETATM   11  C   UNL     1      -3.320   4.767 -33.239  1.00  0.00     0.256 C 
HETATM   12  O   UNL     1      -2.417   3.978 -33.494  1.00  0.00    -0.267 OA
HETATM   13  S   UNL     1      -4.172   7.400 -30.435  1.00  0.00    -0.074 SA
HETATM   14  C   UNL     1      -0.993   5.022 -30.973  1.00  0.00     0.068 C 
HETATM   15  C   UNL     1       0.006   5.764 -30.070  1.00  0.00     0.240 C 
HETATM   16  H   UNL     1      -6.249   7.079 -32.401  1.00  0.00     0.162 HD
HETATM   17  H   UNL     1      -4.435   4.275 -34.832  1.00  0.00     0.165 HD
ENDROOT
BRANCH   9  18
HETATM   18  C   UNL     1      -6.575   4.427 -33.262  1.00  0.00     0.095 A 
HETATM   19  O   UNL     1      -6.609   3.337 -34.089  1.00  0.00    -0.313 OA
HETATM   20  C   UNL     1      -7.535   2.470 -33.586  1.00  0.00     0.077 A 
HETATM   21  C   UNL     1      -8.086   2.991 -32.435  1.00  0.00     0.037 A 
HETATM   22  C   UNL     1      -7.466   4.247 -32.223  1.00  0.00     0.039 A 
BRANCH  20  23
HETATM   23  C   UNL     1      -7.750   1.210 -34.346  1.00  0.00     0.240 C 
BRANCH  23  24
HETATM   24  O   UNL     1      -7.605   0.145 -33.410  1.00  0.00    -0.345 OA
BRANCH  24  25
HETATM   25  C   UNL     1      -6.650  -0.797 -33.680  1.00  0.00     0.070 A 
HETATM   26  C   UNL     1      -6.877  -2.078 -34.188  1.00  0.00     0.052 A 
HETATM   27  C   UNL     1      -5.803  -2.958 -34.419  1.00  0.00     0.050 A 
HETATM   28  C   UNL     1      -4.496  -2.531 -34.137  1.00  0.00     0.016 A 
HETATM   29  C   UNL     1      -4.267  -1.253 -33.634  1.00  0.00     0.004 A 
HETATM   30  C   UNL     1      -5.341  -0.392 -33.409  1.00  0.00     0.037 A 
BRANCH  27  31
HETATM   31  C   UNL     1      -6.038  -4.344 -34.967  1.00  0.00     0.417 C 
HETATM   32  F   UNL     1      -5.115  -5.255 -34.544  1.00  0.00    -0.166 F 
HETATM   33  F   UNL     1      -7.249  -4.849 -34.610  1.00  0.00    -0.166 F 
HETATM   34  F   UNL     1      -5.999  -4.381 -36.328  1.00  0.00    -0.166 F 
ENDBRANCH  27  31
ENDBRANCH  24  25
ENDBRANCH  23  24
ENDBRANCH  20  23
ENDBRANCH   9  18
BRANCH   1  35
HETATM   35  C   UNL     1       0.378   6.673 -27.760  1.00  0.00     0.231 C 
HETATM   36  C   UNL     1       1.052   7.929 -28.280  1.00  0.00     0.034 C 
ENDBRANCH   1  35
TORSDOF 6
ENDMDL
MODEL 4
REMARK VINA RESULT:      -9.4      1.611      1.984
REMARK  6 active torsions:
REMARK  status: ('A' for Active; 'I' for Inactive)
REMARK    1  A    between atoms: C_2  and  N_3 
REMARK    2  A    between atoms: C_11  and  C_12 
REMARK    3  A    between atoms: C_14  and  C_15 
REMARK    4  A    between atoms: C_15  and  O_16 
REMARK    5  A    between atoms: O_16  and  C_17 
REMARK    6  A    between atoms: C_19  and  C_20 
ROOT
HETATM    1  N   UNL     1      -5.437  -2.047 -34.484  1.00  0.00    -0.067 N 
HETATM    2  H   UNL     1      -5.248  -1.353 -35.218  1.00  0.00     0.280 HD
HETATM    3  C   UNL     1      -6.705  -1.578 -33.770  1.00  0.00     0.281 C 
HETATM    4  C   UNL     1      -6.435  -0.378 -32.928  1.00  0.00     0.018 A 
HETATM    5  C   UNL     1      -5.182   0.085 -32.576  1.00  0.00    -0.023 A 
HETATM    6  C   UNL     1      -5.273   1.225 -31.714  1.00  0.00     0.073 A 
HETATM    7  C   UNL     1      -6.578   1.557 -31.443  1.00  0.00     0.088 A 
HETATM    8  N   UNL     1      -6.928   2.564 -30.619  1.00  0.00    -0.357 N 
HETATM    9  C   UNL     1      -5.937   3.560 -30.248  1.00  0.00     0.243 C 
HETATM   10  N   UNL     1      -4.619   2.973 -30.236  1.00  0.00    -0.330 N 
HETATM   11  C   UNL     1      -4.208   1.995 -31.097  1.00  0.00     0.256 C 
HETATM   12  O   UNL     1      -3.022   1.760 -31.298  1.00  0.00    -0.267 OA
HETATM   13  S   UNL     1      -7.689   0.544 -32.237  1.00  0.00    -0.074 SA
HETATM   14  C   UNL     1      -3.936  -0.588 -33.064  1.00  0.00     0.068 C 
HETATM   15  C   UNL     1      -4.227  -2.020 -33.543  1.00  0.00     0.240 C 
HETATM   16  H   UNL     1      -7.890   2.885 -30.576  1.00  0.00     0.162 HD
HETATM   17  H   UNL     1      -3.874   3.561 -29.889  1.00  0.00     0.165 HD
ENDROOT
BRANCH   9  18
HETATM   18  C   UNL     1      -5.899   4.796 -31.088  1.00  0.00     0.095 A 
HETATM   19  O   UNL     1      -4.808   5.603 -30.916  1.00  0.00    -0.313 OA
HETATM   20  C   UNL     1      -4.970   6.689 -31.726  1.00  0.00     0.077 A 
HETATM   21  C   UNL     1      -6.153   6.578 -32.426  1.00  0.00     0.037 A 
HETATM   22  C   UNL     1      -6.749   5.359 -32.020  1.00  0.00     0.039 A 
BRANCH  20  23
HETATM   23  C   UNL     1      -3.896   7.717 -31.686  1.00  0.00     0.240 C 
BRANCH  23  24
HETATM   24  O   UNL     1      -3.377   7.707 -30.359  1.00  0.00    -0.345 OA
BRANCH  24  25
HETATM   25  C   UNL     1      -2.031   7.506 -30.217  1.00  0.00     0.070 A 
HETATM   26  C   UNL     1      -1.257   7.867 -29.111  1.00  0.00     0.052 A 
HETATM   27  C   UNL     1       0.126   7.608 -29.090  1.00  0.00     0.050 A 
HETATM   28  C   UNL     1       0.721   6.977 -30.194  1.00  0.00     0.016 A 
HETATM   29  C   UNL     1      -0.049   6.613 -31.295  1.00  0.00     0.004 A 
HETATM   30  C   UNL     1      -1.419   6.877 -31.303  1.00  0.00     0.037 A 
BRANCH  27  31
HETATM   31  C   UNL     1       0.972   7.993 -27.901  1.00  0.00     0.417 C 
HETATM   32  F   UNL     1       2.011   8.815 -28.222  1.00  0.00    -0.166 F 
HETATM   33  F   UNL     1       0.260   8.649 -26.945  1.00  0.00    -0.166 F 
HETATM   34  F   UNL     1       1.528   6.914 -27.285  1.00  0.00    -0.166 F 
ENDBRANCH  27  31
ENDBRANCH  24  25
ENDBRANCH  23  24
ENDBRANCH  20  23
ENDBRANCH   9  18
BRANCH   1  35
HETATM   35  C   UNL     1      -5.586  -3.398 -35.141  1.00  0.00     0.231 C 
HETATM   36  C   UNL     1      -6.906  -4.045 -34.768  1.00  0.00     0.034 C 
ENDBRANCH   1  35
TORSDOF 6
ENDMDL
MODEL 5
REMARK VINA RESULT:      -9.4      2.475      3.749
REMARK  6 active torsions:
REMARK  status: ('A' for Active; 'I' for Inactive)
REMARK    1  A    between atoms: C_2  and  N_3 
REMARK    2  A    between atoms: C_11  and  C_12 
REMARK    3  A    between atoms: C_14  and  C_15 
REMARK    4  A    between atoms: C_15  and  O_16 
REMARK    5  A    between atoms: O_16  and  C_17 
REMARK    6  A    between atoms: C_19  and  C_20 
ROOT
HETATM    1  N   UNL     1      -5.431  -2.342 -34.637  1.00  0.00    -0.067 N 
HETATM    2  H   UNL     1      -4.914  -1.558 -35.056  1.00  0.00     0.280 HD
HETATM    3  C   UNL     1      -6.863  -1.847 -34.431  1.00  0.00     0.281 C 
HETATM    4  C   UNL     1      -6.937  -0.863 -33.314  1.00  0.00     0.018 A 
HETATM    5  C   UNL     1      -5.941  -0.638 -32.382  1.00  0.00    -0.023 A 
HETATM    6  C   UNL     1      -6.350   0.330 -31.410  1.00  0.00     0.073 A 
HETATM    7  C   UNL     1      -7.630   0.776 -31.640  1.00  0.00     0.088 A 
HETATM    8  N   UNL     1      -8.261   1.656 -30.837  1.00  0.00    -0.357 N 
HETATM    9  C   UNL     1      -7.488   2.430 -29.881  1.00  0.00     0.243 C 
HETATM   10  N   UNL     1      -6.331   1.684 -29.451  1.00  0.00    -0.330 N 
HETATM   11  C   UNL     1      -5.628   0.831 -30.254  1.00  0.00     0.256 C 
HETATM   12  O   UNL     1      -4.482   0.484 -29.990  1.00  0.00    -0.267 OA
HETATM   13  S   UNL     1      -8.327   0.075 -33.023  1.00  0.00    -0.074 SA
HETATM   14  C   UNL     1      -4.636  -1.370 -32.442  1.00  0.00     0.068 C 
HETATM   15  C   UNL     1      -4.749  -2.642 -33.298  1.00  0.00     0.240 C 
HETATM   16  H   UNL     1      -9.133   2.086 -31.129  1.00  0.00     0.162 HD
HETATM   17  H   UNL     1      -5.786   2.098 -28.708  1.00  0.00     0.165 HD
ENDROOT
BRANCH   9  18
HETATM   18  C   UNL     1      -7.040   3.782 -30.338  1.00  0.00     0.095 A 
HETATM   19  O   UNL     1      -6.784   3.906 -31.676  1.00  0.00    -0.313 OA
HETATM   20  C   UNL     1      -6.351   5.181 -31.894  1.00  0.00     0.077 A 
HETATM   21  C   UNL     1      -6.340   5.880 -30.705  1.00  0.00     0.037 A 
HETATM   22  C   UNL     1      -6.787   4.983 -29.705  1.00  0.00     0.039 A 
BRANCH  20  23
HETATM   23  C   UNL     1      -5.995   5.535 -33.294  1.00  0.00     0.240 C 
BRANCH  23  24
HETATM   24  O   UNL     1      -4.992   6.544 -33.212  1.00  0.00    -0.345 OA
BRANCH  24  25
HETATM   25  C   UNL     1      -3.690   6.140 -33.319  1.00  0.00     0.070 A 
HETATM   26  C   UNL     1      -2.706   6.260 -32.335  1.00  0.00     0.052 A 
HETATM   27  C   UNL     1      -1.395   5.806 -32.572  1.00  0.00     0.050 A 
HETATM   28  C   UNL     1      -1.087   5.225 -33.812  1.00  0.00     0.016 A 
HETATM   29  C   UNL     1      -2.067   5.100 -34.794  1.00  0.00     0.004 A 
HETATM   30  C   UNL     1      -3.362   5.556 -34.544  1.00  0.00     0.037 A 
BRANCH  27  31
HETATM   31  C   UNL     1      -0.325   5.932 -31.516  1.00  0.00     0.417 C 
HETATM   32  F   UNL     1       0.573   4.906 -31.533  1.00  0.00    -0.166 F 
HETATM   33  F   UNL     1       0.408   7.070 -31.648  1.00  0.00    -0.166 F 
HETATM   34  F   UNL     1      -0.838   5.957 -30.255  1.00  0.00    -0.166 F 
ENDBRANCH  27  31
ENDBRANCH  24  25
ENDBRANCH  23  24
ENDBRANCH  20  23
ENDBRANCH   9  18
BRANCH   1  35
HETATM   35  C   UNL     1      -5.336  -3.521 -35.574  1.00  0.00     0.231 C 
HETATM   36  C   UNL     1      -6.444  -4.523 -35.309  1.00  0.00     0.034 C 
ENDBRANCH   1  35
TORSDOF 6
ENDMDL
MODEL 6
REMARK VINA RESULT:      -9.3      5.051     10.195
REMARK  6 active torsions:
REMARK  status: ('A' for Active; 'I' for Inactive)
REMARK    1  A    between atoms: C_2  and  N_3 
REMARK    2  A    between atoms: C_11  and  C_12 
REMARK    3  A    between atoms: C_14  and  C_15 
REMARK    4  A    between atoms: C_15  and  O_16 
REMARK    5  A    between atoms: O_16  and  C_17 
REMARK    6  A    between atoms: C_19  and  C_20 
ROOT
HETATM    1  N   UNL     1       0.031   8.445 -26.312  1.00  0.00    -0.067 N 
HETATM    2  H   UNL     1      -0.428   7.686 -25.791  1.00  0.00     0.280 HD
HETATM    3  C   UNL     1      -1.014   8.982 -27.291  1.00  0.00     0.281 C 
HETATM    4  C   UNL     1      -1.256   8.018 -28.401  1.00  0.00     0.018 A 
HETATM    5  C   UNL     1      -0.457   6.931 -28.704  1.00  0.00    -0.023 A 
HETATM    6  C   UNL     1      -0.937   6.241 -29.863  1.00  0.00     0.073 A 
HETATM    7  C   UNL     1      -2.056   6.842 -30.388  1.00  0.00     0.088 A 
HETATM    8  N   UNL     1      -2.670   6.409 -31.507  1.00  0.00    -0.357 N 
HETATM    9  C   UNL     1      -2.373   5.081 -32.016  1.00  0.00     0.243 C 
HETATM   10  N   UNL     1      -1.019   4.710 -31.684  1.00  0.00    -0.330 N 
HETATM   11  C   UNL     1      -0.385   5.077 -30.531  1.00  0.00     0.256 C 
HETATM   12  O   UNL     1       0.607   4.486 -30.117  1.00  0.00    -0.267 OA
HETATM   13  S   UNL     1      -2.555   8.195 -29.487  1.00  0.00    -0.074 SA
HETATM   14  C   UNL     1       0.750   6.598 -27.883  1.00  0.00     0.068 C 
HETATM   15  C   UNL     1       1.212   7.808 -27.053  1.00  0.00     0.240 C 
HETATM   16  H   UNL     1      -3.583   6.770 -31.767  1.00  0.00     0.162 HD
HETATM   17  H   UNL     1      -0.684   3.845 -32.085  1.00  0.00     0.165 HD
ENDROOT
BRANCH   9  18
HETATM   18  C   UNL     1      -3.288   3.985 -31.572  1.00  0.00     0.095 A 
HETATM   19  O   UNL     1      -2.770   2.720 -31.613  1.00  0.00    -0.313 OA
HETATM   20  C   UNL     1      -3.754   1.862 -31.217  1.00  0.00     0.077 A 
HETATM   21  C   UNL     1      -4.897   2.570 -30.910  1.00  0.00     0.037 A 
HETATM   22  C   UNL     1      -4.597   3.936 -31.133  1.00  0.00     0.039 A 
BRANCH  20  23
HETATM   23  C   UNL     1      -3.411   0.414 -31.203  1.00  0.00     0.240 C 
BRANCH  23  24
HETATM   24  O   UNL     1      -3.206   0.035 -32.561  1.00  0.00    -0.345 OA
BRANCH  24  25
HETATM   25  C   UNL     1      -4.267  -0.523 -33.220  1.00  0.00     0.070 A 
HETATM   26  C   UNL     1      -5.456   0.124 -33.565  1.00  0.00     0.052 A 
HETATM   27  C   UNL     1      -6.477  -0.567 -34.243  1.00  0.00     0.050 A 
HETATM   28  C   UNL     1      -6.287  -1.918 -34.574  1.00  0.00     0.016 A 
HETATM   29  C   UNL     1      -5.101  -2.564 -34.234  1.00  0.00     0.004 A 
HETATM   30  C   UNL     1      -4.097  -1.866 -33.562  1.00  0.00     0.037 A 
BRANCH  27  31
HETATM   31  C   UNL     1      -7.766   0.123 -34.619  1.00  0.00     0.417 C 
HETATM   32  F   UNL     1      -8.311  -0.347 -35.778  1.00  0.00    -0.166 F 
HETATM   33  F   UNL     1      -8.730  -0.018 -33.670  1.00  0.00    -0.166 F 
HETATM   34  F   UNL     1      -7.606   1.463 -34.801  1.00  0.00    -0.166 F 
ENDBRANCH  27  31
ENDBRANCH  24  25
ENDBRANCH  23  24
ENDBRANCH  20  23
ENDBRANCH   9  18
BRANCH   1  35
HETATM   35  C   UNL     1       0.504   9.477 -25.317  1.00  0.00     0.231 C 
HETATM   36  C   UNL     1       0.542  10.860 -25.940  1.00  0.00     0.034 C 
ENDBRANCH   1  35
TORSDOF 6
ENDMDL
MODEL 7
REMARK VINA RESULT:      -9.2      3.627      4.557
REMARK  6 active torsions:
REMARK  status: ('A' for Active; 'I' for Inactive)
REMARK    1  A    between atoms: C_2  and  N_3 
REMARK    2  A    between atoms: C_11  and  C_12 
REMARK    3  A    between atoms: C_14  and  C_15 
REMARK    4  A    between atoms: C_15  and  O_16 
REMARK    5  A    between atoms: O_16  and  C_17 
REMARK    6  A    between atoms: C_19  and  C_20 
ROOT
HETATM    1  N   UNL     1      -5.496  -1.819 -34.275  1.00  0.00    -0.067 N 
HETATM    2  H   UNL     1      -5.312  -1.061 -34.946  1.00  0.00     0.280 HD
HETATM    3  C   UNL     1      -6.935  -1.624 -33.797  1.00  0.00     0.281 C 
HETATM    4  C   UNL     1      -7.046  -0.446 -32.891  1.00  0.00     0.018 A 
HETATM    5  C   UNL     1      -5.982   0.212 -32.303  1.00  0.00    -0.023 A 
HETATM    6  C   UNL     1      -6.434   1.266 -31.446  1.00  0.00     0.073 A 
HETATM    7  C   UNL     1      -7.806   1.345 -31.412  1.00  0.00     0.088 A 
HETATM    8  N   UNL     1      -8.476   2.225 -30.642  1.00  0.00    -0.357 N 
HETATM    9  C   UNL     1      -7.768   3.357 -30.071  1.00  0.00     0.243 C 
HETATM   10  N   UNL     1      -6.388   3.015 -29.831  1.00  0.00    -0.330 N 
HETATM   11  C   UNL     1      -5.657   2.177 -30.624  1.00  0.00     0.256 C 
HETATM   12  O   UNL     1      -4.431   2.169 -30.608  1.00  0.00    -0.267 OA
HETATM   13  S   UNL     1      -8.551   0.197 -32.421  1.00  0.00    -0.074 SA
HETATM   14  C   UNL     1      -4.567  -0.200 -32.568  1.00  0.00     0.068 C 
HETATM   15  C   UNL     1      -4.498  -1.631 -33.127  1.00  0.00     0.240 C 
HETATM   16  H   UNL     1      -9.473   2.366 -30.770  1.00  0.00     0.162 HD
HETATM   17  H   UNL     1      -5.838   3.705 -29.339  1.00  0.00     0.165 HD
ENDROOT
BRANCH   9  18
HETATM   18  C   UNL     1      -7.812   4.627 -30.861  1.00  0.00     0.095 A 
HETATM   19  O   UNL     1      -6.789   5.507 -30.635  1.00  0.00    -0.313 OA
HETATM   20  C   UNL     1      -7.022   6.610 -31.404  1.00  0.00     0.077 A 
HETATM   21  C   UNL     1      -8.181   6.438 -32.131  1.00  0.00     0.037 A 
HETATM   22  C   UNL     1      -8.688   5.161 -31.786  1.00  0.00     0.039 A 
BRANCH  20  23
HETATM   23  C   UNL     1      -6.031   7.715 -31.302  1.00  0.00     0.240 C 
BRANCH  23  24
HETATM   24  O   UNL     1      -4.825   7.131 -30.816  1.00  0.00    -0.345 OA
BRANCH  24  25
HETATM   25  C   UNL     1      -3.754   7.113 -31.667  1.00  0.00     0.070 A 
HETATM   26  C   UNL     1      -3.513   6.169 -32.668  1.00  0.00     0.052 A 
HETATM   27  C   UNL     1      -2.365   6.260 -33.477  1.00  0.00     0.050 A 
HETATM   28  C   UNL     1      -1.464   7.316 -33.270  1.00  0.00     0.016 A 
HETATM   29  C   UNL     1      -1.704   8.261 -32.276  1.00  0.00     0.004 A 
HETATM   30  C   UNL     1      -2.846   8.157 -31.480  1.00  0.00     0.037 A 
BRANCH  27  31
HETATM   31  C   UNL     1      -2.095   5.245 -34.560  1.00  0.00     0.417 C 
HETATM   32  F   UNL     1      -0.903   5.437 -35.195  1.00  0.00    -0.166 F 
HETATM   33  F   UNL     1      -2.063   3.970 -34.086  1.00  0.00    -0.166 F 
HETATM   34  F   UNL     1      -3.043   5.260 -35.538  1.00  0.00    -0.166 F 
ENDBRANCH  27  31
ENDBRANCH  24  25
ENDBRANCH  23  24
ENDBRANCH  20  23
ENDBRANCH   9  18
BRANCH   1  35
HETATM   35  C   UNL     1      -5.274  -3.134 -34.981  1.00  0.00     0.231 C 
HETATM   36  C   UNL     1      -6.550  -3.953 -35.027  1.00  0.00     0.034 C 
ENDBRANCH   1  35
TORSDOF 6
ENDMDL
MODEL 8
REMARK VINA RESULT:      -9.2      5.523     10.256
REMARK  6 active torsions:
REMARK  status: ('A' for Active; 'I' for Inactive)
REMARK    1  A    between atoms: C_2  and  N_3 
REMARK    2  A    between atoms: C_11  and  C_12 
REMARK    3  A    between atoms: C_14  and  C_15 
REMARK    4  A    between atoms: C_15  and  O_16 
REMARK    5  A    between atoms: O_16  and  C_17 
REMARK    6  A    between atoms: C_19  and  C_20 
ROOT
HETATM    1  N   UNL     1      -0.992   8.786 -26.139  1.00  0.00    -0.067 N 
HETATM    2  H   UNL     1      -1.731   8.106 -25.918  1.00  0.00     0.280 HD
HETATM    3  C   UNL     1      -1.413   9.462 -27.444  1.00  0.00     0.281 C 
HETATM    4  C   UNL     1      -1.266   8.535 -28.602  1.00  0.00     0.018 A 
HETATM    5  C   UNL     1      -0.569   7.342 -28.586  1.00  0.00    -0.023 A 
HETATM    6  C   UNL     1      -0.573   6.721 -29.876  1.00  0.00     0.073 A 
HETATM    7  C   UNL     1      -1.253   7.474 -30.803  1.00  0.00     0.088 A 
HETATM    8  N   UNL     1      -1.360   7.127 -32.101  1.00  0.00    -0.357 N 
HETATM    9  C   UNL     1      -1.048   5.767 -32.504  1.00  0.00     0.243 C 
HETATM   10  N   UNL     1      -0.044   5.205 -31.633  1.00  0.00    -0.330 N 
HETATM   11  C   UNL     1       0.057   5.484 -30.300  1.00  0.00     0.256 C 
HETATM   12  O   UNL     1       0.673   4.758 -29.528  1.00  0.00    -0.267 OA
HETATM   13  S   UNL     1      -1.913   8.892 -30.136  1.00  0.00    -0.074 SA
HETATM   14  C   UNL     1       0.094   6.843 -27.339  1.00  0.00     0.068 C 
HETATM   15  C   UNL     1       0.298   7.978 -26.322  1.00  0.00     0.240 C 
HETATM   16  H   UNL     1      -2.006   7.615 -32.714  1.00  0.00     0.162 HD
HETATM   17  H   UNL     1       0.314   4.297 -31.896  1.00  0.00     0.165 HD
ENDROOT
BRANCH   9  18
HETATM   18  C   UNL     1      -2.203   4.819 -32.571  1.00  0.00     0.095 A 
HETATM   19  O   UNL     1      -2.133   3.732 -31.743  1.00  0.00    -0.313 OA
HETATM   20  C   UNL     1      -3.242   2.970 -31.974  1.00  0.00     0.077 A 
HETATM   21  C   UNL     1      -4.029   3.568 -32.935  1.00  0.00     0.037 A 
HETATM   22  C   UNL     1      -3.364   4.760 -33.317  1.00  0.00     0.039 A 
BRANCH  20  23
HETATM   23  C   UNL     1      -3.365   1.715 -31.185  1.00  0.00     0.240 C 
BRANCH  23  24
HETATM   24  O   UNL     1      -4.601   1.118 -31.567  1.00  0.00    -0.345 OA
BRANCH  24  25
HETATM   25  C   UNL     1      -4.543  -0.105 -32.175  1.00  0.00     0.070 A 
HETATM   26  C   UNL     1      -5.429  -0.589 -33.140  1.00  0.00     0.052 A 
HETATM   27  C   UNL     1      -5.260  -1.874 -33.688  1.00  0.00     0.050 A 
HETATM   28  C   UNL     1      -4.185  -2.666 -33.257  1.00  0.00     0.016 A 
HETATM   29  C   UNL     1      -3.298  -2.185 -32.297  1.00  0.00     0.004 A 
HETATM   30  C   UNL     1      -3.478  -0.909 -31.762  1.00  0.00     0.037 A 
BRANCH  27  31
HETATM   31  C   UNL     1      -6.213  -2.406 -34.731  1.00  0.00     0.417 C 
HETATM   32  F   UNL     1      -6.940  -1.431 -35.346  1.00  0.00    -0.166 F 
HETATM   33  F   UNL     1      -5.574  -3.078 -35.727  1.00  0.00    -0.166 F 
HETATM   34  F   UNL     1      -7.122  -3.276 -34.211  1.00  0.00    -0.166 F 
ENDBRANCH  27  31
ENDBRANCH  24  25
ENDBRANCH  23  24
ENDBRANCH  20  23
ENDBRANCH   9  18
BRANCH   1  35
HETATM   35  C   UNL     1      -0.875   9.746 -24.980  1.00  0.00     0.231 C 
HETATM   36  C   UNL     1      -1.862   9.400 -23.881  1.00  0.00     0.034 C 
ENDBRANCH   1  35
TORSDOF 6
ENDMDL
MODEL 9
REMARK VINA RESULT:      -9.0      5.997      9.887
REMARK  6 active torsions:
REMARK  status: ('A' for Active; 'I' for Inactive)
REMARK    1  A    between atoms: C_2  and  N_3 
REMARK    2  A    between atoms: C_11  and  C_12 
REMARK    3  A    between atoms: C_14  and  C_15 
REMARK    4  A    between atoms: C_15  and  O_16 
REMARK    5  A    between atoms: O_16  and  C_17 
REMARK    6  A    between atoms: C_19  and  C_20 
ROOT
HETATM    1  N   UNL     1      -3.717   6.888 -31.686  1.00  0.00    -0.067 N 
HETATM    2  H   UNL     1      -3.927   6.800 -32.689  1.00  0.00     0.280 HD
HETATM    3  C   UNL     1      -3.584   5.462 -31.152  1.00  0.00     0.281 C 
HETATM    4  C   UNL     1      -4.912   4.788 -31.079  1.00  0.00     0.018 A 
HETATM    5  C   UNL     1      -6.136   5.424 -31.178  1.00  0.00    -0.023 A 
HETATM    6  C   UNL     1      -7.216   4.499 -31.011  1.00  0.00     0.073 A 
HETATM    7  C   UNL     1      -6.763   3.222 -30.779  1.00  0.00     0.088 A 
HETATM    8  N   UNL     1      -7.584   2.179 -30.544  1.00  0.00    -0.357 N 
HETATM    9  C   UNL     1      -8.996   2.297 -30.862  1.00  0.00     0.243 C 
HETATM   10  N   UNL     1      -9.428   3.667 -30.726  1.00  0.00    -0.330 N 
HETATM   11  C   UNL     1      -8.646   4.748 -31.015  1.00  0.00     0.256 C 
HETATM   12  O   UNL     1      -9.121   5.860 -31.221  1.00  0.00    -0.267 OA
HETATM   13  S   UNL     1      -5.066   3.117 -30.797  1.00  0.00    -0.074 SA
HETATM   14  C   UNL     1      -6.231   6.900 -31.414  1.00  0.00     0.068 C 
HETATM   15  C   UNL     1      -4.914   7.608 -31.056  1.00  0.00     0.240 C 
HETATM   16  H   UNL     1      -7.224   1.230 -30.545  1.00  0.00     0.162 HD
HETATM   17  H   UNL     1     -10.419   3.832 -30.826  1.00  0.00     0.165 HD
ENDROOT
BRANCH   9  18
HETATM   18  C   UNL     1      -9.410   1.800 -32.211  1.00  0.00     0.095 A 
HETATM   19  O   UNL     1      -8.414   1.271 -32.985  1.00  0.00    -0.313 OA
HETATM   20  C   UNL     1      -8.969   0.916 -34.180  1.00  0.00     0.077 A 
HETATM   21  C   UNL     1     -10.317   1.203 -34.173  1.00  0.00     0.037 A 
HETATM   22  C   UNL     1     -10.603   1.767 -32.905  1.00  0.00     0.039 A 
BRANCH  20  23
HETATM   23  C   UNL     1      -8.051   0.328 -35.193  1.00  0.00     0.240 C 
BRANCH  23  24
HETATM   24  O   UNL     1      -6.730   0.493 -34.684  1.00  0.00    -0.345 OA
BRANCH  24  25
HETATM   25  C   UNL     1      -6.023  -0.643 -34.403  1.00  0.00     0.070 A 
HETATM   26  C   UNL     1      -6.353  -1.939 -34.806  1.00  0.00     0.052 A 
HETATM   27  C   UNL     1      -5.540  -3.031 -34.445  1.00  0.00     0.050 A 
HETATM   28  C   UNL     1      -4.388  -2.801 -33.677  1.00  0.00     0.016 A 
HETATM   29  C   UNL     1      -4.055  -1.509 -33.277  1.00  0.00     0.004 A 
HETATM   30  C   UNL     1      -4.871  -0.438 -33.641  1.00  0.00     0.037 A 
BRANCH  27  31
HETATM   31  C   UNL     1      -5.887  -4.435 -34.875  1.00  0.00     0.417 C 
HETATM   32  F   UNL     1      -4.929  -5.350 -34.554  1.00  0.00    -0.166 F 
HETATM   33  F   UNL     1      -7.037  -4.886 -34.305  1.00  0.00    -0.166 F 
HETATM   34  F   UNL     1      -6.066  -4.539 -36.220  1.00  0.00    -0.166 F 
ENDBRANCH  27  31
ENDBRANCH  24  25
ENDBRANCH  23  24
ENDBRANCH  20  23
ENDBRANCH   9  18
BRANCH   1  35
HETATM   35  C   UNL     1      -2.453   7.700 -31.541  1.00  0.00     0.231 C 
HETATM   36  C   UNL     1      -1.225   6.861 -31.837  1.00  0.00     0.034 C 
ENDBRANCH   1  35
TORSDOF 6
ENDMDL
MODEL 10
REMARK VINA RESULT:      -8.9      4.384      8.610
REMARK  6 active torsions:
REMARK  status: ('A' for Active; 'I' for Inactive)
REMARK    1  A    between atoms: C_2  and  N_3 
REMARK    2  A    between atoms: C_11  and  C_12 
REMARK    3  A    between atoms: C_14  and  C_15 
REMARK    4  A    between atoms: C_15  and  O_16 
REMARK    5  A    between atoms: O_16  and  C_17 
REMARK    6  A    between atoms: C_19  and  C_20 
ROOT
HETATM    1  N   UNL     1      -2.232   5.698 -32.438  1.00  0.00    -0.067 N 
HETATM    2  H   UNL     1      -2.572   5.560 -33.399  1.00  0.00     0.280 HD
HETATM    3  C   UNL     1      -2.460   4.372 -31.711  1.00  0.00     0.281 C 
HETATM    4  C   UNL     1      -3.910   4.148 -31.442  1.00  0.00     0.018 A 
HETATM    5  C   UNL     1      -4.898   5.109 -31.543  1.00  0.00    -0.023 A 
HETATM    6  C   UNL     1      -6.174   4.583 -31.163  1.00  0.00     0.073 A 
HETATM    7  C   UNL     1      -6.089   3.266 -30.779  1.00  0.00     0.088 A 
HETATM    8  N   UNL     1      -7.145   2.558 -30.333  1.00  0.00    -0.357 N 
HETATM    9  C   UNL     1      -8.489   3.060 -30.560  1.00  0.00     0.243 C 
HETATM   10  N   UNL     1      -8.485   4.502 -30.596  1.00  0.00    -0.330 N 
HETATM   11  C   UNL     1      -7.460   5.253 -31.098  1.00  0.00     0.256 C 
HETATM   12  O   UNL     1      -7.612   6.424 -31.430  1.00  0.00    -0.267 OA
HETATM   13  S   UNL     1      -4.510   2.648 -30.906  1.00  0.00    -0.074 SA
HETATM   14  C   UNL     1      -4.586   6.505 -31.985  1.00  0.00     0.068 C 
HETATM   15  C   UNL     1      -3.088   6.817 -31.834  1.00  0.00     0.240 C 
HETATM   16  H   UNL     1      -7.081   1.551 -30.220  1.00  0.00     0.162 HD
HETATM   17  H   UNL     1      -9.390   4.949 -30.646  1.00  0.00     0.165 HD
ENDROOT
BRANCH   9  18
HETATM   18  C   UNL     1      -9.181   2.557 -31.787  1.00  0.00     0.095 A 
HETATM   19  O   UNL     1      -8.471   1.674 -32.554  1.00  0.00    -0.313 OA
HETATM   20  C   UNL     1      -9.240   1.364 -33.638  1.00  0.00     0.077 A 
HETATM   21  C   UNL     1     -10.443   2.032 -33.565  1.00  0.00     0.037 A 
HETATM   22  C   UNL     1     -10.408   2.796 -32.373  1.00  0.00     0.039 A 
BRANCH  20  23
HETATM   23  C   UNL     1      -8.650   0.421 -34.626  1.00  0.00     0.240 C 
BRANCH  23  24
HETATM   24  O   UNL     1      -7.258   0.723 -34.690  1.00  0.00    -0.345 OA
BRANCH  24  25
HETATM   25  C   UNL     1      -6.387  -0.277 -34.352  1.00  0.00     0.070 A 
HETATM   26  C   UNL     1      -5.351  -0.186 -33.419  1.00  0.00     0.052 A 
HETATM   27  C   UNL     1      -4.518  -1.291 -33.164  1.00  0.00     0.050 A 
HETATM   28  C   UNL     1      -4.743  -2.492 -33.855  1.00  0.00     0.016 A 
HETATM   29  C   UNL     1      -5.778  -2.586 -34.783  1.00  0.00     0.004 A 
HETATM   30  C   UNL     1      -6.595  -1.482 -35.026  1.00  0.00     0.037 A 
BRANCH  27  31
HETATM   31  C   UNL     1      -3.396  -1.204 -32.159  1.00  0.00     0.417 C 
HETATM   32  F   UNL     1      -3.790  -0.708 -30.951  1.00  0.00    -0.166 F 
HETATM   33  F   UNL     1      -2.832  -2.414 -31.899  1.00  0.00    -0.166 F 
HETATM   34  F   UNL     1      -2.382  -0.397 -32.579  1.00  0.00    -0.166 F 
ENDBRANCH  27  31
ENDBRANCH  24  25
ENDBRANCH  23  24
ENDBRANCH  20  23
ENDBRANCH   9  18
BRANCH   1  35
HETATM   35  C   UNL     1      -0.779   6.099 -32.507  1.00  0.00     0.231 C 
HETATM   36  C   UNL     1      -0.300   6.654 -31.179  1.00  0.00     0.034 C 
ENDBRANCH   1  35
TORSDOF 6
ENDMDL
