MODEL 1
REMARK VINA RESULT:      -8.4      0.000      0.000
REMARK  4 active torsions:
REMARK  status: ('A' for Active; 'I' for Inactive)
REMARK    1  A    between atoms: C_5  and  C_6 
REMARK    2  A    between atoms: C_6  and  N_7 
REMARK    3  A    between atoms: C_6  and  C_18 
REMARK    4  A    between atoms: N_7  and  C_8 
ROOT
HETATM    1  C   UNL     1      -6.460  -0.306 -33.036  1.00  0.00     0.288 C 
ENDROOT
BRANCH   1   2
HETATM    2  C   UNL     1      -7.830   0.292 -33.321  1.00  0.00    -0.003 A 
HETATM    3  C   UNL     1      -7.937   1.379 -34.190  1.00  0.00     0.126 A 
HETATM    4  N   UNL     1      -9.095   2.006 -34.493  1.00  0.00    -0.272 NA
HETATM    5  C   UNL     1     -10.218   1.530 -33.922  1.00  0.00     0.116 A 
HETATM    6  C   UNL     1     -10.233   0.460 -33.045  1.00  0.00     0.020 A 
HETATM    7  C   UNL     1      -9.022  -0.159 -32.738  1.00  0.00     0.012 A 
ENDBRANCH   1   2
BRANCH   1   8
HETATM    8  N   UNL     1      -6.095  -0.226 -31.597  1.00  0.00     0.101 NA
HETATM    9  H   UNL     1      -5.664  -1.124 -31.366  1.00  0.00     0.317 HD
BRANCH   8  10
HETATM   10  C   UNL     1      -5.233   0.865 -31.126  1.00  0.00     0.225 C 
HETATM   11  C   UNL     1      -4.377   1.509 -32.238  1.00  0.00     0.069 C 
HETATM   12  C   UNL     1      -3.647   2.726 -31.704  1.00  0.00     0.190 C 
HETATM   13  N   UNL     1      -4.663   3.709 -31.196  1.00  0.00    -0.067 N 
HETATM   14  C   UNL     1      -2.894   3.572 -32.711  1.00  0.00     0.035 C 
HETATM   15  H   UNL     1      -5.344   3.878 -31.953  1.00  0.00     0.280 HD
HETATM   16  C   UNL     1      -5.423   3.179 -30.027  1.00  0.00     0.237 C 
HETATM   17  C   UNL     1      -3.918   5.005 -31.011  1.00  0.00     0.235 C 
HETATM   18  C   UNL     1      -6.164   1.922 -30.480  1.00  0.00     0.063 C 
HETATM   19  C   UNL     1      -2.745   4.909 -31.988  1.00  0.00     0.030 C 
ENDBRANCH   8  10
ENDBRANCH   1   8
BRANCH   1  20
HETATM   20  C   UNL     1      -6.082  -1.632 -33.705  1.00  0.00    -0.021 A 
HETATM   21  C   UNL     1      -4.767  -2.133 -33.742  1.00  0.00     0.012 A 
HETATM   22  C   UNL     1      -4.481  -3.363 -34.344  1.00  0.00     0.043 A 
HETATM   23  C   UNL     1      -5.509  -4.122 -34.884  1.00  0.00     0.116 A 
HETATM   24  F   UNL     1      -5.232  -5.296 -35.463  1.00  0.00    -0.206 F 
HETATM   25  C   UNL     1      -6.823  -3.684 -34.820  1.00  0.00     0.043 A 
HETATM   26  C   UNL     1      -7.108  -2.455 -34.223  1.00  0.00     0.012 A 
ENDBRANCH   1  20
TORSDOF 4
ENDMDL
MODEL 2
REMARK VINA RESULT:      -8.3      1.718      2.171
REMARK  4 active torsions:
REMARK  status: ('A' for Active; 'I' for Inactive)
REMARK    1  A    between atoms: C_5  and  C_6 
REMARK    2  A    between atoms: C_6  and  N_7 
REMARK    3  A    between atoms: C_6  and  C_18 
REMARK    4  A    between atoms: N_7  and  C_8 
ROOT
HETATM    1  C   UNL     1      -6.767   1.033 -33.419  1.00  0.00     0.288 C 
ENDROOT
BRANCH   1   2
HETATM    2  C   UNL     1      -8.286   0.959 -33.473  1.00  0.00    -0.003 A 
HETATM    3  C   UNL     1      -8.990   1.883 -34.246  1.00  0.00     0.126 A 
HETATM    4  N   UNL     1     -10.337   1.931 -34.346  1.00  0.00    -0.272 NA
HETATM    5  C   UNL     1     -11.036   1.006 -33.660  1.00  0.00     0.116 A 
HETATM    6  C   UNL     1     -10.446   0.043 -32.861  1.00  0.00     0.020 A 
HETATM    7  C   UNL     1      -9.055   0.026 -32.764  1.00  0.00     0.012 A 
ENDBRANCH   1   2
BRANCH   1   8
HETATM    8  N   UNL     1      -6.280   1.817 -32.254  1.00  0.00     0.101 NA
HETATM    9  H   UNL     1      -5.652   1.196 -31.738  1.00  0.00     0.317 HD
BRANCH   8  10
HETATM   10  C   UNL     1      -5.617   3.108 -32.474  1.00  0.00     0.225 C 
HETATM   11  C   UNL     1      -4.094   3.079 -32.220  1.00  0.00     0.069 C 
HETATM   12  C   UNL     1      -3.465   4.397 -32.628  1.00  0.00     0.190 C 
HETATM   13  N   UNL     1      -3.744   4.628 -34.086  1.00  0.00    -0.067 N 
HETATM   14  C   UNL     1      -1.952   4.475 -32.600  1.00  0.00     0.035 C 
HETATM   15  H   UNL     1      -3.433   3.791 -34.604  1.00  0.00     0.280 HD
HETATM   16  C   UNL     1      -5.200   4.800 -34.361  1.00  0.00     0.237 C 
HETATM   17  C   UNL     1      -2.821   5.743 -34.505  1.00  0.00     0.235 C 
HETATM   18  C   UNL     1      -5.913   3.517 -33.940  1.00  0.00     0.063 C 
HETATM   19  C   UNL     1      -1.655   5.658 -33.519  1.00  0.00     0.030 C 
ENDBRANCH   8  10
ENDBRANCH   1   8
BRANCH   1  20
HETATM   20  C   UNL     1      -5.958  -0.239 -33.700  1.00  0.00    -0.021 A 
HETATM   21  C   UNL     1      -4.820  -0.610 -32.959  1.00  0.00     0.012 A 
HETATM   22  C   UNL     1      -4.133  -1.796 -33.242  1.00  0.00     0.043 A 
HETATM   23  C   UNL     1      -4.595  -2.639 -34.242  1.00  0.00     0.116 A 
HETATM   24  F   UNL     1      -3.933  -3.770 -34.513  1.00  0.00    -0.206 F 
HETATM   25  C   UNL     1      -5.742  -2.330 -34.956  1.00  0.00     0.043 A 
HETATM   26  C   UNL     1      -6.425  -1.146 -34.678  1.00  0.00     0.012 A 
ENDBRANCH   1  20
TORSDOF 4
ENDMDL
MODEL 3
REMARK VINA RESULT:      -8.2      2.045      5.565
REMARK  4 active torsions:
REMARK  status: ('A' for Active; 'I' for Inactive)
REMARK    1  A    between atoms: C_5  and  C_6 
REMARK    2  A    between atoms: C_6  and  N_7 
REMARK    3  A    between atoms: C_6  and  C_18 
REMARK    4  A    between atoms: N_7  and  C_8 
ROOT
HETATM    1  C   UNL     1      -6.829   0.578 -32.182  1.00  0.00     0.288 C 
ENDROOT
BRANCH   1   2
HETATM    2  C   UNL     1      -6.382   1.973 -32.593  1.00  0.00    -0.003 A 
HETATM    3  C   UNL     1      -6.018   2.894 -31.610  1.00  0.00     0.126 A 
HETATM    4  N   UNL     1      -5.634   4.166 -31.856  1.00  0.00    -0.272 NA
HETATM    5  C   UNL     1      -5.588   4.554 -33.146  1.00  0.00     0.116 A 
HETATM    6  C   UNL     1      -5.927   3.728 -34.202  1.00  0.00     0.020 A 
HETATM    7  C   UNL     1      -6.334   2.425 -33.919  1.00  0.00     0.012 A 
ENDBRANCH   1   2
BRANCH   1   8
HETATM    8  N   UNL     1      -8.262   0.535 -31.790  1.00  0.00     0.101 NA
HETATM    9  H   UNL     1      -8.306   0.912 -30.840  1.00  0.00     0.317 HD
BRANCH   8  10
HETATM   10  C   UNL     1      -9.264   1.206 -32.628  1.00  0.00     0.225 C 
HETATM   11  C   UNL     1     -10.467   0.313 -33.000  1.00  0.00     0.069 C 
HETATM   12  C   UNL     1     -11.526   1.125 -33.719  1.00  0.00     0.190 C 
HETATM   13  N   UNL     1     -11.967   2.241 -32.815  1.00  0.00    -0.067 N 
HETATM   14  C   UNL     1     -12.844   0.436 -34.005  1.00  0.00     0.035 C 
HETATM   15  H   UNL     1     -12.243   1.826 -31.912  1.00  0.00     0.280 HD
HETATM   16  C   UNL     1     -10.868   3.210 -32.539  1.00  0.00     0.237 C 
HETATM   17  C   UNL     1     -13.233   2.783 -33.427  1.00  0.00     0.235 C 
HETATM   18  C   UNL     1      -9.740   2.454 -31.840  1.00  0.00     0.063 C 
HETATM   19  C   UNL     1     -13.800   1.607 -34.225  1.00  0.00     0.030 C 
ENDBRANCH   8  10
ENDBRANCH   1   8
BRANCH   1  20
HETATM   20  C   UNL     1      -6.374  -0.620 -33.024  1.00  0.00    -0.021 A 
HETATM   21  C   UNL     1      -7.242  -1.358 -33.850  1.00  0.00     0.012 A 
HETATM   22  C   UNL     1      -6.768  -2.427 -34.619  1.00  0.00     0.043 A 
HETATM   23  C   UNL     1      -5.418  -2.747 -34.599  1.00  0.00     0.116 A 
HETATM   24  F   UNL     1      -4.970  -3.772 -35.331  1.00  0.00    -0.206 F 
HETATM   25  C   UNL     1      -4.526  -2.008 -33.837  1.00  0.00     0.043 A 
HETATM   26  C   UNL     1      -4.999  -0.945 -33.066  1.00  0.00     0.012 A 
ENDBRANCH   1  20
TORSDOF 4
ENDMDL
MODEL 4
REMARK VINA RESULT:      -7.9      2.546      6.196
REMARK  4 active torsions:
REMARK  status: ('A' for Active; 'I' for Inactive)
REMARK    1  A    between atoms: C_5  and  C_6 
REMARK    2  A    between atoms: C_6  and  N_7 
REMARK    3  A    between atoms: C_6  and  C_18 
REMARK    4  A    between atoms: N_7  and  C_8 
ROOT
HETATM    1  C   UNL     1      -7.363   1.901 -33.522  1.00  0.00     0.288 C 
ENDROOT
BRANCH   1   2
HETATM    2  C   UNL     1      -6.795   2.459 -32.225  1.00  0.00    -0.003 A 
HETATM    3  C   UNL     1      -5.463   2.874 -32.182  1.00  0.00     0.126 A 
HETATM    4  N   UNL     1      -4.846   3.357 -31.081  1.00  0.00    -0.272 NA
HETATM    5  C   UNL     1      -5.583   3.453 -29.958  1.00  0.00     0.116 A 
HETATM    6  C   UNL     1      -6.910   3.071 -29.882  1.00  0.00     0.020 A 
HETATM    7  C   UNL     1      -7.518   2.562 -31.029  1.00  0.00     0.012 A 
ENDBRANCH   1   2
BRANCH   1   8
HETATM    8  N   UNL     1      -6.384   1.051 -34.249  1.00  0.00     0.101 NA
HETATM    9  H   UNL     1      -5.502   1.570 -34.246  1.00  0.00     0.317 HD
BRANCH   8  10
HETATM   10  C   UNL     1      -6.140  -0.325 -33.798  1.00  0.00     0.225 C 
HETATM   11  C   UNL     1      -6.608  -1.403 -34.799  1.00  0.00     0.069 C 
HETATM   12  C   UNL     1      -6.172  -2.779 -34.336  1.00  0.00     0.190 C 
HETATM   13  N   UNL     1      -4.674  -2.792 -34.221  1.00  0.00    -0.067 N 
HETATM   14  C   UNL     1      -6.406  -3.932 -35.290  1.00  0.00     0.035 C 
HETATM   15  H   UNL     1      -4.286  -2.466 -35.119  1.00  0.00     0.280 HD
HETATM   16  C   UNL     1      -4.182  -1.861 -33.163  1.00  0.00     0.237 C 
HETATM   17  C   UNL     1      -4.288  -4.244 -34.103  1.00  0.00     0.235 C 
HETATM   18  C   UNL     1      -4.616  -0.447 -33.544  1.00  0.00     0.063 C 
HETATM   19  C   UNL     1      -5.433  -4.995 -34.785  1.00  0.00     0.030 C 
ENDBRANCH   8  10
ENDBRANCH   1   8
BRANCH   1  20
HETATM   20  C   UNL     1      -8.793   1.349 -33.522  1.00  0.00    -0.021 A 
HETATM   21  C   UNL     1      -9.183   0.211 -32.791  1.00  0.00     0.012 A 
HETATM   22  C   UNL     1     -10.509  -0.235 -32.806  1.00  0.00     0.043 A 
HETATM   23  C   UNL     1     -11.465   0.470 -33.521  1.00  0.00     0.116 A 
HETATM   24  F   UNL     1     -12.732   0.038 -33.538  1.00  0.00    -0.206 F 
HETATM   25  C   UNL     1     -11.128   1.624 -34.210  1.00  0.00     0.043 A 
HETATM   26  C   UNL     1      -9.804   2.067 -34.199  1.00  0.00     0.012 A 
ENDBRANCH   1  20
TORSDOF 4
ENDMDL
MODEL 5
REMARK VINA RESULT:      -7.9      1.222      2.183
REMARK  4 active torsions:
REMARK  status: ('A' for Active; 'I' for Inactive)
REMARK    1  A    between atoms: C_5  and  C_6 
REMARK    2  A    between atoms: C_6  and  N_7 
REMARK    3  A    between atoms: C_6  and  C_18 
REMARK    4  A    between atoms: N_7  and  C_8 
ROOT
HETATM    1  C   UNL     1      -6.132   0.632 -33.204  1.00  0.00     0.288 C 
ENDROOT
BRANCH   1   2
HETATM    2  C   UNL     1      -7.640   0.797 -33.327  1.00  0.00    -0.003 A 
HETATM    3  C   UNL     1      -8.155   1.805 -34.143  1.00  0.00     0.126 A 
HETATM    4  N   UNL     1      -9.471   2.062 -34.306  1.00  0.00    -0.272 NA
HETATM    5  C   UNL     1     -10.337   1.273 -33.640  1.00  0.00     0.116 A 
HETATM    6  C   UNL     1      -9.942   0.245 -32.803  1.00  0.00     0.020 A 
HETATM    7  C   UNL     1      -8.577   0.012 -32.642  1.00  0.00     0.012 A 
ENDBRANCH   1   2
BRANCH   1   8
HETATM    8  N   UNL     1      -5.584   1.317 -32.003  1.00  0.00     0.101 NA
HETATM    9  H   UNL     1      -4.880   0.686 -31.616  1.00  0.00     0.317 HD
BRANCH   8  10
HETATM   10  C   UNL     1      -5.013   2.663 -32.133  1.00  0.00     0.225 C 
HETATM   11  C   UNL     1      -5.337   3.596 -30.947  1.00  0.00     0.069 C 
HETATM   12  C   UNL     1      -4.577   4.902 -31.078  1.00  0.00     0.190 C 
HETATM   13  N   UNL     1      -3.107   4.597 -31.113  1.00  0.00    -0.067 N 
HETATM   14  C   UNL     1      -4.653   5.863 -29.909  1.00  0.00     0.035 C 
HETATM   15  H   UNL     1      -2.884   4.019 -30.288  1.00  0.00     0.280 HD
HETATM   16  C   UNL     1      -2.723   3.811 -32.321  1.00  0.00     0.237 C 
HETATM   17  C   UNL     1      -2.413   5.917 -30.894  1.00  0.00     0.235 C 
HETATM   18  C   UNL     1      -3.480   2.485 -32.278  1.00  0.00     0.063 C 
HETATM   19  C   UNL     1      -3.433   6.756 -30.123  1.00  0.00     0.030 C 
ENDBRANCH   8  10
ENDBRANCH   1   8
BRANCH   1  20
HETATM   20  C   UNL     1      -5.518  -0.746 -33.473  1.00  0.00    -0.021 A 
HETATM   21  C   UNL     1      -5.935  -1.587 -34.522  1.00  0.00     0.012 A 
HETATM   22  C   UNL     1      -5.321  -2.825 -34.739  1.00  0.00     0.043 A 
HETATM   23  C   UNL     1      -4.264  -3.222 -33.934  1.00  0.00     0.116 A 
HETATM   24  F   UNL     1      -3.682  -4.409 -34.141  1.00  0.00    -0.206 F 
HETATM   25  C   UNL     1      -3.793  -2.397 -32.924  1.00  0.00     0.043 A 
HETATM   26  C   UNL     1      -4.407  -1.163 -32.705  1.00  0.00     0.012 A 
ENDBRANCH   1  20
TORSDOF 4
ENDMDL
MODEL 6
REMARK VINA RESULT:      -7.9      3.093      7.041
REMARK  4 active torsions:
REMARK  status: ('A' for Active; 'I' for Inactive)
REMARK    1  A    between atoms: C_5  and  C_6 
REMARK    2  A    between atoms: C_6  and  N_7 
REMARK    3  A    between atoms: C_6  and  C_18 
REMARK    4  A    between atoms: N_7  and  C_8 
ROOT
HETATM    1  C   UNL     1      -6.966   0.877 -33.263  1.00  0.00     0.288 C 
ENDROOT
BRANCH   1   2
HETATM    2  C   UNL     1      -6.310  -0.434 -33.674  1.00  0.00    -0.003 A 
HETATM    3  C   UNL     1      -4.944  -0.615 -33.452  1.00  0.00     0.126 A 
HETATM    4  N   UNL     1      -4.252  -1.722 -33.801  1.00  0.00    -0.272 NA
HETATM    5  C   UNL     1      -4.944  -2.718 -34.388  1.00  0.00     0.116 A 
HETATM    6  C   UNL     1      -6.298  -2.649 -34.658  1.00  0.00     0.020 A 
HETATM    7  C   UNL     1      -6.985  -1.489 -34.301  1.00  0.00     0.012 A 
ENDBRANCH   1   2
BRANCH   1   8
HETATM    8  N   UNL     1      -8.280   0.669 -32.601  1.00  0.00     0.101 NA
HETATM    9  H   UNL     1      -8.196   1.086 -31.670  1.00  0.00     0.317 HD
BRANCH   8  10
HETATM   10  C   UNL     1      -9.504   1.160 -33.246  1.00  0.00     0.225 C 
HETATM   11  C   UNL     1     -10.678   0.158 -33.204  1.00  0.00     0.069 C 
HETATM   12  C   UNL     1     -11.942   0.802 -33.738  1.00  0.00     0.190 C 
HETATM   13  N   UNL     1     -12.257   2.006 -32.897  1.00  0.00    -0.067 N 
HETATM   14  C   UNL     1     -13.226   0.007 -33.611  1.00  0.00     0.035 C 
HETATM   15  H   UNL     1     -12.278   1.706 -31.910  1.00  0.00     0.280 HD
HETATM   16  C   UNL     1     -11.212   3.064 -33.015  1.00  0.00     0.237 C 
HETATM   17  C   UNL     1     -13.673   2.386 -33.245  1.00  0.00     0.235 C 
HETATM   18  C   UNL     1      -9.891   2.476 -32.524  1.00  0.00     0.063 C 
HETATM   19  C   UNL     1     -14.305   1.081 -33.733  1.00  0.00     0.030 C 
ENDBRANCH   8  10
ENDBRANCH   1   8
BRANCH   1  20
HETATM   20  C   UNL     1      -6.100   1.961 -32.610  1.00  0.00    -0.021 A 
HETATM   21  C   UNL     1      -5.506   3.014 -33.330  1.00  0.00     0.012 A 
HETATM   22  C   UNL     1      -4.746   3.992 -32.680  1.00  0.00     0.043 A 
HETATM   23  C   UNL     1      -4.600   3.949 -31.301  1.00  0.00     0.116 A 
HETATM   24  F   UNL     1      -3.869   4.883 -30.682  1.00  0.00    -0.206 F 
HETATM   25  C   UNL     1      -5.214   2.955 -30.554  1.00  0.00     0.043 A 
HETATM   26  C   UNL     1      -5.969   1.977 -31.203  1.00  0.00     0.012 A 
ENDBRANCH   1  20
TORSDOF 4
ENDMDL
MODEL 7
REMARK VINA RESULT:      -7.9      3.671      7.331
REMARK  4 active torsions:
REMARK  status: ('A' for Active; 'I' for Inactive)
REMARK    1  A    between atoms: C_5  and  C_6 
REMARK    2  A    between atoms: C_6  and  N_7 
REMARK    3  A    between atoms: C_6  and  C_18 
REMARK    4  A    between atoms: N_7  and  C_8 
ROOT
HETATM    1  C   UNL     1      -4.731   2.995 -32.054  1.00  0.00     0.288 C 
ENDROOT
BRANCH   1   2
HETATM    2  C   UNL     1      -3.951   3.877 -33.018  1.00  0.00    -0.003 A 
HETATM    3  C   UNL     1      -4.639   4.603 -33.991  1.00  0.00     0.126 A 
HETATM    4  N   UNL     1      -4.050   5.394 -34.915  1.00  0.00    -0.272 NA
HETATM    5  C   UNL     1      -2.707   5.492 -34.873  1.00  0.00     0.116 A 
HETATM    6  C   UNL     1      -1.923   4.818 -33.954  1.00  0.00     0.020 A 
HETATM    7  C   UNL     1      -2.555   3.997 -33.021  1.00  0.00     0.012 A 
ENDBRANCH   1   2
BRANCH   1   8
HETATM    8  N   UNL     1      -3.925   1.847 -31.559  1.00  0.00     0.101 NA
HETATM    9  H   UNL     1      -3.823   1.988 -30.551  1.00  0.00     0.317 HD
BRANCH   8  10
HETATM   10  C   UNL     1      -4.383   0.476 -31.815  1.00  0.00     0.225 C 
HETATM   11  C   UNL     1      -5.273   0.337 -33.068  1.00  0.00     0.069 C 
HETATM   12  C   UNL     1      -5.562  -1.124 -33.353  1.00  0.00     0.190 C 
HETATM   13  N   UNL     1      -4.256  -1.837 -33.562  1.00  0.00    -0.067 N 
HETATM   14  C   UNL     1      -6.284  -1.443 -34.646  1.00  0.00     0.035 C 
HETATM   15  H   UNL     1      -3.729  -1.324 -34.286  1.00  0.00     0.280 HD
HETATM   16  C   UNL     1      -3.417  -1.848 -32.329  1.00  0.00     0.237 C 
HETATM   17  C   UNL     1      -4.613  -3.167 -34.172  1.00  0.00     0.235 C 
HETATM   18  C   UNL     1      -3.111  -0.399 -31.956  1.00  0.00     0.063 C 
HETATM   19  C   UNL     1      -5.953  -2.917 -34.866  1.00  0.00     0.030 C 
ENDBRANCH   8  10
ENDBRANCH   1   8
BRANCH   1  20
HETATM   20  C   UNL     1      -5.594   3.664 -30.978  1.00  0.00    -0.021 A 
HETATM   21  C   UNL     1      -6.833   3.150 -30.551  1.00  0.00     0.012 A 
HETATM   22  C   UNL     1      -7.569   3.787 -29.546  1.00  0.00     0.043 A 
HETATM   23  C   UNL     1      -7.060   4.922 -28.933  1.00  0.00     0.116 A 
HETATM   24  F   UNL     1      -7.768   5.532 -27.975  1.00  0.00    -0.206 F 
HETATM   25  C   UNL     1      -5.819   5.426 -29.291  1.00  0.00     0.043 A 
HETATM   26  C   UNL     1      -5.087   4.794 -30.297  1.00  0.00     0.012 A 
ENDBRANCH   1  20
TORSDOF 4
ENDMDL
MODEL 8
REMARK VINA RESULT:      -7.5      2.731      4.897
REMARK  4 active torsions:
REMARK  status: ('A' for Active; 'I' for Inactive)
REMARK    1  A    between atoms: C_5  and  C_6 
REMARK    2  A    between atoms: C_6  and  N_7 
REMARK    3  A    between atoms: C_6  and  C_18 
REMARK    4  A    between atoms: N_7  and  C_8 
ROOT
HETATM    1  C   UNL     1      -5.815   1.555 -32.494  1.00  0.00     0.288 C 
ENDROOT
BRANCH   1   2
HETATM    2  C   UNL     1      -4.836   0.400 -32.338  1.00  0.00    -0.003 A 
HETATM    3  C   UNL     1      -3.788   0.509 -31.422  1.00  0.00     0.126 A 
HETATM    4  N   UNL     1      -2.846  -0.438 -31.221  1.00  0.00    -0.272 NA
HETATM    5  C   UNL     1      -2.945  -1.567 -31.950  1.00  0.00     0.116 A 
HETATM    6  C   UNL     1      -3.939  -1.784 -32.886  1.00  0.00     0.020 A 
HETATM    7  C   UNL     1      -4.890  -0.784 -33.085  1.00  0.00     0.012 A 
ENDBRANCH   1   2
BRANCH   1   8
HETATM    8  N   UNL     1      -5.262   2.657 -33.325  1.00  0.00     0.101 NA
HETATM    9  H   UNL     1      -6.043   3.005 -33.886  1.00  0.00     0.317 HD
BRANCH   8  10
HETATM   10  C   UNL     1      -4.587   3.787 -32.676  1.00  0.00     0.225 C 
HETATM   11  C   UNL     1      -3.061   3.821 -32.910  1.00  0.00     0.069 C 
HETATM   12  C   UNL     1      -2.469   5.100 -32.350  1.00  0.00     0.190 C 
HETATM   13  N   UNL     1      -3.125   6.268 -33.031  1.00  0.00    -0.067 N 
HETATM   14  C   UNL     1      -1.007   5.368 -32.646  1.00  0.00     0.035 C 
HETATM   15  H   UNL     1      -3.038   6.129 -34.049  1.00  0.00     0.280 HD
HETATM   16  C   UNL     1      -4.582   6.355 -32.720  1.00  0.00     0.237 C 
HETATM   17  C   UNL     1      -2.271   7.463 -32.699  1.00  0.00     0.235 C 
HETATM   18  C   UNL     1      -5.247   5.077 -33.226  1.00  0.00     0.063 C 
HETATM   19  C   UNL     1      -0.886   6.874 -32.426  1.00  0.00     0.030 C 
ENDBRANCH   8  10
ENDBRANCH   1   8
BRANCH   1  20
HETATM   20  C   UNL     1      -7.288   1.238 -32.775  1.00  0.00    -0.021 A 
HETATM   21  C   UNL     1      -7.885   1.389 -34.040  1.00  0.00     0.012 A 
HETATM   22  C   UNL     1      -9.229   1.060 -34.247  1.00  0.00     0.043 A 
HETATM   23  C   UNL     1      -9.981   0.543 -33.202  1.00  0.00     0.116 A 
HETATM   24  F   UNL     1     -11.268   0.234 -33.401  1.00  0.00    -0.206 F 
HETATM   25  C   UNL     1      -9.412   0.332 -31.956  1.00  0.00     0.043 A 
HETATM   26  C   UNL     1      -8.073   0.664 -31.748  1.00  0.00     0.012 A 
ENDBRANCH   1  20
TORSDOF 4
ENDMDL
MODEL 9
REMARK VINA RESULT:      -7.4      2.476      4.679
REMARK  4 active torsions:
REMARK  status: ('A' for Active; 'I' for Inactive)
REMARK    1  A    between atoms: C_5  and  C_6 
REMARK    2  A    between atoms: C_6  and  N_7 
REMARK    3  A    between atoms: C_6  and  C_18 
REMARK    4  A    between atoms: N_7  and  C_8 
ROOT
HETATM    1  C   UNL     1      -6.625   0.034 -33.263  1.00  0.00     0.288 C 
ENDROOT
BRANCH   1   2
HETATM    2  C   UNL     1      -6.099  -1.311 -33.740  1.00  0.00    -0.003 A 
HETATM    3  C   UNL     1      -4.795  -1.690 -33.418  1.00  0.00     0.126 A 
HETATM    4  N   UNL     1      -4.213  -2.845 -33.811  1.00  0.00    -0.272 NA
HETATM    5  C   UNL     1      -4.961  -3.687 -34.550  1.00  0.00     0.116 A 
HETATM    6  C   UNL     1      -6.263  -3.416 -34.930  1.00  0.00     0.020 A 
HETATM    7  C   UNL     1      -6.833  -2.211 -34.524  1.00  0.00     0.012 A 
ENDBRANCH   1   2
BRANCH   1   8
HETATM    8  N   UNL     1      -5.722   1.158 -33.628  1.00  0.00     0.101 NA
HETATM    9  H   UNL     1      -6.210   1.686 -34.356  1.00  0.00     0.317 HD
BRANCH   8  10
HETATM   10  C   UNL     1      -5.254   2.081 -32.587  1.00  0.00     0.225 C 
HETATM   11  C   UNL     1      -5.769   3.526 -32.755  1.00  0.00     0.069 C 
HETATM   12  C   UNL     1      -5.379   4.369 -31.557  1.00  0.00     0.190 C 
HETATM   13  N   UNL     1      -5.969   3.748 -30.323  1.00  0.00    -0.067 N 
HETATM   14  C   UNL     1      -5.952   5.770 -31.486  1.00  0.00     0.035 C 
HETATM   15  H   UNL     1      -6.981   3.622 -30.486  1.00  0.00     0.280 HD
HETATM   16  C   UNL     1      -5.396   2.399 -30.043  1.00  0.00     0.237 C 
HETATM   17  C   UNL     1      -5.849   4.793 -29.245  1.00  0.00     0.235 C 
HETATM   18  C   UNL     1      -5.720   1.495 -31.229  1.00  0.00     0.063 C 
HETATM   19  C   UNL     1      -5.817   6.119 -30.006  1.00  0.00     0.030 C 
ENDBRANCH   8  10
ENDBRANCH   1   8
BRANCH   1  20
HETATM   20  C   UNL     1      -8.116   0.346 -33.440  1.00  0.00    -0.021 A 
HETATM   21  C   UNL     1      -9.130  -0.273 -32.686  1.00  0.00     0.012 A 
HETATM   22  C   UNL     1     -10.475   0.068 -32.870  1.00  0.00     0.043 A 
HETATM   23  C   UNL     1     -10.817   1.055 -33.783  1.00  0.00     0.116 A 
HETATM   24  F   UNL     1     -12.104   1.376 -33.960  1.00  0.00    -0.206 F 
HETATM   25  C   UNL     1      -9.840   1.723 -34.504  1.00  0.00     0.043 A 
HETATM   26  C   UNL     1      -8.499   1.380 -34.324  1.00  0.00     0.012 A 
ENDBRANCH   1  20
TORSDOF 4
ENDMDL
MODEL 10
REMARK VINA RESULT:      -7.4      3.080      6.767
REMARK  4 active torsions:
REMARK  status: ('A' for Active; 'I' for Inactive)
REMARK    1  A    between atoms: C_5  and  C_6 
REMARK    2  A    between atoms: C_6  and  N_7 
REMARK    3  A    between atoms: C_6  and  C_18 
REMARK    4  A    between atoms: N_7  and  C_8 
ROOT
HETATM    1  C   UNL     1      -6.609   1.640 -33.416  1.00  0.00     0.288 C 
ENDROOT
BRANCH   1   2
HETATM    2  C   UNL     1      -6.103   0.230 -33.685  1.00  0.00    -0.003 A 
HETATM    3  C   UNL     1      -5.020  -0.260 -32.954  1.00  0.00     0.126 A 
HETATM    4  N   UNL     1      -4.470  -1.482 -33.127  1.00  0.00    -0.272 NA
HETATM    5  C   UNL     1      -5.026  -2.278 -34.061  1.00  0.00     0.116 A 
HETATM    6  C   UNL     1      -6.100  -1.898 -34.845  1.00  0.00     0.020 A 
HETATM    7  C   UNL     1      -6.639  -0.626 -34.656  1.00  0.00     0.012 A 
ENDBRANCH   1   2
BRANCH   1   8
HETATM    8  N   UNL     1      -7.640   1.678 -32.346  1.00  0.00     0.101 NA
HETATM    9  H   UNL     1      -7.311   2.363 -31.662  1.00  0.00     0.317 HD
BRANCH   8  10
HETATM   10  C   UNL     1      -9.036   1.969 -32.694  1.00  0.00     0.225 C 
HETATM   11  C   UNL     1      -9.195   2.968 -33.860  1.00  0.00     0.069 C 
HETATM   12  C   UNL     1     -10.652   3.083 -34.262  1.00  0.00     0.190 C 
HETATM   13  N   UNL     1     -11.145   1.724 -34.672  1.00  0.00    -0.067 N 
HETATM   14  C   UNL     1     -10.961   3.897 -35.503  1.00  0.00     0.035 C 
HETATM   15  H   UNL     1     -10.499   1.357 -35.388  1.00  0.00     0.280 HD
HETATM   16  C   UNL     1     -11.139   0.758 -33.536  1.00  0.00     0.237 C 
HETATM   17  C   UNL     1     -12.455   1.962 -35.376  1.00  0.00     0.235 C 
HETATM   18  C   UNL     1      -9.699   0.613 -33.049  1.00  0.00     0.063 C 
HETATM   19  C   UNL     1     -12.346   3.393 -35.904  1.00  0.00     0.030 C 
ENDBRANCH   8  10
ENDBRANCH   1   8
BRANCH   1  20
HETATM   20  C   UNL     1      -5.592   2.786 -33.347  1.00  0.00    -0.021 A 
HETATM   21  C   UNL     1      -4.502   2.799 -32.457  1.00  0.00     0.012 A 
HETATM   22  C   UNL     1      -3.588   3.859 -32.454  1.00  0.00     0.043 A 
HETATM   23  C   UNL     1      -3.733   4.898 -33.362  1.00  0.00     0.116 A 
HETATM   24  F   UNL     1      -2.861   5.912 -33.353  1.00  0.00    -0.206 F 
HETATM   25  C   UNL     1      -4.765   4.891 -34.287  1.00  0.00     0.043 A 
HETATM   26  C   UNL     1      -5.679   3.837 -34.288  1.00  0.00     0.012 A 
ENDBRANCH   1  20
TORSDOF 4
ENDMDL
