MODEL 1
REMARK VINA RESULT:      -8.1      0.000      0.000
REMARK  6 active torsions:
REMARK  status: ('A' for Active; 'I' for Inactive)
REMARK    1  A    between atoms: C_2  and  N_3 
REMARK    2  A    between atoms: C_2  and  C_21 
REMARK       I    between atoms: N_3  and  C_4 
REMARK       I    between atoms: C_4  and  N_5 
REMARK    3  A    between atoms: N_5  and  C_6 
REMARK    4  A    between atoms: C_6  and  C_7 
REMARK    5  A    between atoms: C_10  and  O_11 
REMARK    6  A    between atoms: O_11  and  C_12 
ROOT
HETATM    1  N   UNL     1      -3.269   5.396 -30.908  1.00  0.00    -0.332 N 
HETATM    2  C   UNL     1      -4.515   4.848 -30.886  1.00  0.00     0.317 C 
HETATM    3  N   UNL     1      -4.580   3.776 -30.037  1.00  0.00    -0.339 N 
HETATM    4  O   UNL     1      -5.458   5.255 -31.550  1.00  0.00    -0.247 OA
HETATM    5  H   UNL     1      -2.636   5.206 -30.145  1.00  0.00     0.165 HD
HETATM    6  H   UNL     1      -3.710   3.290 -29.888  1.00  0.00     0.164 HD
ENDROOT
BRANCH   3   7
HETATM    7  C   UNL     1      -5.784   2.981 -29.994  1.00  0.00     0.162 C 
BRANCH   7   8
HETATM    8  C   UNL     1      -5.593   1.677 -30.718  1.00  0.00    -0.040 A 
HETATM    9  C   UNL     1      -6.622   0.727 -30.760  1.00  0.00     0.011 A 
HETATM   10  C   UNL     1      -6.443  -0.494 -31.423  1.00  0.00     0.037 A 
HETATM   11  C   UNL     1      -5.229  -0.785 -32.043  1.00  0.00     0.069 A 
HETATM   12  C   UNL     1      -4.197   0.154 -31.987  1.00  0.00     0.037 A 
HETATM   13  C   UNL     1      -4.372   1.374 -31.330  1.00  0.00     0.011 A 
BRANCH  11  14
HETATM   14  O   UNL     1      -4.915  -1.925 -32.726  1.00  0.00    -0.346 OA
BRANCH  14  15
HETATM   15  C   UNL     1      -4.794  -1.887 -34.153  1.00  0.00     0.129 C 
HETATM   16  C   UNL     1      -4.146  -3.176 -34.678  1.00  0.00     0.032 C 
HETATM   17  C   UNL     1      -5.007  -4.409 -34.405  1.00  0.00     0.002 C 
HETATM   18  C   UNL     1      -6.417  -4.245 -34.966  1.00  0.00     0.000 C 
HETATM   19  C   UNL     1      -7.080  -2.970 -34.458  1.00  0.00     0.002 C 
HETATM   20  C   UNL     1      -6.213  -1.738 -34.723  1.00  0.00     0.032 C 
ENDBRANCH  14  15
ENDBRANCH  11  14
ENDBRANCH   7   8
ENDBRANCH   3   7
BRANCH   1  21
HETATM   21  C   UNL     1      -2.950   6.569 -31.713  1.00  0.00     0.155 C 
HETATM   22  C   UNL     1      -1.811   7.378 -31.095  1.00  0.00     0.041 C 
BRANCH  21  23
HETATM   23  C   UNL     1      -2.592   6.106 -33.101  1.00  0.00     0.169 A 
HETATM   24  N   UNL     1      -3.463   6.115 -34.128  1.00  0.00    -0.156 NA
HETATM   25  N   UNL     1      -2.705   5.632 -35.126  1.00  0.00    -0.270 N 
HETATM   26  H   UNL     1      -3.105   5.524 -36.051  1.00  0.00     0.190 HD
HETATM   27  C   UNL     1      -1.447   5.352 -34.699  1.00  0.00     0.227 A 
HETATM   28  N   UNL     1      -1.341   5.637 -33.423  1.00  0.00    -0.223 NA
ENDBRANCH  21  23
ENDBRANCH   1  21
TORSDOF 6
ENDMDL
MODEL 2
REMARK VINA RESULT:      -8.0      1.837      2.518
REMARK  6 active torsions:
REMARK  status: ('A' for Active; 'I' for Inactive)
REMARK    1  A    between atoms: C_2  and  N_3 
REMARK    2  A    between atoms: C_2  and  C_21 
REMARK       I    between atoms: N_3  and  C_4 
REMARK       I    between atoms: C_4  and  N_5 
REMARK    3  A    between atoms: N_5  and  C_6 
REMARK    4  A    between atoms: C_6  and  C_7 
REMARK    5  A    between atoms: C_10  and  O_11 
REMARK    6  A    between atoms: O_11  and  C_12 
ROOT
HETATM    1  N   UNL     1      -2.909   4.783 -32.678  1.00  0.00    -0.332 N 
HETATM    2  C   UNL     1      -3.395   3.757 -31.926  1.00  0.00     0.317 C 
HETATM    3  N   UNL     1      -4.736   3.897 -31.689  1.00  0.00    -0.339 N 
HETATM    4  O   UNL     1      -2.716   2.832 -31.504  1.00  0.00    -0.247 OA
HETATM    5  H   UNL     1      -3.552   5.340 -33.223  1.00  0.00     0.165 HD
HETATM    6  H   UNL     1      -5.081   4.844 -31.704  1.00  0.00     0.164 HD
ENDROOT
BRANCH   3   7
HETATM    7  C   UNL     1      -5.393   2.980 -30.788  1.00  0.00     0.162 C 
BRANCH   7   8
HETATM    8  C   UNL     1      -5.699   1.678 -31.475  1.00  0.00    -0.040 A 
HETATM    9  C   UNL     1      -5.332   0.459 -30.889  1.00  0.00     0.011 A 
HETATM   10  C   UNL     1      -5.605  -0.755 -31.533  1.00  0.00     0.037 A 
HETATM   11  C   UNL     1      -6.235  -0.765 -32.775  1.00  0.00     0.069 A 
HETATM   12  C   UNL     1      -6.585   0.450 -33.369  1.00  0.00     0.037 A 
HETATM   13  C   UNL     1      -6.319   1.663 -32.729  1.00  0.00     0.011 A 
BRANCH  11  14
HETATM   14  O   UNL     1      -6.566  -1.866 -33.514  1.00  0.00    -0.346 OA
BRANCH  14  15
HETATM   15  C   UNL     1      -5.911  -2.103 -34.766  1.00  0.00     0.129 C 
HETATM   16  C   UNL     1      -4.424  -2.417 -34.551  1.00  0.00     0.032 C 
HETATM   17  C   UNL     1      -4.214  -3.711 -33.764  1.00  0.00     0.002 C 
HETATM   18  C   UNL     1      -4.926  -4.889 -34.422  1.00  0.00     0.000 C 
HETATM   19  C   UNL     1      -6.406  -4.600 -34.646  1.00  0.00     0.002 C 
HETATM   20  C   UNL     1      -6.615  -3.300 -35.424  1.00  0.00     0.032 C 
ENDBRANCH  14  15
ENDBRANCH  11  14
ENDBRANCH   7   8
ENDBRANCH   3   7
BRANCH   1  21
HETATM   21  C   UNL     1      -1.513   4.851 -33.092  1.00  0.00     0.155 C 
HETATM   22  C   UNL     1      -1.357   5.595 -34.417  1.00  0.00     0.041 C 
BRANCH  21  23
HETATM   23  C   UNL     1      -0.728   5.526 -31.998  1.00  0.00     0.169 A 
HETATM   24  N   UNL     1      -0.692   6.862 -31.834  1.00  0.00    -0.156 NA
HETATM   25  N   UNL     1       0.108   6.978 -30.761  1.00  0.00    -0.270 N 
HETATM   26  H   UNL     1       0.323   7.899 -30.394  1.00  0.00     0.190 HD
HETATM   27  C   UNL     1       0.522   5.762 -30.320  1.00  0.00     0.227 A 
HETATM   28  N   UNL     1       0.015   4.822 -31.081  1.00  0.00    -0.223 NA
ENDBRANCH  21  23
ENDBRANCH   1  21
TORSDOF 6
ENDMDL
MODEL 3
REMARK VINA RESULT:      -7.5      2.142      2.611
REMARK  6 active torsions:
REMARK  status: ('A' for Active; 'I' for Inactive)
REMARK    1  A    between atoms: C_2  and  N_3 
REMARK    2  A    between atoms: C_2  and  C_21 
REMARK       I    between atoms: N_3  and  C_4 
REMARK       I    between atoms: C_4  and  N_5 
REMARK    3  A    between atoms: N_5  and  C_6 
REMARK    4  A    between atoms: C_6  and  C_7 
REMARK    5  A    between atoms: C_10  and  O_11 
REMARK    6  A    between atoms: O_11  and  C_12 
ROOT
HETATM    1  N   UNL     1      -5.940   5.425 -32.198  1.00  0.00    -0.332 N 
HETATM    2  C   UNL     1      -6.881   4.851 -32.998  1.00  0.00     0.317 C 
HETATM    3  N   UNL     1      -7.611   3.910 -32.323  1.00  0.00    -0.339 N 
HETATM    4  O   UNL     1      -7.046   5.132 -34.176  1.00  0.00    -0.247 OA
HETATM    5  H   UNL     1      -6.045   5.364 -31.195  1.00  0.00     0.165 HD
HETATM    6  H   UNL     1      -7.141   3.475 -31.545  1.00  0.00     0.164 HD
ENDROOT
BRANCH   3   7
HETATM    7  C   UNL     1      -8.557   3.096 -33.048  1.00  0.00     0.162 C 
BRANCH   7   8
HETATM    8  C   UNL     1      -8.000   1.723 -33.304  1.00  0.00    -0.040 A 
HETATM    9  C   UNL     1      -8.061   1.156 -34.583  1.00  0.00     0.011 A 
HETATM   10  C   UNL     1      -7.553  -0.129 -34.822  1.00  0.00     0.037 A 
HETATM   11  C   UNL     1      -6.991  -0.866 -33.782  1.00  0.00     0.069 A 
HETATM   12  C   UNL     1      -6.946  -0.308 -32.502  1.00  0.00     0.037 A 
HETATM   13  C   UNL     1      -7.447   0.973 -32.260  1.00  0.00     0.011 A 
BRANCH  11  14
HETATM   14  O   UNL     1      -6.457  -2.120 -33.867  1.00  0.00    -0.346 OA
BRANCH  14  15
HETATM   15  C   UNL     1      -5.653  -2.473 -34.999  1.00  0.00     0.129 C 
HETATM   16  C   UNL     1      -4.187  -2.667 -34.585  1.00  0.00     0.032 C 
HETATM   17  C   UNL     1      -4.009  -3.835 -33.616  1.00  0.00     0.002 C 
HETATM   18  C   UNL     1      -4.586  -5.129 -34.184  1.00  0.00     0.000 C 
HETATM   19  C   UNL     1      -6.042  -4.960 -34.602  1.00  0.00     0.002 C 
HETATM   20  C   UNL     1      -6.220  -3.785 -35.564  1.00  0.00     0.032 C 
ENDBRANCH  14  15
ENDBRANCH  11  14
ENDBRANCH   7   8
ENDBRANCH   3   7
BRANCH   1  21
HETATM   21  C   UNL     1      -5.052   6.478 -32.674  1.00  0.00     0.155 C 
HETATM   22  C   UNL     1      -4.623   7.405 -31.538  1.00  0.00     0.041 C 
BRANCH  21  23
HETATM   23  C   UNL     1      -3.857   5.831 -33.324  1.00  0.00     0.169 A 
HETATM   24  N   UNL     1      -3.647   5.839 -34.655  1.00  0.00    -0.156 NA
HETATM   25  N   UNL     1      -2.489   5.164 -34.746  1.00  0.00    -0.270 N 
HETATM   26  H   UNL     1      -2.072   5.009 -35.657  1.00  0.00     0.190 HD
HETATM   27  C   UNL     1      -2.045   4.778 -33.522  1.00  0.00     0.227 A 
HETATM   28  N   UNL     1      -2.886   5.181 -32.601  1.00  0.00    -0.223 NA
ENDBRANCH  21  23
ENDBRANCH   1  21
TORSDOF 6
ENDMDL
MODEL 4
REMARK VINA RESULT:      -7.4      5.552      8.954
REMARK  6 active torsions:
REMARK  status: ('A' for Active; 'I' for Inactive)
REMARK    1  A    between atoms: C_2  and  N_3 
REMARK    2  A    between atoms: C_2  and  C_21 
REMARK       I    between atoms: N_3  and  C_4 
REMARK       I    between atoms: C_4  and  N_5 
REMARK    3  A    between atoms: N_5  and  C_6 
REMARK    4  A    between atoms: C_6  and  C_7 
REMARK    5  A    between atoms: C_10  and  O_11 
REMARK    6  A    between atoms: O_11  and  C_12 
ROOT
HETATM    1  N   UNL     1     -10.564   1.775 -34.800  1.00  0.00    -0.332 N 
HETATM    2  C   UNL     1      -9.617   1.523 -33.855  1.00  0.00     0.317 C 
HETATM    3  N   UNL     1      -8.505   0.939 -34.398  1.00  0.00    -0.339 N 
HETATM    4  O   UNL     1      -9.748   1.775 -32.665  1.00  0.00    -0.247 OA
HETATM    5  H   UNL     1     -10.290   1.813 -35.771  1.00  0.00     0.165 HD
HETATM    6  H   UNL     1      -8.662   0.412 -35.243  1.00  0.00     0.164 HD
ENDROOT
BRANCH   3   7
HETATM    7  C   UNL     1      -7.455   0.469 -33.525  1.00  0.00     0.162 C 
BRANCH   7   8
HETATM    8  C   UNL     1      -6.411   1.531 -33.319  1.00  0.00    -0.040 A 
HETATM    9  C   UNL     1      -5.371   1.340 -32.401  1.00  0.00     0.011 A 
HETATM   10  C   UNL     1      -4.403   2.333 -32.197  1.00  0.00     0.037 A 
HETATM   11  C   UNL     1      -4.472   3.534 -32.900  1.00  0.00     0.069 A 
HETATM   12  C   UNL     1      -5.519   3.733 -33.802  1.00  0.00     0.037 A 
HETATM   13  C   UNL     1      -6.483   2.745 -34.011  1.00  0.00     0.011 A 
BRANCH  11  14
HETATM   14  O   UNL     1      -3.602   4.584 -32.808  1.00  0.00    -0.346 OA
BRANCH  14  15
HETATM   15  C   UNL     1      -2.237   4.410 -33.205  1.00  0.00     0.129 C 
HETATM   16  C   UNL     1      -1.938   5.206 -34.484  1.00  0.00     0.032 C 
HETATM   17  C   UNL     1      -2.083   6.713 -34.275  1.00  0.00     0.002 C 
HETATM   18  C   UNL     1      -1.218   7.205 -33.117  1.00  0.00     0.000 C 
HETATM   19  C   UNL     1      -1.497   6.428 -31.836  1.00  0.00     0.002 C 
HETATM   20  C   UNL     1      -1.362   4.920 -32.049  1.00  0.00     0.032 C 
ENDBRANCH  14  15
ENDBRANCH  11  14
ENDBRANCH   7   8
ENDBRANCH   3   7
BRANCH   1  21
HETATM   21  C   UNL     1     -11.831   2.420 -34.478  1.00  0.00     0.155 C 
HETATM   22  C   UNL     1     -12.282   3.356 -35.598  1.00  0.00     0.041 C 
BRANCH  21  23
HETATM   23  C   UNL     1     -12.857   1.347 -34.225  1.00  0.00     0.169 A 
HETATM   24  N   UNL     1     -12.598   0.232 -33.515  1.00  0.00    -0.156 NA
HETATM   25  N   UNL     1     -13.785  -0.395 -33.560  1.00  0.00    -0.270 N 
HETATM   26  H   UNL     1     -13.896  -1.289 -33.095  1.00  0.00     0.190 HD
HETATM   27  C   UNL     1     -14.696   0.322 -34.266  1.00  0.00     0.227 A 
HETATM   28  N   UNL     1     -14.143   1.427 -34.704  1.00  0.00    -0.223 NA
ENDBRANCH  21  23
ENDBRANCH   1  21
TORSDOF 6
ENDMDL
MODEL 5
REMARK VINA RESULT:      -7.4      8.535     11.700
REMARK  6 active torsions:
REMARK  status: ('A' for Active; 'I' for Inactive)
REMARK    1  A    between atoms: C_2  and  N_3 
REMARK    2  A    between atoms: C_2  and  C_21 
REMARK       I    between atoms: N_3  and  C_4 
REMARK       I    between atoms: C_4  and  N_5 
REMARK    3  A    between atoms: N_5  and  C_6 
REMARK    4  A    between atoms: C_6  and  C_7 
REMARK    5  A    between atoms: C_10  and  O_11 
REMARK    6  A    between atoms: O_11  and  C_12 
ROOT
HETATM    1  N   UNL     1       4.475   7.939 -23.301  1.00  0.00    -0.332 N 
HETATM    2  C   UNL     1       3.681   8.853 -23.924  1.00  0.00     0.317 C 
HETATM    3  N   UNL     1       2.640   8.254 -24.581  1.00  0.00    -0.339 N 
HETATM    4  O   UNL     1       3.879  10.060 -23.909  1.00  0.00    -0.247 OA
HETATM    5  H   UNL     1       4.107   7.018 -23.111  1.00  0.00     0.165 HD
HETATM    6  H   UNL     1       2.806   7.304 -24.877  1.00  0.00     0.164 HD
ENDROOT
BRANCH   3   7
HETATM    7  C   UNL     1       1.778   9.054 -25.417  1.00  0.00     0.162 C 
BRANCH   7   8
HETATM    8  C   UNL     1       1.189   8.227 -26.528  1.00  0.00    -0.040 A 
HETATM    9  C   UNL     1       0.387   7.115 -26.241  1.00  0.00     0.011 A 
HETATM   10  C   UNL     1      -0.153   6.336 -27.273  1.00  0.00     0.037 A 
HETATM   11  C   UNL     1       0.113   6.652 -28.604  1.00  0.00     0.069 A 
HETATM   12  C   UNL     1       0.928   7.750 -28.891  1.00  0.00     0.037 A 
HETATM   13  C   UNL     1       1.465   8.531 -27.865  1.00  0.00     0.011 A 
BRANCH  11  14
HETATM   14  O   UNL     1      -0.345   5.989 -29.707  1.00  0.00    -0.346 OA
BRANCH  14  15
HETATM   15  C   UNL     1      -0.686   6.727 -30.886  1.00  0.00     0.129 C 
HETATM   16  C   UNL     1      -0.660   5.817 -32.123  1.00  0.00     0.032 C 
HETATM   17  C   UNL     1      -1.715   4.712 -32.049  1.00  0.00     0.002 C 
HETATM   18  C   UNL     1      -3.112   5.283 -31.827  1.00  0.00     0.000 C 
HETATM   19  C   UNL     1      -3.162   6.192 -30.604  1.00  0.00     0.002 C 
HETATM   20  C   UNL     1      -2.100   7.290 -30.674  1.00  0.00     0.032 C 
ENDBRANCH  14  15
ENDBRANCH  11  14
ENDBRANCH   7   8
ENDBRANCH   3   7
BRANCH   1  21
HETATM   21  C   UNL     1       5.635   8.328 -22.509  1.00  0.00     0.155 C 
HETATM   22  C   UNL     1       5.283   8.456 -21.027  1.00  0.00     0.041 C 
BRANCH  21  23
HETATM   23  C   UNL     1       6.717   7.303 -22.720  1.00  0.00     0.169 A 
HETATM   24  N   UNL     1       7.992   7.626 -23.014  1.00  0.00    -0.156 NA
HETATM   25  N   UNL     1       8.562   6.413 -23.101  1.00  0.00    -0.270 N 
HETATM   26  H   UNL     1       9.550   6.339 -23.317  1.00  0.00     0.190 HD
HETATM   27  C   UNL     1       7.659   5.426 -22.870  1.00  0.00     0.227 A 
HETATM   28  N   UNL     1       6.482   5.952 -22.629  1.00  0.00    -0.223 NA
ENDBRANCH  21  23
ENDBRANCH   1  21
TORSDOF 6
ENDMDL
MODEL 6
REMARK VINA RESULT:      -7.3      4.643      8.233
REMARK  6 active torsions:
REMARK  status: ('A' for Active; 'I' for Inactive)
REMARK    1  A    between atoms: C_2  and  N_3 
REMARK    2  A    between atoms: C_2  and  C_21 
REMARK       I    between atoms: N_3  and  C_4 
REMARK       I    between atoms: C_4  and  N_5 
REMARK    3  A    between atoms: N_5  and  C_6 
REMARK    4  A    between atoms: C_6  and  C_7 
REMARK    5  A    between atoms: C_10  and  O_11 
REMARK    6  A    between atoms: O_11  and  C_12 
ROOT
HETATM    1  N   UNL     1     -10.484   1.114 -32.738  1.00  0.00    -0.332 N 
HETATM    2  C   UNL     1      -9.270   0.537 -32.517  1.00  0.00     0.317 C 
HETATM    3  N   UNL     1      -8.690   1.004 -31.369  1.00  0.00    -0.339 N 
HETATM    4  O   UNL     1      -8.755  -0.288 -33.259  1.00  0.00    -0.247 OA
HETATM    5  H   UNL     1     -10.967   1.550 -31.966  1.00  0.00     0.165 HD
HETATM    6  H   UNL     1      -8.973   1.930 -31.089  1.00  0.00     0.164 HD
ENDROOT
BRANCH   3   7
HETATM    7  C   UNL     1      -7.338   0.613 -31.050  1.00  0.00     0.162 C 
BRANCH   7   8
HETATM    8  C   UNL     1      -6.371   1.723 -31.357  1.00  0.00    -0.040 A 
HETATM    9  C   UNL     1      -6.030   2.663 -30.376  1.00  0.00     0.011 A 
HETATM   10  C   UNL     1      -5.139   3.706 -30.663  1.00  0.00     0.037 A 
HETATM   11  C   UNL     1      -4.588   3.828 -31.937  1.00  0.00     0.069 A 
HETATM   12  C   UNL     1      -4.941   2.902 -32.920  1.00  0.00     0.037 A 
HETATM   13  C   UNL     1      -5.825   1.859 -32.639  1.00  0.00     0.011 A 
BRANCH  11  14
HETATM   14  O   UNL     1      -3.708   4.785 -32.356  1.00  0.00    -0.346 OA
BRANCH  14  15
HETATM   15  C   UNL     1      -2.466   4.394 -32.953  1.00  0.00     0.129 C 
HETATM   16  C   UNL     1      -2.284   5.068 -34.320  1.00  0.00     0.032 C 
HETATM   17  C   UNL     1      -2.186   6.590 -34.207  1.00  0.00     0.002 C 
HETATM   18  C   UNL     1      -1.080   7.011 -33.245  1.00  0.00     0.000 C 
HETATM   19  C   UNL     1      -1.239   6.353 -31.879  1.00  0.00     0.002 C 
HETATM   20  C   UNL     1      -1.347   4.832 -31.995  1.00  0.00     0.032 C 
ENDBRANCH  14  15
ENDBRANCH  11  14
ENDBRANCH   7   8
ENDBRANCH   3   7
BRANCH   1  21
HETATM   21  C   UNL     1     -11.316   0.762 -33.882  1.00  0.00     0.155 C 
HETATM   22  C   UNL     1     -12.677   0.227 -33.441  1.00  0.00     0.041 C 
BRANCH  21  23
HETATM   23  C   UNL     1     -11.471   1.984 -34.747  1.00  0.00     0.169 A 
HETATM   24  N   UNL     1     -10.535   2.950 -34.834  1.00  0.00    -0.156 NA
HETATM   25  N   UNL     1     -11.107   3.799 -35.703  1.00  0.00    -0.270 N 
HETATM   26  H   UNL     1     -10.618   4.646 -35.970  1.00  0.00     0.190 HD
HETATM   27  C   UNL     1     -12.324   3.350 -36.104  1.00  0.00     0.227 A 
HETATM   28  N   UNL     1     -12.587   2.207 -35.517  1.00  0.00    -0.223 NA
ENDBRANCH  21  23
ENDBRANCH   1  21
TORSDOF 6
ENDMDL
MODEL 7
REMARK VINA RESULT:      -7.0      3.400      5.389
REMARK  6 active torsions:
REMARK  status: ('A' for Active; 'I' for Inactive)
REMARK    1  A    between atoms: C_2  and  N_3 
REMARK    2  A    between atoms: C_2  and  C_21 
REMARK       I    between atoms: N_3  and  C_4 
REMARK       I    between atoms: C_4  and  N_5 
REMARK    3  A    between atoms: N_5  and  C_6 
REMARK    4  A    between atoms: C_6  and  C_7 
REMARK    5  A    between atoms: C_10  and  O_11 
REMARK    6  A    between atoms: O_11  and  C_12 
ROOT
HETATM    1  N   UNL     1      -0.751   6.663 -29.765  1.00  0.00    -0.332 N 
HETATM    2  C   UNL     1      -0.590   5.698 -30.712  1.00  0.00     0.317 C 
HETATM    3  N   UNL     1      -1.329   5.961 -31.833  1.00  0.00    -0.339 N 
HETATM    4  O   UNL     1       0.118   4.710 -30.573  1.00  0.00    -0.247 OA
HETATM    5  H   UNL     1      -1.103   7.569 -30.043  1.00  0.00     0.165 HD
HETATM    6  H   UNL     1      -2.153   6.523 -31.684  1.00  0.00     0.164 HD
ENDROOT
BRANCH   3   7
HETATM    7  C   UNL     1      -1.396   4.974 -32.884  1.00  0.00     0.162 C 
BRANCH   7   8
HETATM    8  C   UNL     1      -2.738   4.296 -32.899  1.00  0.00    -0.040 A 
HETATM    9  C   UNL     1      -3.776   4.786 -33.702  1.00  0.00     0.011 A 
HETATM   10  C   UNL     1      -5.032   4.163 -33.709  1.00  0.00     0.037 A 
HETATM   11  C   UNL     1      -5.268   3.051 -32.903  1.00  0.00     0.069 A 
HETATM   12  C   UNL     1      -4.240   2.573 -32.088  1.00  0.00     0.037 A 
HETATM   13  C   UNL     1      -2.986   3.187 -32.081  1.00  0.00     0.011 A 
BRANCH  11  14
HETATM   14  O   UNL     1      -6.433   2.344 -32.810  1.00  0.00    -0.346 OA
BRANCH  14  15
HETATM   15  C   UNL     1      -7.298   2.250 -33.949  1.00  0.00     0.129 C 
HETATM   16  C   UNL     1      -7.072   0.926 -34.694  1.00  0.00     0.032 C 
HETATM   17  C   UNL     1      -7.437  -0.288 -33.840  1.00  0.00     0.002 C 
HETATM   18  C   UNL     1      -8.868  -0.198 -33.319  1.00  0.00     0.000 C 
HETATM   19  C   UNL     1      -9.116   1.109 -32.575  1.00  0.00     0.002 C 
HETATM   20  C   UNL     1      -8.742   2.323 -33.427  1.00  0.00     0.032 C 
ENDBRANCH  14  15
ENDBRANCH  11  14
ENDBRANCH   7   8
ENDBRANCH   3   7
BRANCH   1  21
HETATM   21  C   UNL     1      -0.046   6.628 -28.489  1.00  0.00     0.155 C 
HETATM   22  C   UNL     1       0.852   7.851 -28.312  1.00  0.00     0.041 C 
BRANCH  21  23
HETATM   23  C   UNL     1      -1.068   6.543 -27.387  1.00  0.00     0.169 A 
HETATM   24  N   UNL     1      -0.867   5.857 -26.245  1.00  0.00    -0.156 NA
HETATM   25  N   UNL     1      -2.022   6.075 -25.595  1.00  0.00    -0.270 N 
HETATM   26  H   UNL     1      -2.163   5.670 -24.676  1.00  0.00     0.190 HD
HETATM   27  C   UNL     1      -2.861   6.853 -26.327  1.00  0.00     0.227 A 
HETATM   28  N   UNL     1      -2.292   7.164 -27.466  1.00  0.00    -0.223 NA
ENDBRANCH  21  23
ENDBRANCH   1  21
TORSDOF 6
ENDMDL
MODEL 8
REMARK VINA RESULT:      -7.0      4.758      9.161
REMARK  6 active torsions:
REMARK  status: ('A' for Active; 'I' for Inactive)
REMARK    1  A    between atoms: C_2  and  N_3 
REMARK    2  A    between atoms: C_2  and  C_21 
REMARK       I    between atoms: N_3  and  C_4 
REMARK       I    between atoms: C_4  and  N_5 
REMARK    3  A    between atoms: N_5  and  C_6 
REMARK    4  A    between atoms: C_6  and  C_7 
REMARK    5  A    between atoms: C_10  and  O_11 
REMARK    6  A    between atoms: O_11  and  C_12 
ROOT
HETATM    1  N   UNL     1      -6.396   4.790 -33.946  1.00  0.00    -0.332 N 
HETATM    2  C   UNL     1      -5.079   4.445 -33.890  1.00  0.00     0.317 C 
HETATM    3  N   UNL     1      -4.287   5.377 -34.505  1.00  0.00    -0.339 N 
HETATM    4  O   UNL     1      -4.658   3.424 -33.366  1.00  0.00    -0.247 OA
HETATM    5  H   UNL     1      -6.644   5.753 -34.126  1.00  0.00     0.165 HD
HETATM    6  H   UNL     1      -4.735   5.913 -35.232  1.00  0.00     0.164 HD
ENDROOT
BRANCH   3   7
HETATM    7  C   UNL     1      -2.879   5.108 -34.670  1.00  0.00     0.162 C 
BRANCH   7   8
HETATM    8  C   UNL     1      -2.085   5.679 -33.527  1.00  0.00    -0.040 A 
HETATM    9  C   UNL     1      -1.879   7.061 -33.422  1.00  0.00     0.011 A 
HETATM   10  C   UNL     1      -1.129   7.595 -32.365  1.00  0.00     0.037 A 
HETATM   11  C   UNL     1      -0.566   6.753 -31.409  1.00  0.00     0.069 A 
HETATM   12  C   UNL     1      -0.755   5.374 -31.522  1.00  0.00     0.037 A 
HETATM   13  C   UNL     1      -1.505   4.837 -32.571  1.00  0.00     0.011 A 
BRANCH  11  14
HETATM   14  O   UNL     1       0.181   7.130 -30.329  1.00  0.00    -0.346 OA
BRANCH  14  15
HETATM   15  C   UNL     1      -0.216   6.721 -29.015  1.00  0.00     0.129 C 
HETATM   16  C   UNL     1       0.920   6.951 -28.008  1.00  0.00     0.032 C 
HETATM   17  C   UNL     1       1.266   8.432 -27.854  1.00  0.00     0.002 C 
HETATM   18  C   UNL     1       0.038   9.260 -27.484  1.00  0.00     0.000 C 
HETATM   19  C   UNL     1      -1.104   9.047 -28.470  1.00  0.00     0.002 C 
HETATM   20  C   UNL     1      -1.442   7.564 -28.630  1.00  0.00     0.032 C 
ENDBRANCH  14  15
ENDBRANCH  11  14
ENDBRANCH   7   8
ENDBRANCH   3   7
BRANCH   1  21
HETATM   21  C   UNL     1      -7.440   3.975 -33.337  1.00  0.00     0.155 C 
HETATM   22  C   UNL     1      -7.621   4.312 -31.858  1.00  0.00     0.041 C 
BRANCH  21  23
HETATM   23  C   UNL     1      -8.718   4.196 -34.102  1.00  0.00     0.169 A 
HETATM   24  N   UNL     1      -8.998   5.341 -34.754  1.00  0.00    -0.156 NA
HETATM   25  N   UNL     1     -10.208   5.065 -35.270  1.00  0.00    -0.270 N 
HETATM   26  H   UNL     1     -10.684   5.764 -35.830  1.00  0.00     0.190 HD
HETATM   27  C   UNL     1     -10.615   3.815 -34.933  1.00  0.00     0.227 A 
HETATM   28  N   UNL     1      -9.699   3.238 -34.193  1.00  0.00    -0.223 NA
ENDBRANCH  21  23
ENDBRANCH   1  21
TORSDOF 6
ENDMDL
MODEL 9
REMARK VINA RESULT:      -6.9      3.561      5.186
REMARK  6 active torsions:
REMARK  status: ('A' for Active; 'I' for Inactive)
REMARK    1  A    between atoms: C_2  and  N_3 
REMARK    2  A    between atoms: C_2  and  C_21 
REMARK       I    between atoms: N_3  and  C_4 
REMARK       I    between atoms: C_4  and  N_5 
REMARK    3  A    between atoms: N_5  and  C_6 
REMARK    4  A    between atoms: C_6  and  C_7 
REMARK    5  A    between atoms: C_10  and  O_11 
REMARK    6  A    between atoms: O_11  and  C_12 
ROOT
HETATM    1  N   UNL     1      -1.325   6.640 -28.377  1.00  0.00    -0.332 N 
HETATM    2  C   UNL     1      -2.024   6.837 -29.529  1.00  0.00     0.317 C 
HETATM    3  N   UNL     1      -1.853   5.801 -30.406  1.00  0.00    -0.339 N 
HETATM    4  O   UNL     1      -2.709   7.824 -29.757  1.00  0.00    -0.247 OA
HETATM    5  H   UNL     1      -1.026   5.705 -28.138  1.00  0.00     0.165 HD
HETATM    6  H   UNL     1      -0.988   5.292 -30.310  1.00  0.00     0.164 HD
ENDROOT
BRANCH   3   7
HETATM    7  C   UNL     1      -2.402   5.904 -31.737  1.00  0.00     0.162 C 
BRANCH   7   8
HETATM    8  C   UNL     1      -3.217   4.687 -32.078  1.00  0.00    -0.040 A 
HETATM    9  C   UNL     1      -2.847   3.424 -31.600  1.00  0.00     0.011 A 
HETATM   10  C   UNL     1      -3.597   2.286 -31.926  1.00  0.00     0.037 A 
HETATM   11  C   UNL     1      -4.719   2.397 -32.744  1.00  0.00     0.069 A 
HETATM   12  C   UNL     1      -5.079   3.653 -33.237  1.00  0.00     0.037 A 
HETATM   13  C   UNL     1      -4.337   4.790 -32.911  1.00  0.00     0.011 A 
BRANCH  11  14
HETATM   14  O   UNL     1      -5.543   1.382 -33.140  1.00  0.00    -0.346 OA
BRANCH  14  15
HETATM   15  C   UNL     1      -5.819   0.301 -32.241  1.00  0.00     0.129 C 
HETATM   16  C   UNL     1      -7.323  -0.005 -32.204  1.00  0.00     0.032 C 
HETATM   17  C   UNL     1      -7.847  -0.493 -33.555  1.00  0.00     0.002 C 
HETATM   18  C   UNL     1      -7.062  -1.701 -34.058  1.00  0.00     0.000 C 
HETATM   19  C   UNL     1      -5.565  -1.421 -34.103  1.00  0.00     0.002 C 
HETATM   20  C   UNL     1      -5.043  -0.923 -32.754  1.00  0.00     0.032 C 
ENDBRANCH  14  15
ENDBRANCH  11  14
ENDBRANCH   7   8
ENDBRANCH   3   7
BRANCH   1  21
HETATM   21  C   UNL     1      -1.365   7.589 -27.271  1.00  0.00     0.155 C 
HETATM   22  C   UNL     1      -1.839   6.923 -25.980  1.00  0.00     0.041 C 
BRANCH  21  23
HETATM   23  C   UNL     1       0.011   8.177 -27.102  1.00  0.00     0.169 A 
HETATM   24  N   UNL     1       0.903   8.266 -28.108  1.00  0.00    -0.156 NA
HETATM   25  N   UNL     1       1.946   8.845 -27.489  1.00  0.00    -0.270 N 
HETATM   26  H   UNL     1       2.790   9.044 -28.014  1.00  0.00     0.190 HD
HETATM   27  C   UNL     1       1.674   9.081 -26.180  1.00  0.00     0.227 A 
HETATM   28  N   UNL     1       0.462   8.668 -25.900  1.00  0.00    -0.223 NA
ENDBRANCH  21  23
ENDBRANCH   1  21
TORSDOF 6
ENDMDL
MODEL 10
REMARK VINA RESULT:      -6.9      3.959      8.374
REMARK  6 active torsions:
REMARK  status: ('A' for Active; 'I' for Inactive)
REMARK    1  A    between atoms: C_2  and  N_3 
REMARK    2  A    between atoms: C_2  and  C_21 
REMARK       I    between atoms: N_3  and  C_4 
REMARK       I    between atoms: C_4  and  N_5 
REMARK    3  A    between atoms: N_5  and  C_6 
REMARK    4  A    between atoms: C_6  and  C_7 
REMARK    5  A    between atoms: C_10  and  O_11 
REMARK    6  A    between atoms: O_11  and  C_12 
ROOT
HETATM    1  N   UNL     1      -5.647  -1.233 -32.850  1.00  0.00    -0.332 N 
HETATM    2  C   UNL     1      -6.042  -0.001 -33.275  1.00  0.00     0.317 C 
HETATM    3  N   UNL     1      -6.883   0.597 -32.376  1.00  0.00    -0.339 N 
HETATM    4  O   UNL     1      -5.699   0.504 -34.335  1.00  0.00    -0.247 OA
HETATM    5  H   UNL     1      -5.725  -1.462 -31.869  1.00  0.00     0.165 HD
HETATM    6  H   UNL     1      -7.412  -0.033 -31.794  1.00  0.00     0.164 HD
ENDROOT
BRANCH   3   7
HETATM    7  C   UNL     1      -7.518   1.846 -32.725  1.00  0.00     0.162 C 
BRANCH   7   8
HETATM    8  C   UNL     1      -6.524   2.974 -32.719  1.00  0.00    -0.040 A 
HETATM    9  C   UNL     1      -5.786   3.268 -31.565  1.00  0.00     0.011 A 
HETATM   10  C   UNL     1      -4.868   4.327 -31.552  1.00  0.00     0.037 A 
HETATM   11  C   UNL     1      -4.686   5.112 -32.689  1.00  0.00     0.069 A 
HETATM   12  C   UNL     1      -5.435   4.832 -33.834  1.00  0.00     0.037 A 
HETATM   13  C   UNL     1      -6.348   3.775 -33.853  1.00  0.00     0.011 A 
BRANCH  11  14
HETATM   14  O   UNL     1      -3.829   6.168 -32.823  1.00  0.00    -0.346 OA
BRANCH  14  15
HETATM   15  C   UNL     1      -2.721   6.071 -33.725  1.00  0.00     0.129 C 
HETATM   16  C   UNL     1      -1.904   7.371 -33.724  1.00  0.00     0.032 C 
HETATM   17  C   UNL     1      -1.263   7.650 -32.365  1.00  0.00     0.002 C 
HETATM   18  C   UNL     1      -0.410   6.476 -31.894  1.00  0.00     0.000 C 
HETATM   19  C   UNL     1      -1.200   5.172 -31.887  1.00  0.00     0.002 C 
HETATM   20  C   UNL     1      -1.849   4.899 -33.245  1.00  0.00     0.032 C 
ENDBRANCH  14  15
ENDBRANCH  11  14
ENDBRANCH   7   8
ENDBRANCH   3   7
BRANCH   1  21
HETATM   21  C   UNL     1      -4.725  -2.061 -33.617  1.00  0.00     0.155 C 
HETATM   22  C   UNL     1      -3.618  -2.632 -32.733  1.00  0.00     0.041 C 
BRANCH  21  23
HETATM   23  C   UNL     1      -5.514  -3.163 -34.274  1.00  0.00     0.169 A 
HETATM   24  N   UNL     1      -6.827  -3.059 -34.561  1.00  0.00    -0.156 NA
HETATM   25  N   UNL     1      -7.072  -4.254 -35.124  1.00  0.00    -0.270 N 
HETATM   26  H   UNL     1      -8.007  -4.469 -35.451  1.00  0.00     0.190 HD
HETATM   27  C   UNL     1      -5.952  -5.021 -35.162  1.00  0.00     0.227 A 
HETATM   28  N   UNL     1      -4.950  -4.364 -34.630  1.00  0.00    -0.223 NA
ENDBRANCH  21  23
ENDBRANCH   1  21
TORSDOF 6
ENDMDL
