MODEL 1
REMARK VINA RESULT:      -8.1      0.000      0.000
REMARK  5 active torsions:
REMARK  status: ('A' for Active; 'I' for Inactive)
REMARK    1  A    between atoms: C_3  and  C_4 
REMARK    2  A    between atoms: C_15  and  C_16 
REMARK       I    between atoms: C_16  and  N_17 
REMARK    3  A    between atoms: N_17  and  C_18 
REMARK    4  A    between atoms: C_18  and  C_19 
REMARK    5  A    between atoms: C_22  and  O_23 
ROOT
HETATM    1  C   UNL     1       1.695   8.235 -27.086  1.00  0.00     0.055 C 
HETATM    2  C   UNL     1       0.218   8.006 -26.973  1.00  0.00     0.024 A 
HETATM    3  C   UNL     1      -0.559   7.287 -27.803  1.00  0.00     0.096 A 
HETATM    4  O   UNL     1      -1.909   7.056 -27.630  1.00  0.00    -0.307 OA
HETATM    5  C   UNL     1      -2.573   7.651 -26.590  1.00  0.00     0.106 A 
HETATM    6  C   UNL     1      -1.901   8.472 -25.682  1.00  0.00     0.050 A 
HETATM    7  C   UNL     1      -0.445   8.650 -25.813  1.00  0.00     0.193 A 
HETATM    8  O   UNL     1       0.185   9.314 -24.997  1.00  0.00    -0.287 OA
HETATM    9  C   UNL     1      -3.954   7.435 -26.442  1.00  0.00     0.066 A 
HETATM   10  C   UNL     1      -4.637   8.098 -25.404  1.00  0.00     0.020 A 
HETATM   11  C   UNL     1      -3.961   8.934 -24.514  1.00  0.00     0.002 A 
HETATM   12  C   UNL     1      -2.588   9.113 -24.645  1.00  0.00     0.018 A 
ENDROOT
BRANCH   9  13
HETATM   13  C   UNL     1      -4.769   6.497 -27.284  1.00  0.00     0.254 C 
HETATM   14  N   UNL     1      -4.511   6.458 -28.634  1.00  0.00    -0.353 N 
HETATM   15  H   UNL     1      -3.896   7.145 -29.048  1.00  0.00     0.163 HD
HETATM   16  O   UNL     1      -5.596   5.764 -26.750  1.00  0.00    -0.268 OA
BRANCH  14  17
HETATM   17  C   UNL     1      -5.136   5.504 -29.517  1.00  0.00     0.161 C 
BRANCH  17  18
HETATM   18  C   UNL     1      -4.287   5.217 -30.726  1.00  0.00    -0.040 A 
HETATM   19  C   UNL     1      -3.802   6.258 -31.527  1.00  0.00     0.011 A 
HETATM   20  C   UNL     1      -2.979   5.979 -32.620  1.00  0.00     0.037 A 
HETATM   21  C   UNL     1      -2.626   4.664 -32.932  1.00  0.00     0.068 A 
HETATM   22  C   UNL     1      -3.138   3.621 -32.159  1.00  0.00     0.037 A 
HETATM   23  C   UNL     1      -3.968   3.897 -31.067  1.00  0.00     0.011 A 
BRANCH  21  24
HETATM   24  O   UNL     1      -1.792   4.530 -34.007  1.00  0.00    -0.356 OA
HETATM   25  C   UNL     1      -1.338   5.734 -34.613  1.00  0.00     0.210 C 
ENDBRANCH  21  24
ENDBRANCH  17  18
ENDBRANCH  14  17
ENDBRANCH   9  13
BRANCH   3  26
HETATM   26  C   UNL     1      -0.047   6.657 -29.029  1.00  0.00    -0.002 A 
HETATM   27  C   UNL     1       0.491   5.366 -28.993  1.00  0.00     0.014 A 
HETATM   28  C   UNL     1       0.954   4.766 -30.166  1.00  0.00     0.001 A 
HETATM   29  C   UNL     1       0.878   5.452 -31.379  1.00  0.00     0.000 A 
HETATM   30  C   UNL     1       0.337   6.735 -31.424  1.00  0.00     0.001 A 
HETATM   31  C   UNL     1      -0.127   7.336 -30.253  1.00  0.00     0.014 A 
ENDBRANCH   3  26
TORSDOF 5
ENDMDL
MODEL 2
REMARK VINA RESULT:      -8.1      5.671      8.741
REMARK  5 active torsions:
REMARK  status: ('A' for Active; 'I' for Inactive)
REMARK    1  A    between atoms: C_3  and  C_4 
REMARK    2  A    between atoms: C_15  and  C_16 
REMARK       I    between atoms: C_16  and  N_17 
REMARK    3  A    between atoms: N_17  and  C_18 
REMARK    4  A    between atoms: C_18  and  C_19 
REMARK    5  A    between atoms: C_22  and  O_23 
ROOT
HETATM    1  C   UNL     1      -3.375   0.664 -32.194  1.00  0.00     0.055 C 
HETATM    2  C   UNL     1      -4.146   1.945 -32.306  1.00  0.00     0.024 A 
HETATM    3  C   UNL     1      -5.364   2.115 -32.852  1.00  0.00     0.096 A 
HETATM    4  O   UNL     1      -6.063   3.305 -32.884  1.00  0.00    -0.307 OA
HETATM    5  C   UNL     1      -5.480   4.450 -32.407  1.00  0.00     0.106 A 
HETATM    6  C   UNL     1      -4.194   4.430 -31.862  1.00  0.00     0.050 A 
HETATM    7  C   UNL     1      -3.480   3.147 -31.748  1.00  0.00     0.193 A 
HETATM    8  O   UNL     1      -2.376   3.085 -31.219  1.00  0.00    -0.287 OA
HETATM    9  C   UNL     1      -6.188   5.662 -32.474  1.00  0.00     0.066 A 
HETATM   10  C   UNL     1      -5.556   6.841 -32.033  1.00  0.00     0.020 A 
HETATM   11  C   UNL     1      -4.263   6.816 -31.511  1.00  0.00     0.002 A 
HETATM   12  C   UNL     1      -3.582   5.606 -31.415  1.00  0.00     0.018 A 
ENDROOT
BRANCH   9  13
HETATM   13  C   UNL     1      -7.609   5.799 -32.937  1.00  0.00     0.254 C 
HETATM   14  N   UNL     1      -8.023   5.004 -33.980  1.00  0.00    -0.353 N 
HETATM   15  H   UNL     1      -7.346   4.461 -34.497  1.00  0.00     0.163 HD
HETATM   16  O   UNL     1      -8.367   6.567 -32.352  1.00  0.00    -0.268 OA
BRANCH  14  17
HETATM   17  C   UNL     1      -9.395   4.954 -34.420  1.00  0.00     0.161 C 
BRANCH  17  18
HETATM   18  C   UNL     1     -10.037   3.629 -34.110  1.00  0.00    -0.040 A 
HETATM   19  C   UNL     1     -11.143   3.178 -34.841  1.00  0.00     0.011 A 
HETATM   20  C   UNL     1     -11.701   1.926 -34.571  1.00  0.00     0.037 A 
HETATM   21  C   UNL     1     -11.168   1.105 -33.575  1.00  0.00     0.068 A 
HETATM   22  C   UNL     1     -10.089   1.566 -32.819  1.00  0.00     0.037 A 
HETATM   23  C   UNL     1      -9.532   2.822 -33.082  1.00  0.00     0.011 A 
BRANCH  21  24
HETATM   24  O   UNL     1     -11.786  -0.106 -33.433  1.00  0.00    -0.356 OA
HETATM   25  C   UNL     1     -13.200  -0.120 -33.589  1.00  0.00     0.210 C 
ENDBRANCH  21  24
ENDBRANCH  17  18
ENDBRANCH  14  17
ENDBRANCH   9  13
BRANCH   3  26
HETATM   26  C   UNL     1      -6.104   1.027 -33.506  1.00  0.00    -0.002 A 
HETATM   27  C   UNL     1      -6.250  -0.213 -32.873  1.00  0.00     0.014 A 
HETATM   28  C   UNL     1      -6.974  -1.235 -33.491  1.00  0.00     0.001 A 
HETATM   29  C   UNL     1      -7.558  -1.021 -34.741  1.00  0.00     0.000 A 
HETATM   30  C   UNL     1      -7.422   0.213 -35.374  1.00  0.00     0.001 A 
HETATM   31  C   UNL     1      -6.700   1.235 -34.758  1.00  0.00     0.014 A 
ENDBRANCH   3  26
TORSDOF 5
ENDMDL
MODEL 3
REMARK VINA RESULT:      -7.9      4.511      8.992
REMARK  5 active torsions:
REMARK  status: ('A' for Active; 'I' for Inactive)
REMARK    1  A    between atoms: C_3  and  C_4 
REMARK    2  A    between atoms: C_15  and  C_16 
REMARK       I    between atoms: C_16  and  N_17 
REMARK    3  A    between atoms: N_17  and  C_18 
REMARK    4  A    between atoms: C_18  and  C_19 
REMARK    5  A    between atoms: C_22  and  O_23 
ROOT
HETATM    1  C   UNL     1      -9.336  -0.177 -32.968  1.00  0.00     0.055 C 
HETATM    2  C   UNL     1      -8.508   1.068 -33.077  1.00  0.00     0.024 A 
HETATM    3  C   UNL     1      -7.197   1.148 -33.368  1.00  0.00     0.096 A 
HETATM    4  O   UNL     1      -6.485   2.322 -33.514  1.00  0.00    -0.307 OA
HETATM    5  C   UNL     1      -7.097   3.524 -33.274  1.00  0.00     0.106 A 
HETATM    6  C   UNL     1      -8.443   3.586 -32.907  1.00  0.00     0.050 A 
HETATM    7  C   UNL     1      -9.228   2.342 -32.835  1.00  0.00     0.193 A 
HETATM    8  O   UNL     1     -10.426   2.366 -32.577  1.00  0.00    -0.287 OA
HETATM    9  C   UNL     1      -6.354   4.711 -33.393  1.00  0.00     0.066 A 
HETATM   10  C   UNL     1      -6.979   5.936 -33.088  1.00  0.00     0.020 A 
HETATM   11  C   UNL     1      -8.318   5.986 -32.701  1.00  0.00     0.002 A 
HETATM   12  C   UNL     1      -9.057   4.810 -32.621  1.00  0.00     0.018 A 
ENDROOT
BRANCH   9  13
HETATM   13  C   UNL     1      -4.936   4.787 -33.880  1.00  0.00     0.254 C 
HETATM   14  N   UNL     1      -3.944   4.340 -33.039  1.00  0.00    -0.353 N 
HETATM   15  H   UNL     1      -4.164   4.107 -32.080  1.00  0.00     0.163 HD
HETATM   16  O   UNL     1      -4.704   5.194 -35.014  1.00  0.00    -0.268 OA
BRANCH  14  17
HETATM   17  C   UNL     1      -2.565   4.242 -33.448  1.00  0.00     0.161 C 
BRANCH  17  18
HETATM   18  C   UNL     1      -1.654   5.030 -32.545  1.00  0.00    -0.040 A 
HETATM   19  C   UNL     1      -1.157   6.279 -32.937  1.00  0.00     0.011 A 
HETATM   20  C   UNL     1      -0.349   7.018 -32.071  1.00  0.00     0.037 A 
HETATM   21  C   UNL     1      -0.024   6.528 -30.804  1.00  0.00     0.068 A 
HETATM   22  C   UNL     1      -0.485   5.267 -30.423  1.00  0.00     0.037 A 
HETATM   23  C   UNL     1      -1.290   4.521 -31.292  1.00  0.00     0.011 A 
BRANCH  21  24
HETATM   24  O   UNL     1       0.749   7.362 -30.044  1.00  0.00    -0.356 OA
HETATM   25  C   UNL     1       0.262   7.668 -28.743  1.00  0.00     0.210 C 
ENDBRANCH  21  24
ENDBRANCH  17  18
ENDBRANCH  14  17
ENDBRANCH   9  13
BRANCH   3  26
HETATM   26  C   UNL     1      -6.347  -0.036 -33.558  1.00  0.00    -0.002 A 
HETATM   27  C   UNL     1      -5.306  -0.314 -32.665  1.00  0.00     0.014 A 
HETATM   28  C   UNL     1      -4.518  -1.453 -32.839  1.00  0.00     0.001 A 
HETATM   29  C   UNL     1      -4.769  -2.321 -33.903  1.00  0.00     0.000 A 
HETATM   30  C   UNL     1      -5.808  -2.054 -34.792  1.00  0.00     0.001 A 
HETATM   31  C   UNL     1      -6.597  -0.917 -34.620  1.00  0.00     0.014 A 
ENDBRANCH   3  26
TORSDOF 5
ENDMDL
MODEL 4
REMARK VINA RESULT:      -7.9      5.757      8.546
REMARK  5 active torsions:
REMARK  status: ('A' for Active; 'I' for Inactive)
REMARK    1  A    between atoms: C_3  and  C_4 
REMARK    2  A    between atoms: C_15  and  C_16 
REMARK       I    between atoms: C_16  and  N_17 
REMARK    3  A    between atoms: N_17  and  C_18 
REMARK    4  A    between atoms: C_18  and  C_19 
REMARK    5  A    between atoms: C_22  and  O_23 
ROOT
HETATM    1  C   UNL     1      -6.633   5.959 -29.986  1.00  0.00     0.055 C 
HETATM    2  C   UNL     1      -7.482   5.016 -30.784  1.00  0.00     0.024 A 
HETATM    3  C   UNL     1      -7.059   4.031 -31.597  1.00  0.00     0.096 A 
HETATM    4  O   UNL     1      -7.879   3.148 -32.271  1.00  0.00    -0.307 OA
HETATM    5  C   UNL     1      -9.240   3.295 -32.203  1.00  0.00     0.106 A 
HETATM    6  C   UNL     1      -9.817   4.312 -31.439  1.00  0.00     0.050 A 
HETATM    7  C   UNL     1      -8.948   5.202 -30.651  1.00  0.00     0.193 A 
HETATM    8  O   UNL     1      -9.424   6.065 -29.922  1.00  0.00    -0.287 OA
HETATM    9  C   UNL     1     -10.064   2.410 -32.919  1.00  0.00     0.066 A 
HETATM   10  C   UNL     1     -11.458   2.607 -32.887  1.00  0.00     0.020 A 
HETATM   11  C   UNL     1     -12.025   3.639 -32.140  1.00  0.00     0.002 A 
HETATM   12  C   UNL     1     -11.204   4.488 -31.404  1.00  0.00     0.018 A 
ENDROOT
BRANCH   9  13
HETATM   13  C   UNL     1      -9.575   1.217 -33.688  1.00  0.00     0.254 C 
HETATM   14  N   UNL     1      -8.594   1.419 -34.630  1.00  0.00    -0.353 N 
HETATM   15  H   UNL     1      -8.328   2.361 -34.885  1.00  0.00     0.163 HD
HETATM   16  O   UNL     1     -10.019   0.103 -33.427  1.00  0.00    -0.268 OA
BRANCH  14  17
HETATM   17  C   UNL     1      -7.957   0.333 -35.333  1.00  0.00     0.161 C 
BRANCH  17  18
HETATM   18  C   UNL     1      -6.791  -0.226 -34.564  1.00  0.00    -0.040 A 
HETATM   19  C   UNL     1      -6.057   0.580 -33.685  1.00  0.00     0.011 A 
HETATM   20  C   UNL     1      -5.005   0.036 -32.945  1.00  0.00     0.037 A 
HETATM   21  C   UNL     1      -4.667  -1.313 -33.068  1.00  0.00     0.068 A 
HETATM   22  C   UNL     1      -5.370  -2.111 -33.971  1.00  0.00     0.037 A 
HETATM   23  C   UNL     1      -6.422  -1.568 -34.718  1.00  0.00     0.011 A 
BRANCH  21  24
HETATM   24  O   UNL     1      -3.638  -1.726 -32.266  1.00  0.00    -0.356 OA
HETATM   25  C   UNL     1      -2.819  -0.706 -31.709  1.00  0.00     0.210 C 
ENDBRANCH  21  24
ENDBRANCH  17  18
ENDBRANCH  14  17
ENDBRANCH   9  13
BRANCH   3  26
HETATM   26  C   UNL     1      -5.638   3.784 -31.878  1.00  0.00    -0.002 A 
HETATM   27  C   UNL     1      -5.045   4.292 -33.039  1.00  0.00     0.014 A 
HETATM   28  C   UNL     1      -3.688   4.071 -33.288  1.00  0.00     0.001 A 
HETATM   29  C   UNL     1      -2.919   3.347 -32.376  1.00  0.00     0.000 A 
HETATM   30  C   UNL     1      -3.502   2.843 -31.215  1.00  0.00     0.001 A 
HETATM   31  C   UNL     1      -4.857   3.063 -30.964  1.00  0.00     0.014 A 
ENDBRANCH   3  26
TORSDOF 5
ENDMDL
MODEL 5
REMARK VINA RESULT:      -7.8      4.171      8.606
REMARK  5 active torsions:
REMARK  status: ('A' for Active; 'I' for Inactive)
REMARK    1  A    between atoms: C_3  and  C_4 
REMARK    2  A    between atoms: C_15  and  C_16 
REMARK       I    between atoms: C_16  and  N_17 
REMARK    3  A    between atoms: N_17  and  C_18 
REMARK    4  A    between atoms: C_18  and  C_19 
REMARK    5  A    between atoms: C_22  and  O_23 
ROOT
HETATM    1  C   UNL     1      -8.977  -0.352 -32.802  1.00  0.00     0.055 C 
HETATM    2  C   UNL     1      -7.915   0.622 -32.391  1.00  0.00     0.024 A 
HETATM    3  C   UNL     1      -6.593   0.526 -32.617  1.00  0.00     0.096 A 
HETATM    4  O   UNL     1      -5.654   1.477 -32.270  1.00  0.00    -0.307 OA
HETATM    5  C   UNL     1      -6.040   2.588 -31.565  1.00  0.00     0.106 A 
HETATM    6  C   UNL     1      -7.376   2.789 -31.212  1.00  0.00     0.050 A 
HETATM    7  C   UNL     1      -8.392   1.820 -31.656  1.00  0.00     0.193 A 
HETATM    8  O   UNL     1      -9.581   1.998 -31.417  1.00  0.00    -0.287 OA
HETATM    9  C   UNL     1      -5.071   3.533 -31.187  1.00  0.00     0.066 A 
HETATM   10  C   UNL     1      -5.470   4.641 -30.414  1.00  0.00     0.020 A 
HETATM   11  C   UNL     1      -6.803   4.822 -30.047  1.00  0.00     0.002 A 
HETATM   12  C   UNL     1      -7.762   3.901 -30.456  1.00  0.00     0.018 A 
ENDROOT
BRANCH   9  13
HETATM   13  C   UNL     1      -3.626   3.487 -31.593  1.00  0.00     0.254 C 
HETATM   14  N   UNL     1      -3.161   4.481 -32.422  1.00  0.00    -0.353 N 
HETATM   15  H   UNL     1      -3.812   5.126 -32.848  1.00  0.00     0.163 HD
HETATM   16  O   UNL     1      -2.897   2.608 -31.145  1.00  0.00    -0.268 OA
BRANCH  14  17
HETATM   17  C   UNL     1      -1.767   4.612 -32.769  1.00  0.00     0.161 C 
BRANCH  17  18
HETATM   18  C   UNL     1      -1.021   5.470 -31.784  1.00  0.00    -0.040 A 
HETATM   19  C   UNL     1      -1.496   6.739 -31.430  1.00  0.00     0.011 A 
HETATM   20  C   UNL     1      -0.817   7.505 -30.481  1.00  0.00     0.037 A 
HETATM   21  C   UNL     1       0.342   7.023 -29.870  1.00  0.00     0.068 A 
HETATM   22  C   UNL     1       0.841   5.775 -30.246  1.00  0.00     0.037 A 
HETATM   23  C   UNL     1       0.166   5.007 -31.201  1.00  0.00     0.011 A 
BRANCH  21  24
HETATM   24  O   UNL     1       0.893   7.858 -28.937  1.00  0.00    -0.356 OA
HETATM   25  C   UNL     1       0.975   7.360 -27.608  1.00  0.00     0.210 C 
ENDBRANCH  21  24
ENDBRANCH  17  18
ENDBRANCH  14  17
ENDBRANCH   9  13
BRANCH   3  26
HETATM   26  C   UNL     1      -5.977  -0.639 -33.268  1.00  0.00    -0.002 A 
HETATM   27  C   UNL     1      -6.563  -1.211 -34.402  1.00  0.00     0.014 A 
HETATM   28  C   UNL     1      -5.960  -2.305 -35.028  1.00  0.00     0.001 A 
HETATM   29  C   UNL     1      -4.768  -2.828 -34.524  1.00  0.00     0.000 A 
HETATM   30  C   UNL     1      -4.176  -2.260 -33.398  1.00  0.00     0.001 A 
HETATM   31  C   UNL     1      -4.776  -1.167 -32.773  1.00  0.00     0.014 A 
ENDBRANCH   3  26
TORSDOF 5
ENDMDL
MODEL 6
REMARK VINA RESULT:      -7.7     22.024     22.960
REMARK  5 active torsions:
REMARK  status: ('A' for Active; 'I' for Inactive)
REMARK    1  A    between atoms: C_3  and  C_4 
REMARK    2  A    between atoms: C_15  and  C_16 
REMARK       I    between atoms: C_16  and  N_17 
REMARK    3  A    between atoms: N_17  and  C_18 
REMARK    4  A    between atoms: C_18  and  C_19 
REMARK    5  A    between atoms: C_22  and  O_23 
ROOT
HETATM    1  C   UNL     1      -0.866 -16.018 -35.101  1.00  0.00     0.055 C 
HETATM    2  C   UNL     1      -2.309 -15.625 -35.199  1.00  0.00     0.024 A 
HETATM    3  C   UNL     1      -2.923 -15.044 -36.245  1.00  0.00     0.096 A 
HETATM    4  O   UNL     1      -4.270 -14.750 -36.314  1.00  0.00    -0.307 OA
HETATM    5  C   UNL     1      -5.073 -14.975 -35.226  1.00  0.00     0.106 A 
HETATM    6  C   UNL     1      -4.555 -15.523 -34.051  1.00  0.00     0.050 A 
HETATM    7  C   UNL     1      -3.137 -15.918 -34.004  1.00  0.00     0.193 A 
HETATM    8  O   UNL     1      -2.666 -16.459 -33.010  1.00  0.00    -0.287 OA
HETATM    9  C   UNL     1      -6.437 -14.641 -35.296  1.00  0.00     0.066 A 
HETATM   10  C   UNL     1      -7.238 -14.824 -34.153  1.00  0.00     0.020 A 
HETATM   11  C   UNL     1      -6.708 -15.352 -32.976  1.00  0.00     0.002 A 
HETATM   12  C   UNL     1      -5.366 -15.713 -32.926  1.00  0.00     0.018 A 
ENDROOT
BRANCH   9  13
HETATM   13  C   UNL     1      -7.134 -14.146 -36.530  1.00  0.00     0.254 C 
HETATM   14  N   UNL     1      -6.861 -12.867 -36.952  1.00  0.00    -0.353 N 
HETATM   15  H   UNL     1      -6.321 -12.247 -36.362  1.00  0.00     0.163 HD
HETATM   16  O   UNL     1      -7.881 -14.899 -37.149  1.00  0.00    -0.268 OA
BRANCH  14  17
HETATM   17  C   UNL     1      -7.369 -12.333 -38.191  1.00  0.00     0.161 C 
BRANCH  17  18
HETATM   18  C   UNL     1      -6.488 -12.687 -39.358  1.00  0.00    -0.040 A 
HETATM   19  C   UNL     1      -5.096 -12.742 -39.218  1.00  0.00     0.011 A 
HETATM   20  C   UNL     1      -4.294 -13.115 -40.299  1.00  0.00     0.037 A 
HETATM   21  C   UNL     1      -4.863 -13.441 -41.532  1.00  0.00     0.068 A 
HETATM   22  C   UNL     1      -6.247 -13.352 -41.688  1.00  0.00     0.037 A 
HETATM   23  C   UNL     1      -7.052 -12.972 -40.608  1.00  0.00     0.011 A 
BRANCH  21  24
HETATM   24  O   UNL     1      -3.970 -13.819 -42.497  1.00  0.00    -0.356 OA
HETATM   25  C   UNL     1      -4.495 -14.562 -43.590  1.00  0.00     0.210 C 
ENDBRANCH  21  24
ENDBRANCH  17  18
ENDBRANCH  14  17
ENDBRANCH   9  13
BRANCH   3  26
HETATM   26  C   UNL     1      -2.209 -14.633 -37.462  1.00  0.00    -0.002 A 
HETATM   27  C   UNL     1      -1.659 -13.350 -37.563  1.00  0.00     0.014 A 
HETATM   28  C   UNL     1      -0.963 -12.974 -38.714  1.00  0.00     0.001 A 
HETATM   29  C   UNL     1      -0.809 -13.880 -39.766  1.00  0.00     0.000 A 
HETATM   30  C   UNL     1      -1.349 -15.160 -39.669  1.00  0.00     0.001 A 
HETATM   31  C   UNL     1      -2.045 -15.538 -38.520  1.00  0.00     0.014 A 
ENDBRANCH   3  26
TORSDOF 5
ENDMDL
MODEL 7
REMARK VINA RESULT:      -7.7      1.666      6.509
REMARK  5 active torsions:
REMARK  status: ('A' for Active; 'I' for Inactive)
REMARK    1  A    between atoms: C_3  and  C_4 
REMARK    2  A    between atoms: C_15  and  C_16 
REMARK       I    between atoms: C_16  and  N_17 
REMARK    3  A    between atoms: N_17  and  C_18 
REMARK    4  A    between atoms: C_18  and  C_19 
REMARK    5  A    between atoms: C_22  and  O_23 
ROOT
HETATM    1  C   UNL     1       0.748   5.276 -30.834  1.00  0.00     0.055 C 
HETATM    2  C   UNL     1      -0.654   5.711 -30.531  1.00  0.00     0.024 A 
HETATM    3  C   UNL     1      -1.060   6.502 -29.522  1.00  0.00     0.096 A 
HETATM    4  O   UNL     1      -2.357   6.923 -29.312  1.00  0.00    -0.307 OA
HETATM    5  C   UNL     1      -3.362   6.462 -30.123  1.00  0.00     0.106 A 
HETATM    6  C   UNL     1      -3.092   5.588 -31.178  1.00  0.00     0.050 A 
HETATM    7  C   UNL     1      -1.698   5.205 -31.457  1.00  0.00     0.193 A 
HETATM    8  O   UNL     1      -1.419   4.489 -32.413  1.00  0.00    -0.287 OA
HETATM    9  C   UNL     1      -4.685   6.872 -29.880  1.00  0.00     0.066 A 
HETATM   10  C   UNL     1      -5.715   6.346 -30.684  1.00  0.00     0.020 A 
HETATM   11  C   UNL     1      -5.438   5.456 -31.722  1.00  0.00     0.002 A 
HETATM   12  C   UNL     1      -4.123   5.084 -31.978  1.00  0.00     0.018 A 
ENDROOT
BRANCH   9  13
HETATM   13  C   UNL     1      -5.091   7.885 -28.850  1.00  0.00     0.254 C 
HETATM   14  N   UNL     1      -4.723   7.656 -27.545  1.00  0.00    -0.353 N 
HETATM   15  H   UNL     1      -4.322   6.765 -27.285  1.00  0.00     0.163 HD
HETATM   16  O   UNL     1      -5.689   8.899 -29.198  1.00  0.00    -0.268 OA
BRANCH  14  17
HETATM   17  C   UNL     1      -4.943   8.620 -26.496  1.00  0.00     0.161 C 
BRANCH  17  18
HETATM   18  C   UNL     1      -3.660   9.016 -25.818  1.00  0.00    -0.040 A 
HETATM   19  C   UNL     1      -3.450   8.744 -24.461  1.00  0.00     0.011 A 
HETATM   20  C   UNL     1      -2.236   9.077 -23.856  1.00  0.00     0.037 A 
HETATM   21  C   UNL     1      -1.214   9.683 -24.590  1.00  0.00     0.068 A 
HETATM   22  C   UNL     1      -1.432   9.990 -25.933  1.00  0.00     0.037 A 
HETATM   23  C   UNL     1      -2.649   9.663 -26.541  1.00  0.00     0.011 A 
BRANCH  21  24
HETATM   24  O   UNL     1      -0.067   9.929 -23.887  1.00  0.00    -0.356 OA
HETATM   25  C   UNL     1      -0.226  10.353 -22.539  1.00  0.00     0.210 C 
ENDBRANCH  21  24
ENDBRANCH  17  18
ENDBRANCH  14  17
ENDBRANCH   9  13
BRANCH   3  26
HETATM   26  C   UNL     1      -0.145   7.012 -28.491  1.00  0.00    -0.002 A 
HETATM   27  C   UNL     1       0.735   8.061 -28.778  1.00  0.00     0.014 A 
HETATM   28  C   UNL     1       1.586   8.555 -27.787  1.00  0.00     0.001 A 
HETATM   29  C   UNL     1       1.558   8.006 -26.504  1.00  0.00     0.000 A 
HETATM   30  C   UNL     1       0.680   6.965 -26.209  1.00  0.00     0.001 A 
HETATM   31  C   UNL     1      -0.172   6.470 -27.198  1.00  0.00     0.014 A 
ENDBRANCH   3  26
TORSDOF 5
ENDMDL
MODEL 8
REMARK VINA RESULT:      -7.6      5.743      9.297
REMARK  5 active torsions:
REMARK  status: ('A' for Active; 'I' for Inactive)
REMARK    1  A    between atoms: C_3  and  C_4 
REMARK    2  A    between atoms: C_15  and  C_16 
REMARK       I    between atoms: C_16  and  N_17 
REMARK    3  A    between atoms: N_17  and  C_18 
REMARK    4  A    between atoms: C_18  and  C_19 
REMARK    5  A    between atoms: C_22  and  O_23 
ROOT
HETATM    1  C   UNL     1      -4.289   5.096 -30.995  1.00  0.00     0.055 C 
HETATM    2  C   UNL     1      -4.820   3.782 -31.485  1.00  0.00     0.024 A 
HETATM    3  C   UNL     1      -6.103   3.466 -31.732  1.00  0.00     0.096 A 
HETATM    4  O   UNL     1      -6.543   2.259 -32.238  1.00  0.00    -0.307 OA
HETATM    5  C   UNL     1      -5.647   1.242 -32.446  1.00  0.00     0.106 A 
HETATM    6  C   UNL     1      -4.288   1.413 -32.177  1.00  0.00     0.050 A 
HETATM    7  C   UNL     1      -3.804   2.727 -31.720  1.00  0.00     0.193 A 
HETATM    8  O   UNL     1      -2.609   2.930 -31.535  1.00  0.00    -0.287 OA
HETATM    9  C   UNL     1      -6.110   0.006 -32.930  1.00  0.00     0.066 A 
HETATM   10  C   UNL     1      -5.190  -1.049 -33.085  1.00  0.00     0.020 A 
HETATM   11  C   UNL     1      -3.837  -0.875 -32.794  1.00  0.00     0.002 A 
HETATM   12  C   UNL     1      -3.381   0.362 -32.349  1.00  0.00     0.018 A 
ENDROOT
BRANCH   9  13
HETATM   13  C   UNL     1      -7.523  -0.272 -33.354  1.00  0.00     0.254 C 
HETATM   14  N   UNL     1      -8.537   0.186 -32.547  1.00  0.00    -0.353 N 
HETATM   15  H   UNL     1      -8.322   0.565 -31.635  1.00  0.00     0.163 HD
HETATM   16  O   UNL     1      -7.736  -0.847 -34.417  1.00  0.00    -0.268 OA
BRANCH  14  17
HETATM   17  C   UNL     1      -9.928   0.094 -32.919  1.00  0.00     0.161 C 
BRANCH  17  18
HETATM   18  C   UNL     1     -10.415   1.350 -33.588  1.00  0.00    -0.040 A 
HETATM   19  C   UNL     1      -9.745   2.566 -33.409  1.00  0.00     0.011 A 
HETATM   20  C   UNL     1     -10.183   3.715 -34.072  1.00  0.00     0.037 A 
HETATM   21  C   UNL     1     -11.290   3.672 -34.921  1.00  0.00     0.068 A 
HETATM   22  C   UNL     1     -11.985   2.471 -35.073  1.00  0.00     0.037 A 
HETATM   23  C   UNL     1     -11.552   1.320 -34.406  1.00  0.00     0.011 A 
BRANCH  21  24
HETATM   24  O   UNL     1     -11.597   4.857 -35.531  1.00  0.00    -0.356 OA
HETATM   25  C   UNL     1     -10.721   5.948 -35.275  1.00  0.00     0.210 C 
ENDBRANCH  21  24
ENDBRANCH  17  18
ENDBRANCH  14  17
ENDBRANCH   9  13
BRANCH   3  26
HETATM   26  C   UNL     1      -7.217   4.390 -31.473  1.00  0.00    -0.002 A 
HETATM   27  C   UNL     1      -7.452   5.475 -32.325  1.00  0.00     0.014 A 
HETATM   28  C   UNL     1      -8.526   6.335 -32.085  1.00  0.00     0.001 A 
HETATM   29  C   UNL     1      -9.370   6.113 -30.996  1.00  0.00     0.000 A 
HETATM   30  C   UNL     1      -9.145   5.031 -30.147  1.00  0.00     0.001 A 
HETATM   31  C   UNL     1      -8.074   4.169 -30.386  1.00  0.00     0.014 A 
ENDBRANCH   3  26
TORSDOF 5
ENDMDL
MODEL 9
REMARK VINA RESULT:      -7.5     21.257     23.100
REMARK  5 active torsions:
REMARK  status: ('A' for Active; 'I' for Inactive)
REMARK    1  A    between atoms: C_3  and  C_4 
REMARK    2  A    between atoms: C_15  and  C_16 
REMARK       I    between atoms: C_16  and  N_17 
REMARK    3  A    between atoms: N_17  and  C_18 
REMARK    4  A    between atoms: C_18  and  C_19 
REMARK    5  A    between atoms: C_22  and  O_23 
ROOT
HETATM    1  C   UNL     1      -2.844 -16.880 -33.607  1.00  0.00     0.055 C 
HETATM    2  C   UNL     1      -2.550 -16.005 -34.788  1.00  0.00     0.024 A 
HETATM    3  C   UNL     1      -3.365 -15.091 -35.344  1.00  0.00     0.096 A 
HETATM    4  O   UNL     1      -3.032 -14.265 -36.398  1.00  0.00    -0.307 OA
HETATM    5  C   UNL     1      -1.815 -14.404 -37.014  1.00  0.00     0.106 A 
HETATM    6  C   UNL     1      -0.891 -15.354 -36.576  1.00  0.00     0.050 A 
HETATM    7  C   UNL     1      -1.209 -16.177 -35.397  1.00  0.00     0.193 A 
HETATM    8  O   UNL     1      -0.395 -16.977 -34.949  1.00  0.00    -0.287 OA
HETATM    9  C   UNL     1      -1.500 -13.579 -38.109  1.00  0.00     0.066 A 
HETATM   10  C   UNL     1      -0.271 -13.771 -38.769  1.00  0.00     0.020 A 
HETATM   11  C   UNL     1       0.637 -14.738 -38.338  1.00  0.00     0.002 A 
HETATM   12  C   UNL     1       0.333 -15.525 -37.232  1.00  0.00     0.018 A 
ENDROOT
BRANCH   9  13
HETATM   13  C   UNL     1      -2.359 -12.454 -38.608  1.00  0.00     0.254 C 
HETATM   14  N   UNL     1      -3.562 -12.776 -39.192  1.00  0.00    -0.353 N 
HETATM   15  H   UNL     1      -3.778 -13.741 -39.400  1.00  0.00     0.163 HD
HETATM   16  O   UNL     1      -1.996 -11.293 -38.442  1.00  0.00    -0.268 OA
BRANCH  14  17
HETATM   17  C   UNL     1      -4.524 -11.777 -39.587  1.00  0.00     0.161 C 
BRANCH  17  18
HETATM   18  C   UNL     1      -5.938 -12.237 -39.356  1.00  0.00    -0.040 A 
HETATM   19  C   UNL     1      -6.900 -12.139 -40.369  1.00  0.00     0.011 A 
HETATM   20  C   UNL     1      -8.197 -12.611 -40.155  1.00  0.00     0.037 A 
HETATM   21  C   UNL     1      -8.556 -13.187 -38.935  1.00  0.00     0.068 A 
HETATM   22  C   UNL     1      -7.612 -13.253 -37.909  1.00  0.00     0.037 A 
HETATM   23  C   UNL     1      -6.313 -12.775 -38.118  1.00  0.00     0.011 A 
BRANCH  21  24
HETATM   24  O   UNL     1      -9.846 -13.636 -38.865  1.00  0.00    -0.356 OA
HETATM   25  C   UNL     1     -10.596 -13.602 -40.073  1.00  0.00     0.210 C 
ENDBRANCH  21  24
ENDBRANCH  17  18
ENDBRANCH  14  17
ENDBRANCH   9  13
BRANCH   3  26
HETATM   26  C   UNL     1      -4.744 -14.869 -34.888  1.00  0.00    -0.002 A 
HETATM   27  C   UNL     1      -5.756 -15.779 -35.216  1.00  0.00     0.014 A 
HETATM   28  C   UNL     1      -7.060 -15.573 -34.760  1.00  0.00     0.001 A 
HETATM   29  C   UNL     1      -7.357 -14.461 -33.972  1.00  0.00     0.000 A 
HETATM   30  C   UNL     1      -6.354 -13.554 -33.636  1.00  0.00     0.001 A 
HETATM   31  C   UNL     1      -5.050 -13.758 -34.090  1.00  0.00     0.014 A 
ENDBRANCH   3  26
TORSDOF 5
ENDMDL
MODEL 10
REMARK VINA RESULT:      -7.5      2.156      3.598
REMARK  5 active torsions:
REMARK  status: ('A' for Active; 'I' for Inactive)
REMARK    1  A    between atoms: C_3  and  C_4 
REMARK    2  A    between atoms: C_15  and  C_16 
REMARK       I    between atoms: C_16  and  N_17 
REMARK    3  A    between atoms: N_17  and  C_18 
REMARK    4  A    between atoms: C_18  and  C_19 
REMARK    5  A    between atoms: C_22  and  O_23 
ROOT
HETATM    1  C   UNL     1       0.962   6.904 -31.000  1.00  0.00     0.055 C 
HETATM    2  C   UNL     1      -0.278   6.968 -30.159  1.00  0.00     0.024 A 
HETATM    3  C   UNL     1      -1.524   6.615 -30.521  1.00  0.00     0.096 A 
HETATM    4  O   UNL     1      -2.629   6.636 -29.694  1.00  0.00    -0.307 OA
HETATM    5  C   UNL     1      -2.515   7.125 -28.418  1.00  0.00     0.106 A 
HETATM    6  C   UNL     1      -1.289   7.580 -27.928  1.00  0.00     0.050 A 
HETATM    7  C   UNL     1      -0.091   7.477 -28.778  1.00  0.00     0.193 A 
HETATM    8  O   UNL     1       1.011   7.810 -28.357  1.00  0.00    -0.287 OA
HETATM    9  C   UNL     1      -3.654   7.173 -27.596  1.00  0.00     0.066 A 
HETATM   10  C   UNL     1      -3.537   7.730 -26.308  1.00  0.00     0.020 A 
HETATM   11  C   UNL     1      -2.313   8.203 -25.834  1.00  0.00     0.002 A 
HETATM   12  C   UNL     1      -1.183   8.118 -26.641  1.00  0.00     0.018 A 
ENDROOT
BRANCH   9  13
HETATM   13  C   UNL     1      -5.000   6.621 -27.965  1.00  0.00     0.254 C 
HETATM   14  N   UNL     1      -5.039   5.536 -28.810  1.00  0.00    -0.353 N 
HETATM   15  H   UNL     1      -4.194   5.227 -29.270  1.00  0.00     0.163 HD
HETATM   16  O   UNL     1      -6.014   7.110 -27.474  1.00  0.00    -0.268 OA
BRANCH  14  17
HETATM   17  C   UNL     1      -6.263   4.843 -29.127  1.00  0.00     0.161 C 
BRANCH  17  18
HETATM   18  C   UNL     1      -6.012   3.611 -29.954  1.00  0.00    -0.040 A 
HETATM   19  C   UNL     1      -4.828   3.465 -30.686  1.00  0.00     0.011 A 
HETATM   20  C   UNL     1      -4.590   2.297 -31.414  1.00  0.00     0.037 A 
HETATM   21  C   UNL     1      -5.523   1.258 -31.423  1.00  0.00     0.068 A 
HETATM   22  C   UNL     1      -6.722   1.414 -30.726  1.00  0.00     0.037 A 
HETATM   23  C   UNL     1      -6.966   2.585 -30.000  1.00  0.00     0.011 A 
BRANCH  21  24
HETATM   24  O   UNL     1      -5.155   0.159 -32.149  1.00  0.00    -0.356 OA
HETATM   25  C   UNL     1      -5.553   0.138 -33.514  1.00  0.00     0.210 C 
ENDBRANCH  21  24
ENDBRANCH  17  18
ENDBRANCH  14  17
ENDBRANCH   9  13
BRANCH   3  26
HETATM   26  C   UNL     1      -1.863   6.164 -31.878  1.00  0.00    -0.002 A 
HETATM   27  C   UNL     1      -2.160   7.094 -32.881  1.00  0.00     0.014 A 
HETATM   28  C   UNL     1      -2.460   6.658 -34.174  1.00  0.00     0.001 A 
HETATM   29  C   UNL     1      -2.460   5.295 -34.471  1.00  0.00     0.000 A 
HETATM   30  C   UNL     1      -2.159   4.364 -33.478  1.00  0.00     0.001 A 
HETATM   31  C   UNL     1      -1.859   4.796 -32.186  1.00  0.00     0.014 A 
ENDBRANCH   3  26
TORSDOF 5
ENDMDL
