MODEL 1
REMARK VINA RESULT:      -8.7      0.000      0.000
REMARK  7 active torsions:
REMARK  status: ('A' for Active; 'I' for Inactive)
REMARK    1  A    between atoms: C_2  and  N_3 
REMARK    2  A    between atoms: C_4  and  C_5 
REMARK       I    between atoms: C_5  and  N_6 
REMARK    3  A    between atoms: N_6  and  C_7 
REMARK    4  A    between atoms: C_7  and  C_8 
REMARK    5  A    between atoms: C_19  and  N_20 
REMARK       I    between atoms: N_20  and  C_21 
REMARK    6  A    between atoms: C_21  and  C_22 
REMARK    7  A    between atoms: C_25  and  O_26 
ROOT
HETATM    1  N   UNL     1      -4.990   1.455 -32.542  1.00  0.00    -0.342 N 
HETATM    2  C   UNL     1      -4.662   2.792 -32.359  1.00  0.00     0.104 A 
HETATM    3  C   UNL     1      -5.871   3.478 -32.344  1.00  0.00     0.049 A 
HETATM    4  C   UNL     1      -6.935   2.554 -32.499  1.00  0.00    -0.005 A 
HETATM    5  C   UNL     1      -6.364   1.290 -32.627  1.00  0.00     0.045 A 
HETATM    6  C   UNL     1      -8.340   2.686 -32.530  1.00  0.00     0.043 A 
HETATM    7  C   UNL     1      -9.149   1.554 -32.683  1.00  0.00     0.035 A 
HETATM    8  C   UNL     1      -8.547   0.300 -32.824  1.00  0.00     0.032 A 
HETATM    9  C   UNL     1      -7.156   0.144 -32.795  1.00  0.00     0.033 A 
ENDROOT
BRANCH   7  10
HETATM   10  N   UNL     1     -10.560   1.596 -32.706  1.00  0.00    -0.323 N 
HETATM   11  C   UNL     1     -11.368   1.817 -33.808  1.00  0.00     0.256 C 
HETATM   12  O   UNL     1     -11.008   2.066 -34.954  1.00  0.00    -0.267 OA
HETATM   13  H   UNL     1     -11.017   1.553 -31.806  1.00  0.00     0.169 HD
BRANCH  11  14
HETATM   14  C   UNL     1     -12.827   1.793 -33.523  1.00  0.00     0.032 A 
HETATM   15  C   UNL     1     -13.339   2.699 -32.589  1.00  0.00     0.020 A 
HETATM   16  C   UNL     1     -14.706   2.715 -32.311  1.00  0.00     0.038 A 
HETATM   17  C   UNL     1     -15.577   1.852 -32.981  1.00  0.00     0.068 A 
HETATM   18  C   UNL     1     -15.066   0.945 -33.913  1.00  0.00     0.038 A 
HETATM   19  C   UNL     1     -13.694   0.916 -34.189  1.00  0.00     0.020 A 
BRANCH  17  20
HETATM   20  O   UNL     1     -16.893   1.978 -32.632  1.00  0.00    -0.356 OA
HETATM   21  C   UNL     1     -17.268   3.209 -32.025  1.00  0.00     0.210 C 
ENDBRANCH  17  20
ENDBRANCH  11  14
ENDBRANCH   7  10
BRANCH   2  22
HETATM   22  C   UNL     1      -3.313   3.311 -32.184  1.00  0.00     0.268 C 
HETATM   23  N   UNL     1      -2.940   4.291 -33.075  1.00  0.00    -0.353 N 
HETATM   24  H   UNL     1      -3.506   4.453 -33.897  1.00  0.00     0.162 HD
HETATM   25  O   UNL     1      -2.540   2.919 -31.312  1.00  0.00    -0.266 OA
BRANCH  23  26
HETATM   26  C   UNL     1      -1.593   4.834 -33.105  1.00  0.00     0.160 C 
BRANCH  26  27
HETATM   27  C   UNL     1      -1.478   6.180 -32.365  1.00  0.00     0.073 C 
HETATM   28  C   UNL     1      -1.622   7.324 -33.379  1.00  0.00     0.047 C 
HETATM   29  O   UNL     1      -2.556   6.304 -31.410  1.00  0.00    -0.379 OA
HETATM   30  C   UNL     1      -2.038   6.869 -30.195  1.00  0.00     0.169 C 
HETATM   31  C   UNL     1      -0.597   7.260 -30.448  1.00  0.00     0.029 C 
HETATM   32  C   UNL     1      -0.191   6.312 -31.549  1.00  0.00     0.041 C 
ENDBRANCH  26  27
ENDBRANCH  23  26
ENDBRANCH   2  22
BRANCH   1  33
HETATM   33  C   UNL     1      -4.041   0.352 -32.636  1.00  0.00     0.125 C 
HETATM   34  C   UNL     1      -3.823  -0.338 -31.301  1.00  0.00     0.027 C 
ENDBRANCH   1  33
TORSDOF 7
ENDMDL
MODEL 2
REMARK VINA RESULT:      -8.7      5.097      7.528
REMARK  7 active torsions:
REMARK  status: ('A' for Active; 'I' for Inactive)
REMARK    1  A    between atoms: C_2  and  N_3 
REMARK    2  A    between atoms: C_4  and  C_5 
REMARK       I    between atoms: C_5  and  N_6 
REMARK    3  A    between atoms: N_6  and  C_7 
REMARK    4  A    between atoms: C_7  and  C_8 
REMARK    5  A    between atoms: C_19  and  N_20 
REMARK       I    between atoms: N_20  and  C_21 
REMARK    6  A    between atoms: C_21  and  C_22 
REMARK    7  A    between atoms: C_25  and  O_26 
ROOT
HETATM    1  N   UNL     1      -2.095   6.697 -31.014  1.00  0.00    -0.342 N 
HETATM    2  C   UNL     1      -2.934   7.057 -29.967  1.00  0.00     0.104 A 
HETATM    3  C   UNL     1      -3.939   6.097 -29.944  1.00  0.00     0.049 A 
HETATM    4  C   UNL     1      -3.700   5.144 -30.965  1.00  0.00    -0.005 A 
HETATM    5  C   UNL     1      -2.542   5.538 -31.630  1.00  0.00     0.045 A 
HETATM    6  C   UNL     1      -4.367   3.968 -31.373  1.00  0.00     0.043 A 
HETATM    7  C   UNL     1      -3.864   3.207 -32.434  1.00  0.00     0.035 A 
HETATM    8  C   UNL     1      -2.707   3.635 -33.092  1.00  0.00     0.032 A 
HETATM    9  C   UNL     1      -2.027   4.796 -32.704  1.00  0.00     0.033 A 
ENDROOT
BRANCH   7  10
HETATM   10  N   UNL     1      -4.459   2.011 -32.892  1.00  0.00    -0.323 N 
HETATM   11  C   UNL     1      -4.263   0.737 -32.387  1.00  0.00     0.256 C 
HETATM   12  O   UNL     1      -3.502   0.406 -31.485  1.00  0.00    -0.267 OA
HETATM   13  H   UNL     1      -5.011   2.089 -33.735  1.00  0.00     0.169 HD
BRANCH  11  14
HETATM   14  C   UNL     1      -5.042  -0.329 -33.073  1.00  0.00     0.032 A 
HETATM   15  C   UNL     1      -4.346  -1.405 -33.634  1.00  0.00     0.020 A 
HETATM   16  C   UNL     1      -5.046  -2.432 -34.268  1.00  0.00     0.038 A 
HETATM   17  C   UNL     1      -6.443  -2.411 -34.322  1.00  0.00     0.068 A 
HETATM   18  C   UNL     1      -7.137  -1.335 -33.764  1.00  0.00     0.038 A 
HETATM   19  C   UNL     1      -6.441  -0.296 -33.136  1.00  0.00     0.020 A 
BRANCH  17  20
HETATM   20  O   UNL     1      -7.009  -3.482 -34.956  1.00  0.00    -0.356 OA
HETATM   21  C   UNL     1      -6.138  -4.562 -35.267  1.00  0.00     0.210 C 
ENDBRANCH  17  20
ENDBRANCH  11  14
ENDBRANCH   7  10
BRANCH   2  22
HETATM   22  C   UNL     1      -2.733   8.195 -29.082  1.00  0.00     0.268 C 
HETATM   23  N   UNL     1      -2.022   7.929 -27.934  1.00  0.00    -0.353 N 
HETATM   24  H   UNL     1      -1.859   6.968 -27.665  1.00  0.00     0.162 HD
HETATM   25  O   UNL     1      -3.159   9.324 -29.318  1.00  0.00    -0.266 OA
BRANCH  23  26
HETATM   26  C   UNL     1      -1.830   8.928 -26.898  1.00  0.00     0.160 C 
BRANCH  26  27
HETATM   27  C   UNL     1      -0.361   9.369 -26.761  1.00  0.00     0.073 C 
HETATM   28  C   UNL     1      -0.274  10.892 -26.933  1.00  0.00     0.047 C 
HETATM   29  O   UNL     1       0.122   9.052 -25.436  1.00  0.00    -0.379 OA
HETATM   30  C   UNL     1       1.457   8.531 -25.539  1.00  0.00     0.169 C 
HETATM   31  C   UNL     1       1.893   8.669 -26.983  1.00  0.00     0.029 C 
HETATM   32  C   UNL     1       0.580   8.641 -27.724  1.00  0.00     0.041 C 
ENDBRANCH  26  27
ENDBRANCH  23  26
ENDBRANCH   2  22
BRANCH   1  33
HETATM   33  C   UNL     1      -0.900   7.420 -31.433  1.00  0.00     0.125 C 
HETATM   34  C   UNL     1       0.374   6.787 -30.899  1.00  0.00     0.027 C 
ENDBRANCH   1  33
TORSDOF 7
ENDMDL
MODEL 3
REMARK VINA RESULT:      -8.6      2.526      4.356
REMARK  7 active torsions:
REMARK  status: ('A' for Active; 'I' for Inactive)
REMARK    1  A    between atoms: C_2  and  N_3 
REMARK    2  A    between atoms: C_4  and  C_5 
REMARK       I    between atoms: C_5  and  N_6 
REMARK    3  A    between atoms: N_6  and  C_7 
REMARK    4  A    between atoms: C_7  and  C_8 
REMARK    5  A    between atoms: C_19  and  N_20 
REMARK       I    between atoms: N_20  and  C_21 
REMARK    6  A    between atoms: C_21  and  C_22 
REMARK    7  A    between atoms: C_25  and  O_26 
ROOT
HETATM    1  N   UNL     1      -2.593   5.272 -32.840  1.00  0.00    -0.342 N 
HETATM    2  C   UNL     1      -2.115   4.776 -31.634  1.00  0.00     0.104 A 
HETATM    3  C   UNL     1      -3.131   3.976 -31.127  1.00  0.00     0.049 A 
HETATM    4  C   UNL     1      -4.220   3.971 -32.035  1.00  0.00    -0.005 A 
HETATM    5  C   UNL     1      -3.868   4.793 -33.101  1.00  0.00     0.045 A 
HETATM    6  C   UNL     1      -5.475   3.324 -32.044  1.00  0.00     0.043 A 
HETATM    7  C   UNL     1      -6.352   3.508 -33.119  1.00  0.00     0.035 A 
HETATM    8  C   UNL     1      -5.977   4.351 -34.169  1.00  0.00     0.032 A 
HETATM    9  C   UNL     1      -4.737   5.001 -34.183  1.00  0.00     0.033 A 
ENDROOT
BRANCH   7  10
HETATM   10  N   UNL     1      -7.616   2.886 -33.215  1.00  0.00    -0.323 N 
HETATM   11  C   UNL     1      -7.874   1.577 -33.585  1.00  0.00     0.256 C 
HETATM   12  O   UNL     1      -7.059   0.734 -33.945  1.00  0.00    -0.267 OA
HETATM   13  H   UNL     1      -8.416   3.491 -33.090  1.00  0.00     0.169 HD
BRANCH  11  14
HETATM   14  C   UNL     1      -9.313   1.202 -33.582  1.00  0.00     0.032 A 
HETATM   15  C   UNL     1     -10.216   2.023 -34.265  1.00  0.00     0.020 A 
HETATM   16  C   UNL     1     -11.571   1.692 -34.298  1.00  0.00     0.038 A 
HETATM   17  C   UNL     1     -12.032   0.527 -33.678  1.00  0.00     0.068 A 
HETATM   18  C   UNL     1     -11.130  -0.292 -32.994  1.00  0.00     0.038 A 
HETATM   19  C   UNL     1      -9.771   0.041 -32.947  1.00  0.00     0.020 A 
BRANCH  17  20
HETATM   20  O   UNL     1     -13.376   0.307 -33.796  1.00  0.00    -0.356 OA
HETATM   21  C   UNL     1     -14.149   1.387 -34.305  1.00  0.00     0.210 C 
ENDBRANCH  17  20
ENDBRANCH  11  14
ENDBRANCH   7  10
BRANCH   2  22
HETATM   22  C   UNL     1      -0.795   5.041 -31.079  1.00  0.00     0.268 C 
HETATM   23  N   UNL     1      -0.786   5.553 -29.802  1.00  0.00    -0.353 N 
HETATM   24  H   UNL     1      -1.647   5.902 -29.404  1.00  0.00     0.162 HD
HETATM   25  O   UNL     1       0.253   4.831 -31.687  1.00  0.00    -0.266 OA
BRANCH  23  26
HETATM   26  C   UNL     1       0.443   5.973 -29.150  1.00  0.00     0.160 C 
BRANCH  26  27
HETATM   27  C   UNL     1       0.219   7.116 -28.143  1.00  0.00     0.073 C 
HETATM   28  C   UNL     1      -1.251   7.557 -28.201  1.00  0.00     0.047 C 
HETATM   29  O   UNL     1       0.479   6.642 -26.801  1.00  0.00    -0.379 OA
HETATM   30  C   UNL     1       1.202   7.654 -26.083  1.00  0.00     0.169 C 
HETATM   31  C   UNL     1       1.269   8.884 -26.963  1.00  0.00     0.029 C 
HETATM   32  C   UNL     1       1.168   8.299 -28.350  1.00  0.00     0.041 C 
ENDBRANCH  26  27
ENDBRANCH  23  26
ENDBRANCH   2  22
BRANCH   1  33
HETATM   33  C   UNL     1      -1.875   6.176 -33.732  1.00  0.00     0.125 C 
HETATM   34  C   UNL     1      -1.181   5.439 -34.864  1.00  0.00     0.027 C 
ENDBRANCH   1  33
TORSDOF 7
ENDMDL
MODEL 4
REMARK VINA RESULT:      -8.4      5.160      7.190
REMARK  7 active torsions:
REMARK  status: ('A' for Active; 'I' for Inactive)
REMARK    1  A    between atoms: C_2  and  N_3 
REMARK    2  A    between atoms: C_4  and  C_5 
REMARK       I    between atoms: C_5  and  N_6 
REMARK    3  A    between atoms: N_6  and  C_7 
REMARK    4  A    between atoms: C_7  and  C_8 
REMARK    5  A    between atoms: C_19  and  N_20 
REMARK       I    between atoms: N_20  and  C_21 
REMARK    6  A    between atoms: C_21  and  C_22 
REMARK    7  A    between atoms: C_25  and  O_26 
ROOT
HETATM    1  N   UNL     1      -4.302   5.988 -30.434  1.00  0.00    -0.342 N 
HETATM    2  C   UNL     1      -2.995   6.294 -30.794  1.00  0.00     0.104 A 
HETATM    3  C   UNL     1      -2.514   5.169 -31.454  1.00  0.00     0.049 A 
HETATM    4  C   UNL     1      -3.535   4.187 -31.512  1.00  0.00    -0.005 A 
HETATM    5  C   UNL     1      -4.648   4.716 -30.863  1.00  0.00     0.045 A 
HETATM    6  C   UNL     1      -3.610   2.895 -32.074  1.00  0.00     0.043 A 
HETATM    7  C   UNL     1      -4.795   2.156 -31.981  1.00  0.00     0.035 A 
HETATM    8  C   UNL     1      -5.892   2.706 -31.311  1.00  0.00     0.032 A 
HETATM    9  C   UNL     1      -5.841   3.987 -30.747  1.00  0.00     0.033 A 
ENDROOT
BRANCH   7  10
HETATM   10  N   UNL     1      -4.959   0.865 -32.530  1.00  0.00    -0.323 N 
HETATM   11  C   UNL     1      -5.732   0.519 -33.626  1.00  0.00     0.256 C 
HETATM   12  O   UNL     1      -6.452   1.257 -34.289  1.00  0.00    -0.267 OA
HETATM   13  H   UNL     1      -4.542   0.108 -32.008  1.00  0.00     0.169 HD
BRANCH  11  14
HETATM   14  C   UNL     1      -5.698  -0.925 -33.978  1.00  0.00     0.032 A 
HETATM   15  C   UNL     1      -4.502  -1.627 -33.796  1.00  0.00     0.020 A 
HETATM   16  C   UNL     1      -4.439  -2.988 -34.099  1.00  0.00     0.038 A 
HETATM   17  C   UNL     1      -5.573  -3.666 -34.556  1.00  0.00     0.068 A 
HETATM   18  C   UNL     1      -6.767  -2.965 -34.739  1.00  0.00     0.038 A 
HETATM   19  C   UNL     1      -6.834  -1.597 -34.448  1.00  0.00     0.020 A 
BRANCH  17  20
HETATM   20  O   UNL     1      -5.385  -4.998 -34.800  1.00  0.00    -0.356 OA
HETATM   21  C   UNL     1      -4.266  -5.603 -34.166  1.00  0.00     0.210 C 
ENDBRANCH  17  20
ENDBRANCH  11  14
ENDBRANCH   7  10
BRANCH   2  22
HETATM   22  C   UNL     1      -2.327   7.562 -30.541  1.00  0.00     0.268 C 
HETATM   23  N   UNL     1      -1.889   7.748 -29.250  1.00  0.00    -0.353 N 
HETATM   24  H   UNL     1      -2.215   7.126 -28.523  1.00  0.00     0.162 HD
HETATM   25  O   UNL     1      -2.155   8.424 -31.401  1.00  0.00    -0.266 OA
BRANCH  23  26
HETATM   26  C   UNL     1      -1.303   9.002 -28.809  1.00  0.00     0.160 C 
BRANCH  26  27
HETATM   27  C   UNL     1      -0.272   8.812 -27.680  1.00  0.00     0.073 C 
HETATM   28  C   UNL     1      -0.061  10.152 -26.961  1.00  0.00     0.047 C 
HETATM   29  O   UNL     1      -0.782   7.871 -26.708  1.00  0.00    -0.379 OA
HETATM   30  C   UNL     1       0.283   6.995 -26.307  1.00  0.00     0.169 C 
HETATM   31  C   UNL     1       1.561   7.504 -26.940  1.00  0.00     0.029 C 
HETATM   32  C   UNL     1       1.053   8.221 -28.166  1.00  0.00     0.041 C 
ENDBRANCH  26  27
ENDBRANCH  23  26
ENDBRANCH   2  22
BRANCH   1  33
HETATM   33  C   UNL     1      -5.209   6.865 -29.704  1.00  0.00     0.125 C 
HETATM   34  C   UNL     1      -5.182   6.607 -28.207  1.00  0.00     0.027 C 
ENDBRANCH   1  33
TORSDOF 7
ENDMDL
MODEL 5
REMARK VINA RESULT:      -8.3      1.905     10.854
REMARK  7 active torsions:
REMARK  status: ('A' for Active; 'I' for Inactive)
REMARK    1  A    between atoms: C_2  and  N_3 
REMARK    2  A    between atoms: C_4  and  C_5 
REMARK       I    between atoms: C_5  and  N_6 
REMARK    3  A    between atoms: N_6  and  C_7 
REMARK    4  A    between atoms: C_7  and  C_8 
REMARK    5  A    between atoms: C_19  and  N_20 
REMARK       I    between atoms: N_20  and  C_21 
REMARK    6  A    between atoms: C_21  and  C_22 
REMARK    7  A    between atoms: C_25  and  O_26 
ROOT
HETATM    1  N   UNL     1      -6.817   0.511 -32.893  1.00  0.00    -0.342 N 
HETATM    2  C   UNL     1      -7.915   1.324 -33.145  1.00  0.00     0.104 A 
HETATM    3  C   UNL     1      -7.543   2.597 -32.729  1.00  0.00     0.049 A 
HETATM    4  C   UNL     1      -6.212   2.560 -32.241  1.00  0.00    -0.005 A 
HETATM    5  C   UNL     1      -5.774   1.243 -32.347  1.00  0.00     0.045 A 
HETATM    6  C   UNL     1      -5.337   3.542 -31.729  1.00  0.00     0.043 A 
HETATM    7  C   UNL     1      -4.041   3.192 -31.335  1.00  0.00     0.035 A 
HETATM    8  C   UNL     1      -3.633   1.859 -31.439  1.00  0.00     0.032 A 
HETATM    9  C   UNL     1      -4.483   0.867 -31.946  1.00  0.00     0.033 A 
ENDROOT
BRANCH   7  10
HETATM   10  N   UNL     1      -3.099   4.114 -30.830  1.00  0.00    -0.323 N 
HETATM   11  C   UNL     1      -2.068   4.719 -31.529  1.00  0.00     0.256 C 
HETATM   12  O   UNL     1      -1.754   4.528 -32.699  1.00  0.00    -0.267 OA
HETATM   13  H   UNL     1      -3.128   4.272 -29.832  1.00  0.00     0.169 HD
BRANCH  11  14
HETATM   14  C   UNL     1      -1.242   5.660 -30.727  1.00  0.00     0.032 A 
HETATM   15  C   UNL     1       0.022   5.240 -30.302  1.00  0.00     0.020 A 
HETATM   16  C   UNL     1       0.832   6.104 -29.563  1.00  0.00     0.038 A 
HETATM   17  C   UNL     1       0.401   7.401 -29.268  1.00  0.00     0.068 A 
HETATM   18  C   UNL     1      -0.863   7.820 -29.691  1.00  0.00     0.038 A 
HETATM   19  C   UNL     1      -1.684   6.954 -30.423  1.00  0.00     0.020 A 
BRANCH  17  20
HETATM   20  O   UNL     1       1.292   8.153 -28.554  1.00  0.00    -0.356 OA
HETATM   21  C   UNL     1       1.216   8.042 -27.138  1.00  0.00     0.210 C 
ENDBRANCH  17  20
ENDBRANCH  11  14
ENDBRANCH   7  10
BRANCH   2  22
HETATM   22  C   UNL     1      -9.162   0.889 -33.758  1.00  0.00     0.268 C 
HETATM   23  N   UNL     1     -10.253   0.869 -32.920  1.00  0.00    -0.353 N 
HETATM   24  H   UNL     1     -10.111   0.950 -31.922  1.00  0.00     0.162 HD
HETATM   25  O   UNL     1      -9.260   0.556 -34.937  1.00  0.00    -0.266 OA
BRANCH  23  26
HETATM   26  C   UNL     1     -11.543   0.356 -33.347  1.00  0.00     0.160 C 
BRANCH  26  27
HETATM   27  C   UNL     1     -12.513   1.473 -33.778  1.00  0.00     0.073 C 
HETATM   28  C   UNL     1     -13.946   1.064 -33.407  1.00  0.00     0.047 C 
HETATM   29  O   UNL     1     -12.207   2.689 -33.058  1.00  0.00    -0.379 OA
HETATM   30  C   UNL     1     -12.297   3.800 -33.963  1.00  0.00     0.169 C 
HETATM   31  C   UNL     1     -12.835   3.279 -35.279  1.00  0.00     0.029 C 
HETATM   32  C   UNL     1     -12.399   1.834 -35.260  1.00  0.00     0.041 C 
ENDBRANCH  26  27
ENDBRANCH  23  26
ENDBRANCH   2  22
BRANCH   1  33
HETATM   33  C   UNL     1      -6.743  -0.922 -33.155  1.00  0.00     0.125 C 
HETATM   34  C   UNL     1      -6.221  -1.227 -34.549  1.00  0.00     0.027 C 
ENDBRANCH   1  33
TORSDOF 7
ENDMDL
MODEL 6
REMARK VINA RESULT:      -8.2      2.998      4.621
REMARK  7 active torsions:
REMARK  status: ('A' for Active; 'I' for Inactive)
REMARK    1  A    between atoms: C_2  and  N_3 
REMARK    2  A    between atoms: C_4  and  C_5 
REMARK       I    between atoms: C_5  and  N_6 
REMARK    3  A    between atoms: N_6  and  C_7 
REMARK    4  A    between atoms: C_7  and  C_8 
REMARK    5  A    between atoms: C_19  and  N_20 
REMARK       I    between atoms: N_20  and  C_21 
REMARK    6  A    between atoms: C_21  and  C_22 
REMARK    7  A    between atoms: C_25  and  O_26 
ROOT
HETATM    1  N   UNL     1      -3.183   6.549 -32.810  1.00  0.00    -0.342 N 
HETATM    2  C   UNL     1      -3.546   7.554 -31.923  1.00  0.00     0.104 A 
HETATM    3  C   UNL     1      -4.923   7.438 -31.766  1.00  0.00     0.049 A 
HETATM    4  C   UNL     1      -5.392   6.350 -32.545  1.00  0.00    -0.005 A 
HETATM    5  C   UNL     1      -4.289   5.807 -33.197  1.00  0.00     0.045 A 
HETATM    6  C   UNL     1      -6.666   5.773 -32.740  1.00  0.00     0.043 A 
HETATM    7  C   UNL     1      -6.813   4.662 -33.579  1.00  0.00     0.035 A 
HETATM    8  C   UNL     1      -5.689   4.148 -34.232  1.00  0.00     0.032 A 
HETATM    9  C   UNL     1      -4.415   4.702 -34.052  1.00  0.00     0.033 A 
ENDROOT
BRANCH   7  10
HETATM   10  N   UNL     1      -8.045   4.016 -33.814  1.00  0.00    -0.323 N 
HETATM   11  C   UNL     1      -9.139   4.529 -34.490  1.00  0.00     0.256 C 
HETATM   12  O   UNL     1      -9.257   5.653 -34.965  1.00  0.00    -0.267 OA
HETATM   13  H   UNL     1      -8.168   3.122 -33.358  1.00  0.00     0.169 HD
BRANCH  11  14
HETATM   14  C   UNL     1     -10.298   3.603 -34.590  1.00  0.00     0.032 A 
HETATM   15  C   UNL     1     -11.410   4.006 -35.336  1.00  0.00     0.020 A 
HETATM   16  C   UNL     1     -12.508   3.155 -35.466  1.00  0.00     0.038 A 
HETATM   17  C   UNL     1     -12.496   1.886 -34.879  1.00  0.00     0.068 A 
HETATM   18  C   UNL     1     -11.386   1.484 -34.132  1.00  0.00     0.038 A 
HETATM   19  C   UNL     1     -10.286   2.338 -33.989  1.00  0.00     0.020 A 
BRANCH  17  20
HETATM   20  O   UNL     1     -13.623   1.143 -35.094  1.00  0.00    -0.356 OA
HETATM   21  C   UNL     1     -14.094   0.381 -33.989  1.00  0.00     0.210 C 
ENDBRANCH  17  20
ENDBRANCH  11  14
ENDBRANCH   7  10
BRANCH   2  22
HETATM   22  C   UNL     1      -2.628   8.487 -31.286  1.00  0.00     0.268 C 
HETATM   23  N   UNL     1      -2.466   8.319 -29.929  1.00  0.00    -0.353 N 
HETATM   24  H   UNL     1      -3.113   7.728 -29.424  1.00  0.00     0.162 HD
HETATM   25  O   UNL     1      -2.026   9.371 -31.892  1.00  0.00    -0.266 OA
BRANCH  23  26
HETATM   26  C   UNL     1      -1.671   9.234 -29.129  1.00  0.00     0.160 C 
BRANCH  26  27
HETATM   27  C   UNL     1      -0.661   8.507 -28.222  1.00  0.00     0.073 C 
HETATM   28  C   UNL     1      -0.073   9.510 -27.220  1.00  0.00     0.047 C 
HETATM   29  O   UNL     1      -1.340   7.480 -27.463  1.00  0.00    -0.379 OA
HETATM   30  C   UNL     1      -0.514   6.305 -27.430  1.00  0.00     0.169 C 
HETATM   31  C   UNL     1       0.813   6.657 -28.068  1.00  0.00     0.029 C 
HETATM   32  C   UNL     1       0.438   7.782 -29.001  1.00  0.00     0.041 C 
ENDBRANCH  26  27
ENDBRANCH  23  26
ENDBRANCH   2  22
BRANCH   1  33
HETATM   33  C   UNL     1      -1.831   6.286 -33.289  1.00  0.00     0.125 C 
HETATM   34  C   UNL     1      -1.085   5.305 -32.402  1.00  0.00     0.027 C 
ENDBRANCH   1  33
TORSDOF 7
ENDMDL
MODEL 7
REMARK VINA RESULT:      -8.2      4.238     12.492
REMARK  7 active torsions:
REMARK  status: ('A' for Active; 'I' for Inactive)
REMARK    1  A    between atoms: C_2  and  N_3 
REMARK    2  A    between atoms: C_4  and  C_5 
REMARK       I    between atoms: C_5  and  N_6 
REMARK    3  A    between atoms: N_6  and  C_7 
REMARK    4  A    between atoms: C_7  and  C_8 
REMARK    5  A    between atoms: C_19  and  N_20 
REMARK       I    between atoms: N_20  and  C_21 
REMARK    6  A    between atoms: C_21  and  C_22 
REMARK    7  A    between atoms: C_25  and  O_26 
ROOT
HETATM    1  N   UNL     1      -2.662   5.128 -32.700  1.00  0.00    -0.342 N 
HETATM    2  C   UNL     1      -4.003   5.388 -32.442  1.00  0.00     0.104 A 
HETATM    3  C   UNL     1      -4.019   6.180 -31.300  1.00  0.00     0.049 A 
HETATM    4  C   UNL     1      -2.688   6.417 -30.876  1.00  0.00    -0.005 A 
HETATM    5  C   UNL     1      -1.850   5.745 -31.762  1.00  0.00     0.045 A 
HETATM    6  C   UNL     1      -2.123   7.159 -29.815  1.00  0.00     0.043 A 
HETATM    7  C   UNL     1      -0.733   7.219 -29.662  1.00  0.00     0.035 A 
HETATM    8  C   UNL     1       0.083   6.523 -30.559  1.00  0.00     0.032 A 
HETATM    9  C   UNL     1      -0.454   5.782 -31.619  1.00  0.00     0.033 A 
ENDROOT
BRANCH   7  10
HETATM   10  N   UNL     1      -0.088   7.951 -28.642  1.00  0.00    -0.323 N 
HETATM   11  C   UNL     1       0.272   7.490 -27.387  1.00  0.00     0.256 C 
HETATM   12  O   UNL     1       0.055   6.380 -26.914  1.00  0.00    -0.267 OA
HETATM   13  H   UNL     1       0.035   8.939 -28.818  1.00  0.00     0.169 HD
BRANCH  11  14
HETATM   14  C   UNL     1       0.953   8.495 -26.527  1.00  0.00     0.032 A 
HETATM   15  C   UNL     1       0.439   9.795 -26.489  1.00  0.00     0.020 A 
HETATM   16  C   UNL     1       1.042  10.758 -25.680  1.00  0.00     0.038 A 
HETATM   17  C   UNL     1       2.140  10.428 -24.881  1.00  0.00     0.068 A 
HETATM   18  C   UNL     1       2.654   9.129 -24.920  1.00  0.00     0.038 A 
HETATM   19  C   UNL     1       2.061   8.161 -25.738  1.00  0.00     0.020 A 
BRANCH  17  20
HETATM   20  O   UNL     1       2.628  11.455 -24.121  1.00  0.00    -0.356 OA
HETATM   21  C   UNL     1       3.454  11.088 -23.023  1.00  0.00     0.210 C 
ENDBRANCH  17  20
ENDBRANCH  11  14
ENDBRANCH   7  10
BRANCH   2  22
HETATM   22  C   UNL     1      -5.120   4.931 -33.256  1.00  0.00     0.268 C 
HETATM   23  N   UNL     1      -5.623   3.694 -32.923  1.00  0.00    -0.353 N 
HETATM   24  H   UNL     1      -5.094   3.096 -32.303  1.00  0.00     0.162 HD
HETATM   25  O   UNL     1      -5.599   5.583 -34.182  1.00  0.00    -0.266 OA
BRANCH  23  26
HETATM   26  C   UNL     1      -6.663   3.050 -33.706  1.00  0.00     0.160 C 
BRANCH  26  27
HETATM   27  C   UNL     1      -6.616   1.514 -33.606  1.00  0.00     0.073 C 
HETATM   28  C   UNL     1      -5.288   1.092 -32.963  1.00  0.00     0.047 C 
HETATM   29  O   UNL     1      -7.683   1.049 -32.747  1.00  0.00    -0.379 OA
HETATM   30  C   UNL     1      -8.270  -0.126 -33.329  1.00  0.00     0.169 C 
HETATM   31  C   UNL     1      -7.436  -0.508 -34.533  1.00  0.00     0.029 C 
HETATM   32  C   UNL     1      -6.837   0.813 -34.948  1.00  0.00     0.041 C 
ENDBRANCH  26  27
ENDBRANCH  23  26
ENDBRANCH   2  22
BRANCH   1  33
HETATM   33  C   UNL     1      -2.150   4.319 -33.799  1.00  0.00     0.125 C 
HETATM   34  C   UNL     1      -1.752   5.161 -34.999  1.00  0.00     0.027 C 
ENDBRANCH   1  33
TORSDOF 7
ENDMDL
MODEL 8
REMARK VINA RESULT:      -8.2      6.491     14.685
REMARK  7 active torsions:
REMARK  status: ('A' for Active; 'I' for Inactive)
REMARK    1  A    between atoms: C_2  and  N_3 
REMARK    2  A    between atoms: C_4  and  C_5 
REMARK       I    between atoms: C_5  and  N_6 
REMARK    3  A    between atoms: N_6  and  C_7 
REMARK    4  A    between atoms: C_7  and  C_8 
REMARK    5  A    between atoms: C_19  and  N_20 
REMARK       I    between atoms: N_20  and  C_21 
REMARK    6  A    between atoms: C_21  and  C_22 
REMARK    7  A    between atoms: C_25  and  O_26 
ROOT
HETATM    1  N   UNL     1      -1.390   8.289 -29.472  1.00  0.00    -0.342 N 
HETATM    2  C   UNL     1      -0.710   7.521 -30.409  1.00  0.00     0.104 A 
HETATM    3  C   UNL     1       0.479   7.146 -29.795  1.00  0.00     0.049 A 
HETATM    4  C   UNL     1       0.512   7.671 -28.478  1.00  0.00    -0.005 A 
HETATM    5  C   UNL     1      -0.666   8.389 -28.294  1.00  0.00     0.045 A 
HETATM    6  C   UNL     1       1.443   7.584 -27.420  1.00  0.00     0.043 A 
HETATM    7  C   UNL     1       1.179   8.212 -26.198  1.00  0.00     0.035 A 
HETATM    8  C   UNL     1      -0.005   8.939 -26.047  1.00  0.00     0.032 A 
HETATM    9  C   UNL     1      -0.945   9.038 -27.082  1.00  0.00     0.033 A 
ENDROOT
BRANCH   7  10
HETATM   10  N   UNL     1       2.047   8.160 -25.086  1.00  0.00    -0.323 N 
HETATM   11  C   UNL     1       2.727   9.220 -24.510  1.00  0.00     0.256 C 
HETATM   12  O   UNL     1       2.739  10.386 -24.888  1.00  0.00    -0.267 OA
HETATM   13  H   UNL     1       2.263   7.236 -24.739  1.00  0.00     0.169 HD
BRANCH  11  14
HETATM   14  C   UNL     1       3.563   8.857 -23.335  1.00  0.00     0.032 A 
HETATM   15  C   UNL     1       2.923   8.400 -22.179  1.00  0.00     0.020 A 
HETATM   16  C   UNL     1       3.677   8.033 -21.064  1.00  0.00     0.038 A 
HETATM   17  C   UNL     1       5.073   8.090 -21.102  1.00  0.00     0.068 A 
HETATM   18  C   UNL     1       5.713   8.549 -22.256  1.00  0.00     0.038 A 
HETATM   19  C   UNL     1       4.961   8.929 -23.374  1.00  0.00     0.020 A 
BRANCH  17  20
HETATM   20  O   UNL     1       5.696   7.688 -19.953  1.00  0.00    -0.356 OA
HETATM   21  C   UNL     1       6.619   6.614 -20.080  1.00  0.00     0.210 C 
ENDBRANCH  17  20
ENDBRANCH  11  14
ENDBRANCH   7  10
BRANCH   2  22
HETATM   22  C   UNL     1      -1.205   7.178 -31.734  1.00  0.00     0.268 C 
HETATM   23  N   UNL     1      -1.688   5.896 -31.867  1.00  0.00    -0.353 N 
HETATM   24  H   UNL     1      -1.498   5.218 -31.142  1.00  0.00     0.162 HD
HETATM   25  O   UNL     1      -1.202   7.958 -32.684  1.00  0.00    -0.266 OA
BRANCH  23  26
HETATM   26  C   UNL     1      -2.115   5.364 -33.150  1.00  0.00     0.160 C 
BRANCH  26  27
HETATM   27  C   UNL     1      -3.536   4.771 -33.103  1.00  0.00     0.073 C 
HETATM   28  C   UNL     1      -3.453   3.300 -32.671  1.00  0.00     0.047 C 
HETATM   29  O   UNL     1      -4.324   5.472 -32.114  1.00  0.00    -0.379 OA
HETATM   30  C   UNL     1      -5.642   5.691 -32.640  1.00  0.00     0.169 C 
HETATM   31  C   UNL     1      -5.737   4.960 -33.963  1.00  0.00     0.029 C 
HETATM   32  C   UNL     1      -4.299   4.927 -34.420  1.00  0.00     0.041 C 
ENDBRANCH  26  27
ENDBRANCH  23  26
ENDBRANCH   2  22
BRANCH   1  33
HETATM   33  C   UNL     1      -2.690   8.918 -29.672  1.00  0.00     0.125 C 
HETATM   34  C   UNL     1      -2.571  10.319 -30.248  1.00  0.00     0.027 C 
ENDBRANCH   1  33
TORSDOF 7
ENDMDL
MODEL 9
REMARK VINA RESULT:      -7.8      6.553     14.765
REMARK  7 active torsions:
REMARK  status: ('A' for Active; 'I' for Inactive)
REMARK    1  A    between atoms: C_2  and  N_3 
REMARK    2  A    between atoms: C_4  and  C_5 
REMARK       I    between atoms: C_5  and  N_6 
REMARK    3  A    between atoms: N_6  and  C_7 
REMARK    4  A    between atoms: C_7  and  C_8 
REMARK    5  A    between atoms: C_19  and  N_20 
REMARK       I    between atoms: N_20  and  C_21 
REMARK    6  A    between atoms: C_21  and  C_22 
REMARK    7  A    between atoms: C_25  and  O_26 
ROOT
HETATM    1  N   UNL     1      -1.440   7.382 -29.164  1.00  0.00    -0.342 N 
HETATM    2  C   UNL     1      -0.790   6.426 -29.933  1.00  0.00     0.104 A 
HETATM    3  C   UNL     1       0.415   6.177 -29.285  1.00  0.00     0.049 A 
HETATM    4  C   UNL     1       0.487   6.971 -28.112  1.00  0.00    -0.005 A 
HETATM    5  C   UNL     1      -0.682   7.724 -28.054  1.00  0.00     0.045 A 
HETATM    6  C   UNL     1       1.447   7.102 -27.085  1.00  0.00     0.043 A 
HETATM    7  C   UNL     1       1.220   7.979 -26.018  1.00  0.00     0.035 A 
HETATM    8  C   UNL     1       0.043   8.733 -25.994  1.00  0.00     0.032 A 
HETATM    9  C   UNL     1      -0.925   8.619 -27.001  1.00  0.00     0.033 A 
ENDROOT
BRANCH   7  10
HETATM   10  N   UNL     1       2.119   8.156 -24.944  1.00  0.00    -0.323 N 
HETATM   11  C   UNL     1       2.616   9.356 -24.464  1.00  0.00     0.256 C 
HETATM   12  O   UNL     1       2.407  10.478 -24.912  1.00  0.00    -0.267 OA
HETATM   13  H   UNL     1       2.508   7.310 -24.551  1.00  0.00     0.169 HD
BRANCH  11  14
HETATM   14  C   UNL     1       3.541   9.226 -23.307  1.00  0.00     0.032 A 
HETATM   15  C   UNL     1       4.670  10.050 -23.262  1.00  0.00     0.020 A 
HETATM   16  C   UNL     1       5.550   9.967 -22.182  1.00  0.00     0.038 A 
HETATM   17  C   UNL     1       5.296   9.088 -21.125  1.00  0.00     0.068 A 
HETATM   18  C   UNL     1       4.168   8.264 -21.171  1.00  0.00     0.038 A 
HETATM   19  C   UNL     1       3.288   8.334 -22.257  1.00  0.00     0.020 A 
BRANCH  17  20
HETATM   20  O   UNL     1       6.223   9.115 -20.120  1.00  0.00    -0.356 OA
HETATM   21  C   UNL     1       6.854   7.878 -19.814  1.00  0.00     0.210 C 
ENDBRANCH  17  20
ENDBRANCH  11  14
ENDBRANCH   7  10
BRANCH   2  22
HETATM   22  C   UNL     1      -1.323   5.813 -31.141  1.00  0.00     0.268 C 
HETATM   23  N   UNL     1      -2.113   4.704 -30.938  1.00  0.00    -0.353 N 
HETATM   24  H   UNL     1      -2.119   4.261 -30.030  1.00  0.00     0.162 HD
HETATM   25  O   UNL     1      -1.098   6.234 -32.274  1.00  0.00    -0.266 OA
BRANCH  23  26
HETATM   26  C   UNL     1      -2.630   3.915 -32.043  1.00  0.00     0.160 C 
BRANCH  26  27
HETATM   27  C   UNL     1      -4.113   4.207 -32.338  1.00  0.00     0.073 C 
HETATM   28  C   UNL     1      -4.781   4.752 -31.068  1.00  0.00     0.047 C 
HETATM   29  O   UNL     1      -4.215   5.229 -33.357  1.00  0.00    -0.379 OA
HETATM   30  C   UNL     1      -5.261   4.870 -34.272  1.00  0.00     0.169 C 
HETATM   31  C   UNL     1      -5.954   3.643 -33.720  1.00  0.00     0.029 C 
HETATM   32  C   UNL     1      -4.868   2.999 -32.895  1.00  0.00     0.041 C 
ENDBRANCH  26  27
ENDBRANCH  23  26
ENDBRANCH   2  22
BRANCH   1  33
HETATM   33  C   UNL     1      -2.743   7.968 -29.458  1.00  0.00     0.125 C 
HETATM   34  C   UNL     1      -2.634   9.216 -30.317  1.00  0.00     0.027 C 
ENDBRANCH   1  33
TORSDOF 7
ENDMDL
MODEL 10
REMARK VINA RESULT:      -7.8      5.257      9.547
REMARK  7 active torsions:
REMARK  status: ('A' for Active; 'I' for Inactive)
REMARK    1  A    between atoms: C_2  and  N_3 
REMARK    2  A    between atoms: C_4  and  C_5 
REMARK       I    between atoms: C_5  and  N_6 
REMARK    3  A    between atoms: N_6  and  C_7 
REMARK    4  A    between atoms: C_7  and  C_8 
REMARK    5  A    between atoms: C_19  and  N_20 
REMARK       I    between atoms: N_20  and  C_21 
REMARK    6  A    between atoms: C_21  and  C_22 
REMARK    7  A    between atoms: C_25  and  O_26 
ROOT
HETATM    1  N   UNL     1     -12.126   4.709 -33.978  1.00  0.00    -0.342 N 
HETATM    2  C   UNL     1     -11.425   5.759 -34.557  1.00  0.00     0.104 A 
HETATM    3  C   UNL     1     -10.156   5.262 -34.826  1.00  0.00     0.049 A 
HETATM    4  C   UNL     1     -10.091   3.903 -34.426  1.00  0.00    -0.005 A 
HETATM    5  C   UNL     1     -11.334   3.574 -33.892  1.00  0.00     0.045 A 
HETATM    6  C   UNL     1      -9.080   2.919 -34.486  1.00  0.00     0.043 A 
HETATM    7  C   UNL     1      -9.330   1.625 -34.015  1.00  0.00     0.035 A 
HETATM    8  C   UNL     1     -10.583   1.328 -33.470  1.00  0.00     0.032 A 
HETATM    9  C   UNL     1     -11.602   2.287 -33.402  1.00  0.00     0.033 A 
ENDROOT
BRANCH   7  10
HETATM   10  N   UNL     1      -8.382   0.580 -34.054  1.00  0.00    -0.323 N 
HETATM   11  C   UNL     1      -7.133   0.566 -33.455  1.00  0.00     0.256 C 
HETATM   12  O   UNL     1      -6.603   1.474 -32.826  1.00  0.00    -0.267 OA
HETATM   13  H   UNL     1      -8.606  -0.196 -34.661  1.00  0.00     0.169 HD
BRANCH  11  14
HETATM   14  C   UNL     1      -6.359  -0.686 -33.662  1.00  0.00     0.032 A 
HETATM   15  C   UNL     1      -6.925  -1.697 -34.447  1.00  0.00     0.020 A 
HETATM   16  C   UNL     1      -6.219  -2.878 -34.677  1.00  0.00     0.038 A 
HETATM   17  C   UNL     1      -4.934  -3.050 -34.154  1.00  0.00     0.068 A 
HETATM   18  C   UNL     1      -4.370  -2.042 -33.369  1.00  0.00     0.038 A 
HETATM   19  C   UNL     1      -5.077  -0.859 -33.125  1.00  0.00     0.020 A 
BRANCH  17  20
HETATM   20  O   UNL     1      -4.342  -4.243 -34.465  1.00  0.00    -0.356 OA
HETATM   21  C   UNL     1      -3.388  -4.733 -33.532  1.00  0.00     0.210 C 
ENDBRANCH  17  20
ENDBRANCH  11  14
ENDBRANCH   7  10
BRANCH   2  22
HETATM   22  C   UNL     1     -11.970   7.080 -34.839  1.00  0.00     0.268 C 
HETATM   23  N   UNL     1     -12.279   7.319 -36.158  1.00  0.00    -0.353 N 
HETATM   24  H   UNL     1     -11.940   6.684 -36.868  1.00  0.00     0.162 HD
HETATM   25  O   UNL     1     -12.150   7.939 -33.978  1.00  0.00    -0.266 OA
BRANCH  23  26
HETATM   26  C   UNL     1     -12.728   8.621 -36.620  1.00  0.00     0.160 C 
BRANCH  26  27
HETATM   27  C   UNL     1     -11.874   9.166 -37.780  1.00  0.00     0.073 C 
HETATM   28  C   UNL     1     -12.499   8.731 -39.113  1.00  0.00     0.047 C 
HETATM   29  O   UNL     1     -11.876  10.612 -37.750  1.00  0.00    -0.379 OA
HETATM   30  C   UNL     1     -10.549  11.085 -38.032  1.00  0.00     0.169 C 
HETATM   31  C   UNL     1      -9.704   9.886 -38.409  1.00  0.00     0.029 C 
HETATM   32  C   UNL     1     -10.402   8.757 -37.692  1.00  0.00     0.041 C 
ENDBRANCH  26  27
ENDBRANCH  23  26
ENDBRANCH   2  22
BRANCH   1  33
HETATM   33  C   UNL     1     -13.507   4.762 -33.512  1.00  0.00     0.125 C 
HETATM   34  C   UNL     1     -13.607   5.158 -32.049  1.00  0.00     0.027 C 
ENDBRANCH   1  33
TORSDOF 7
ENDMDL
