MODEL 1
REMARK VINA RESULT:     -10.4      0.000      0.000
REMARK  9 active torsions:
REMARK  status: ('A' for Active; 'I' for Inactive)
REMARK    1  A    between atoms: C_2  and  O_3 
REMARK    2  A    between atoms: O_3  and  C_4 
REMARK    3  A    between atoms: C_5  and  C_6 
REMARK    4  A    between atoms: C_7  and  C_8 
REMARK       I    between atoms: C_8  and  N_9 
REMARK    5  A    between atoms: N_9  and  C_10 
REMARK    6  A    between atoms: C_20  and  S_21 
REMARK    7  A    between atoms: S_21  and  C_22 
REMARK    8  A    between atoms: C_22  and  C_23 
REMARK       I    between atoms: C_23  and  N_24 
REMARK    9  A    between atoms: N_24  and  C_25 
ROOT
HETATM    1  C   UNL     1      -6.287   2.098 -33.690  1.00  0.00     0.107 C 
HETATM    2  C   UNL     1      -5.287   1.255 -32.887  1.00  0.00     0.046 C 
HETATM    3  C   UNL     1      -4.278   1.852 -32.209  1.00  0.00     0.019 C 
HETATM    4  C   UNL     1      -3.379   1.155 -31.215  1.00  0.00     0.069 C 
HETATM    5  N   UNL     1      -4.064   3.219 -32.337  1.00  0.00    -0.353 N 
HETATM    6  C   UNL     1      -4.962   4.106 -32.910  1.00  0.00     0.087 C 
HETATM    7  C   UNL     1      -6.026   3.626 -33.600  1.00  0.00     0.055 C 
HETATM    8  C   UNL     1      -7.224   4.509 -33.911  1.00  0.00     0.019 C 
HETATM    9  N   UNL     1      -8.216   5.241 -34.171  1.00  0.00    -0.096 N 
HETATM   10  H   UNL     1      -3.504   3.636 -31.597  1.00  0.00     0.166 HD
ENDROOT
BRANCH   1  11
HETATM   11  C   UNL     1      -7.759   1.796 -33.342  1.00  0.00    -0.011 A 
HETATM   12  C   UNL     1      -8.271   1.963 -32.035  1.00  0.00     0.076 A 
HETATM   13  C   UNL     1      -9.629   1.737 -31.789  1.00  0.00     0.037 A 
HETATM   14  C   UNL     1     -10.483   1.361 -32.827  1.00  0.00     0.003 A 
HETATM   15  C   UNL     1      -9.988   1.196 -34.117  1.00  0.00     0.001 A 
HETATM   16  C   UNL     1      -8.635   1.409 -34.375  1.00  0.00     0.011 A 
BRANCH  12  17
HETATM   17  O   UNL     1      -7.371   2.355 -31.079  1.00  0.00    -0.351 OA
BRANCH  17  18
HETATM   18  C   UNL     1      -7.786   3.354 -30.152  1.00  0.00     0.171 C 
HETATM   19  C   UNL     1      -6.539   4.027 -29.608  1.00  0.00     0.034 C 
ENDBRANCH  17  18
ENDBRANCH  12  17
ENDBRANCH   1  11
BRANCH   6  20
HETATM   20  S   UNL     1      -4.848   5.824 -32.540  1.00  0.00    -0.102 SA
BRANCH  20  21
HETATM   21  C   UNL     1      -3.326   6.308 -33.402  1.00  0.00     0.184 C 
BRANCH  21  22
HETATM   22  C   UNL     1      -2.431   7.209 -32.567  1.00  0.00     0.231 C 
HETATM   23  N   UNL     1      -2.313   6.808 -31.248  1.00  0.00    -0.327 N 
HETATM   24  H   UNL     1      -2.991   6.119 -30.934  1.00  0.00     0.169 HD
HETATM   25  O   UNL     1      -1.826   8.136 -33.101  1.00  0.00    -0.272 OA
BRANCH  23  26
HETATM   26  C   UNL     1      -1.409   7.277 -30.278  1.00  0.00     0.034 A 
HETATM   27  C   UNL     1      -1.694   8.316 -29.391  1.00  0.00     0.030 A 
HETATM   28  C   UNL     1      -0.723   8.757 -28.486  1.00  0.00     0.009 A 
HETATM   29  C   UNL     1       0.546   8.171 -28.456  1.00  0.00    -0.062 A 
HETATM   30  C   UNL     1       1.572   8.640 -27.469  1.00  0.00     0.048 C 
HETATM   31  C   UNL     1       0.824   7.117 -29.332  1.00  0.00     0.009 A 
HETATM   32  C   UNL     1      -0.146   6.679 -30.239  1.00  0.00     0.030 A 
ENDBRANCH  23  26
ENDBRANCH  21  22
ENDBRANCH  20  21
ENDBRANCH   6  20
BRANCH   2  33
HETATM   33  C   UNL     1      -5.525  -0.227 -32.825  1.00  0.00     0.255 C 
HETATM   34  N   UNL     1      -5.218  -0.889 -34.000  1.00  0.00    -0.323 N 
HETATM   35  H   UNL     1      -4.856  -0.333 -34.763  1.00  0.00     0.169 HD
HETATM   36  O   UNL     1      -5.954  -0.750 -31.806  1.00  0.00    -0.268 OA
BRANCH  34  37
HETATM   37  C   UNL     1      -5.219  -2.288 -34.198  1.00  0.00     0.035 A 
HETATM   38  C   UNL     1      -4.134  -3.119 -33.907  1.00  0.00     0.029 A 
HETATM   39  C   UNL     1      -4.199  -4.492 -34.160  1.00  0.00     0.002 A 
HETATM   40  C   UNL     1      -5.347  -5.048 -34.715  1.00  0.00     0.000 A 
HETATM   41  C   UNL     1      -6.437  -4.233 -35.004  1.00  0.00     0.002 A 
HETATM   42  C   UNL     1      -6.378  -2.861 -34.737  1.00  0.00     0.029 A 
ENDBRANCH  34  37
ENDBRANCH   2  33
TORSDOF 9
ENDMDL
MODEL 2
REMARK VINA RESULT:     -10.3      1.123      1.405
REMARK  9 active torsions:
REMARK  status: ('A' for Active; 'I' for Inactive)
REMARK    1  A    between atoms: C_2  and  O_3 
REMARK    2  A    between atoms: O_3  and  C_4 
REMARK    3  A    between atoms: C_5  and  C_6 
REMARK    4  A    between atoms: C_7  and  C_8 
REMARK       I    between atoms: C_8  and  N_9 
REMARK    5  A    between atoms: N_9  and  C_10 
REMARK    6  A    between atoms: C_20  and  S_21 
REMARK    7  A    between atoms: S_21  and  C_22 
REMARK    8  A    between atoms: C_22  and  C_23 
REMARK       I    between atoms: C_23  and  N_24 
REMARK    9  A    between atoms: N_24  and  C_25 
ROOT
HETATM    1  C   UNL     1      -5.754   1.919 -33.478  1.00  0.00     0.107 C 
HETATM    2  C   UNL     1      -4.883   0.917 -32.708  1.00  0.00     0.046 C 
HETATM    3  C   UNL     1      -3.835   1.349 -31.967  1.00  0.00     0.019 C 
HETATM    4  C   UNL     1      -3.055   0.492 -30.999  1.00  0.00     0.069 C 
HETATM    5  N   UNL     1      -3.462   2.687 -31.999  1.00  0.00    -0.353 N 
HETATM    6  C   UNL     1      -4.234   3.707 -32.535  1.00  0.00     0.087 C 
HETATM    7  C   UNL     1      -5.323   3.398 -33.282  1.00  0.00     0.055 C 
HETATM    8  C   UNL     1      -6.401   4.432 -33.564  1.00  0.00     0.019 C 
HETATM    9  N   UNL     1      -7.294   5.290 -33.799  1.00  0.00    -0.096 N 
HETATM   10  H   UNL     1      -2.883   2.989 -31.219  1.00  0.00     0.166 HD
ENDROOT
BRANCH   1  11
HETATM   11  C   UNL     1      -7.261   1.769 -33.188  1.00  0.00    -0.011 A 
HETATM   12  C   UNL     1      -7.800   1.961 -31.895  1.00  0.00     0.076 A 
HETATM   13  C   UNL     1      -9.181   1.877 -31.700  1.00  0.00     0.037 A 
HETATM   14  C   UNL     1     -10.033   1.618 -32.776  1.00  0.00     0.003 A 
HETATM   15  C   UNL     1      -9.513   1.431 -34.052  1.00  0.00     0.001 A 
HETATM   16  C   UNL     1      -8.136   1.503 -34.259  1.00  0.00     0.011 A 
BRANCH  12  17
HETATM   17  O   UNL     1      -6.897   2.231 -30.899  1.00  0.00    -0.351 OA
BRANCH  17  18
HETATM   18  C   UNL     1      -7.360   2.976 -29.775  1.00  0.00     0.171 C 
HETATM   19  C   UNL     1      -7.095   4.445 -30.054  1.00  0.00     0.034 C 
ENDBRANCH  17  18
ENDBRANCH  12  17
ENDBRANCH   1  11
BRANCH   6  20
HETATM   20  S   UNL     1      -3.936   5.373 -32.050  1.00  0.00    -0.102 SA
BRANCH  20  21
HETATM   21  C   UNL     1      -2.181   5.338 -31.590  1.00  0.00     0.184 C 
BRANCH  21  22
HETATM   22  C   UNL     1      -1.845   6.287 -30.451  1.00  0.00     0.231 C 
HETATM   23  N   UNL     1      -0.739   5.901 -29.714  1.00  0.00    -0.327 N 
HETATM   24  H   UNL     1      -0.423   4.947 -29.860  1.00  0.00     0.169 HD
HETATM   25  O   UNL     1      -2.482   7.329 -30.314  1.00  0.00    -0.272 OA
BRANCH  23  26
HETATM   26  C   UNL     1      -0.039   6.648 -28.750  1.00  0.00     0.034 A 
HETATM   27  C   UNL     1       0.752   7.758 -29.052  1.00  0.00     0.030 A 
HETATM   28  C   UNL     1       1.456   8.419 -28.041  1.00  0.00     0.009 A 
HETATM   29  C   UNL     1       1.384   7.981 -26.715  1.00  0.00    -0.062 A 
HETATM   30  C   UNL     1       2.129   8.711 -25.638  1.00  0.00     0.048 C 
HETATM   31  C   UNL     1       0.576   6.882 -26.410  1.00  0.00     0.009 A 
HETATM   32  C   UNL     1      -0.124   6.218 -27.422  1.00  0.00     0.030 A 
ENDBRANCH  23  26
ENDBRANCH  21  22
ENDBRANCH  20  21
ENDBRANCH   6  20
BRANCH   2  33
HETATM   33  C   UNL     1      -5.291  -0.528 -32.750  1.00  0.00     0.255 C 
HETATM   34  N   UNL     1      -4.960  -1.165 -33.931  1.00  0.00    -0.323 N 
HETATM   35  H   UNL     1      -4.473  -0.621 -34.630  1.00  0.00     0.169 HD
HETATM   36  O   UNL     1      -5.863  -1.044 -31.800  1.00  0.00    -0.268 OA
BRANCH  34  37
HETATM   37  C   UNL     1      -5.101  -2.544 -34.208  1.00  0.00     0.035 A 
HETATM   38  C   UNL     1      -4.147  -3.509 -33.877  1.00  0.00     0.029 A 
HETATM   39  C   UNL     1      -4.343  -4.851 -34.213  1.00  0.00     0.002 A 
HETATM   40  C   UNL     1      -5.494  -5.243 -34.889  1.00  0.00     0.000 A 
HETATM   41  C   UNL     1      -6.456  -4.293 -35.219  1.00  0.00     0.002 A 
HETATM   42  C   UNL     1      -6.267  -2.951 -34.871  1.00  0.00     0.029 A 
ENDBRANCH  34  37
ENDBRANCH   2  33
TORSDOF 9
ENDMDL
MODEL 3
REMARK VINA RESULT:      -9.6      2.297     10.116
REMARK  9 active torsions:
REMARK  status: ('A' for Active; 'I' for Inactive)
REMARK    1  A    between atoms: C_2  and  O_3 
REMARK    2  A    between atoms: O_3  and  C_4 
REMARK    3  A    between atoms: C_5  and  C_6 
REMARK    4  A    between atoms: C_7  and  C_8 
REMARK       I    between atoms: C_8  and  N_9 
REMARK    5  A    between atoms: N_9  and  C_10 
REMARK    6  A    between atoms: C_20  and  S_21 
REMARK    7  A    between atoms: S_21  and  C_22 
REMARK    8  A    between atoms: C_22  and  C_23 
REMARK       I    between atoms: C_23  and  N_24 
REMARK    9  A    between atoms: N_24  and  C_25 
ROOT
HETATM    1  C   UNL     1      -4.414   6.819 -30.549  1.00  0.00     0.107 C 
HETATM    2  C   UNL     1      -4.380   6.701 -29.019  1.00  0.00     0.046 C 
HETATM    3  C   UNL     1      -5.215   5.846 -28.381  1.00  0.00     0.019 C 
HETATM    4  C   UNL     1      -5.118   5.482 -26.917  1.00  0.00     0.069 C 
HETATM    5  N   UNL     1      -6.194   5.164 -29.092  1.00  0.00    -0.353 N 
HETATM    6  C   UNL     1      -6.244   5.075 -30.475  1.00  0.00     0.087 C 
HETATM    7  C   UNL     1      -5.440   5.869 -31.225  1.00  0.00     0.055 C 
HETATM    8  C   UNL     1      -5.171   5.557 -32.687  1.00  0.00     0.019 C 
HETATM    9  N   UNL     1      -4.949   5.299 -33.901  1.00  0.00    -0.096 N 
HETATM   10  H   UNL     1      -6.572   4.345 -28.623  1.00  0.00     0.166 HD
ENDROOT
BRANCH   1  11
HETATM   11  C   UNL     1      -3.030   6.649 -31.206  1.00  0.00    -0.011 A 
HETATM   12  C   UNL     1      -2.312   7.745 -31.738  1.00  0.00     0.076 A 
HETATM   13  C   UNL     1      -1.032   7.545 -32.264  1.00  0.00     0.037 A 
HETATM   14  C   UNL     1      -0.454   6.274 -32.255  1.00  0.00     0.003 A 
HETATM   15  C   UNL     1      -1.152   5.191 -31.732  1.00  0.00     0.001 A 
HETATM   16  C   UNL     1      -2.432   5.374 -31.212  1.00  0.00     0.011 A 
BRANCH  12  17
HETATM   17  O   UNL     1      -2.942   8.961 -31.689  1.00  0.00    -0.351 OA
BRANCH  17  18
HETATM   18  C   UNL     1      -2.399   9.950 -30.818  1.00  0.00     0.171 C 
HETATM   19  C   UNL     1      -3.544  10.826 -30.344  1.00  0.00     0.034 C 
ENDBRANCH  17  18
ENDBRANCH  12  17
ENDBRANCH   1  11
BRANCH   6  20
HETATM   20  S   UNL     1      -7.166   3.781 -31.233  1.00  0.00    -0.102 SA
BRANCH  20  21
HETATM   21  C   UNL     1      -6.003   2.390 -31.177  1.00  0.00     0.184 C 
BRANCH  21  22
HETATM   22  C   UNL     1      -6.567   1.118 -31.790  1.00  0.00     0.231 C 
HETATM   23  N   UNL     1      -5.850   0.662 -32.882  1.00  0.00    -0.327 N 
HETATM   24  H   UNL     1      -5.190   1.321 -33.283  1.00  0.00     0.169 HD
HETATM   25  O   UNL     1      -7.517   0.550 -31.257  1.00  0.00    -0.272 OA
BRANCH  23  26
HETATM   26  C   UNL     1      -5.964  -0.579 -33.535  1.00  0.00     0.034 A 
HETATM   27  C   UNL     1      -7.147  -1.048 -34.108  1.00  0.00     0.030 A 
HETATM   28  C   UNL     1      -7.191  -2.315 -34.699  1.00  0.00     0.009 A 
HETATM   29  C   UNL     1      -6.057  -3.133 -34.723  1.00  0.00    -0.062 A 
HETATM   30  C   UNL     1      -6.112  -4.480 -35.377  1.00  0.00     0.048 C 
HETATM   31  C   UNL     1      -4.867  -2.653 -34.168  1.00  0.00     0.009 A 
HETATM   32  C   UNL     1      -4.825  -1.389 -33.573  1.00  0.00     0.030 A 
ENDBRANCH  23  26
ENDBRANCH  21  22
ENDBRANCH  20  21
ENDBRANCH   6  20
BRANCH   2  33
HETATM   33  C   UNL     1      -3.342   7.502 -28.286  1.00  0.00     0.255 C 
HETATM   34  N   UNL     1      -2.113   6.874 -28.201  1.00  0.00    -0.323 N 
HETATM   35  H   UNL     1      -2.025   5.968 -28.642  1.00  0.00     0.169 HD
HETATM   36  O   UNL     1      -3.611   8.602 -27.825  1.00  0.00    -0.268 OA
BRANCH  34  37
HETATM   37  C   UNL     1      -0.921   7.432 -27.687  1.00  0.00     0.035 A 
HETATM   38  C   UNL     1      -0.692   7.670 -26.330  1.00  0.00     0.029 A 
HETATM   39  C   UNL     1       0.503   8.256 -25.900  1.00  0.00     0.002 A 
HETATM   40  C   UNL     1       1.478   8.616 -26.824  1.00  0.00     0.000 A 
HETATM   41  C   UNL     1       1.265   8.379 -28.179  1.00  0.00     0.002 A 
HETATM   42  C   UNL     1       0.076   7.780 -28.608  1.00  0.00     0.029 A 
ENDBRANCH  34  37
ENDBRANCH   2  33
TORSDOF 9
ENDMDL
MODEL 4
REMARK VINA RESULT:      -9.3      2.301      9.548
REMARK  9 active torsions:
REMARK  status: ('A' for Active; 'I' for Inactive)
REMARK    1  A    between atoms: C_2  and  O_3 
REMARK    2  A    between atoms: O_3  and  C_4 
REMARK    3  A    between atoms: C_5  and  C_6 
REMARK    4  A    between atoms: C_7  and  C_8 
REMARK       I    between atoms: C_8  and  N_9 
REMARK    5  A    between atoms: N_9  and  C_10 
REMARK    6  A    between atoms: C_20  and  S_21 
REMARK    7  A    between atoms: S_21  and  C_22 
REMARK    8  A    between atoms: C_22  and  C_23 
REMARK       I    between atoms: C_23  and  N_24 
REMARK    9  A    between atoms: N_24  and  C_25 
ROOT
HETATM    1  C   UNL     1      -4.728   6.582 -31.940  1.00  0.00     0.107 C 
HETATM    2  C   UNL     1      -5.351   6.391 -30.551  1.00  0.00     0.046 C 
HETATM    3  C   UNL     1      -6.330   5.475 -30.361  1.00  0.00     0.019 C 
HETATM    4  C   UNL     1      -6.856   5.045 -29.011  1.00  0.00     0.069 C 
HETATM    5  N   UNL     1      -6.867   4.791 -31.445  1.00  0.00    -0.353 N 
HETATM    6  C   UNL     1      -6.310   4.767 -32.714  1.00  0.00     0.087 C 
HETATM    7  C   UNL     1      -5.306   5.627 -33.019  1.00  0.00     0.055 C 
HETATM    8  C   UNL     1      -4.415   5.396 -34.228  1.00  0.00     0.019 C 
HETATM    9  N   UNL     1      -3.676   5.206 -35.232  1.00  0.00    -0.096 N 
HETATM   10  H   UNL     1      -7.365   3.936 -31.208  1.00  0.00     0.166 HD
ENDROOT
BRANCH   1  11
HETATM   11  C   UNL     1      -3.188   6.497 -31.936  1.00  0.00    -0.011 A 
HETATM   12  C   UNL     1      -2.501   5.339 -31.508  1.00  0.00     0.076 A 
HETATM   13  C   UNL     1      -1.106   5.291 -31.586  1.00  0.00     0.037 A 
HETATM   14  C   UNL     1      -0.389   6.375 -32.097  1.00  0.00     0.003 A 
HETATM   15  C   UNL     1      -1.056   7.518 -32.524  1.00  0.00     0.001 A 
HETATM   16  C   UNL     1      -2.446   7.583 -32.443  1.00  0.00     0.011 A 
BRANCH  12  17
HETATM   17  O   UNL     1      -3.280   4.313 -31.039  1.00  0.00    -0.351 OA
BRANCH  17  18
HETATM   18  C   UNL     1      -3.091   3.024 -31.618  1.00  0.00     0.171 C 
HETATM   19  C   UNL     1      -4.256   2.150 -31.189  1.00  0.00     0.034 C 
ENDBRANCH  17  18
ENDBRANCH  12  17
ENDBRANCH   1  11
BRANCH   6  20
HETATM   20  S   UNL     1      -6.741   3.477 -33.832  1.00  0.00    -0.102 SA
BRANCH  20  21
HETATM   21  C   UNL     1      -7.946   2.517 -32.873  1.00  0.00     0.184 C 
BRANCH  21  22
HETATM   22  C   UNL     1      -7.576   1.047 -32.754  1.00  0.00     0.231 C 
HETATM   23  N   UNL     1      -6.750   0.598 -33.769  1.00  0.00    -0.327 N 
HETATM   24  H   UNL     1      -6.671   1.209 -34.576  1.00  0.00     0.169 HD
HETATM   25  O   UNL     1      -7.935   0.403 -31.771  1.00  0.00    -0.272 OA
BRANCH  23  26
HETATM   26  C   UNL     1      -6.055  -0.623 -33.843  1.00  0.00     0.034 A 
HETATM   27  C   UNL     1      -4.769  -0.816 -33.338  1.00  0.00     0.030 A 
HETATM   28  C   UNL     1      -4.126  -2.048 -33.494  1.00  0.00     0.009 A 
HETATM   29  C   UNL     1      -4.757  -3.104 -34.159  1.00  0.00    -0.062 A 
HETATM   30  C   UNL     1      -4.065  -4.426 -34.303  1.00  0.00     0.048 C 
HETATM   31  C   UNL     1      -6.053  -2.917 -34.648  1.00  0.00     0.009 A 
HETATM   32  C   UNL     1      -6.693  -1.683 -34.496  1.00  0.00     0.030 A 
ENDBRANCH  23  26
ENDBRANCH  21  22
ENDBRANCH  20  21
ENDBRANCH   6  20
BRANCH   2  33
HETATM   33  C   UNL     1      -4.778   7.195 -29.419  1.00  0.00     0.255 C 
HETATM   34  N   UNL     1      -3.702   6.590 -28.797  1.00  0.00    -0.323 N 
HETATM   35  H   UNL     1      -3.398   5.697 -29.161  1.00  0.00     0.169 HD
HETATM   36  O   UNL     1      -5.257   8.279 -29.116  1.00  0.00    -0.268 OA
BRANCH  34  37
HETATM   37  C   UNL     1      -2.885   7.160 -27.793  1.00  0.00     0.035 A 
HETATM   38  C   UNL     1      -1.633   7.729 -28.035  1.00  0.00     0.029 A 
HETATM   39  C   UNL     1      -0.868   8.244 -26.985  1.00  0.00     0.002 A 
HETATM   40  C   UNL     1      -1.345   8.190 -25.679  1.00  0.00     0.000 A 
HETATM   41  C   UNL     1      -2.595   7.631 -25.425  1.00  0.00     0.002 A 
HETATM   42  C   UNL     1      -3.366   7.128 -26.478  1.00  0.00     0.029 A 
ENDBRANCH  34  37
ENDBRANCH   2  33
TORSDOF 9
ENDMDL
MODEL 5
REMARK VINA RESULT:      -9.2      1.173      2.214
REMARK  9 active torsions:
REMARK  status: ('A' for Active; 'I' for Inactive)
REMARK    1  A    between atoms: C_2  and  O_3 
REMARK    2  A    between atoms: O_3  and  C_4 
REMARK    3  A    between atoms: C_5  and  C_6 
REMARK    4  A    between atoms: C_7  and  C_8 
REMARK       I    between atoms: C_8  and  N_9 
REMARK    5  A    between atoms: N_9  and  C_10 
REMARK    6  A    between atoms: C_20  and  S_21 
REMARK    7  A    between atoms: S_21  and  C_22 
REMARK    8  A    between atoms: C_22  and  C_23 
REMARK       I    between atoms: C_23  and  N_24 
REMARK    9  A    between atoms: N_24  and  C_25 
ROOT
HETATM    1  C   UNL     1      -5.938   2.322 -33.441  1.00  0.00     0.107 C 
HETATM    2  C   UNL     1      -4.850   1.625 -32.613  1.00  0.00     0.046 C 
HETATM    3  C   UNL     1      -3.878   2.351 -32.012  1.00  0.00     0.019 C 
HETATM    4  C   UNL     1      -2.897   1.805 -31.000  1.00  0.00     0.069 C 
HETATM    5  N   UNL     1      -3.783   3.718 -32.244  1.00  0.00    -0.353 N 
HETATM    6  C   UNL     1      -4.767   4.484 -32.849  1.00  0.00     0.087 C 
HETATM    7  C   UNL     1      -5.805   3.868 -33.469  1.00  0.00     0.055 C 
HETATM    8  C   UNL     1      -7.080   4.624 -33.803  1.00  0.00     0.019 C 
HETATM    9  N   UNL     1      -8.137   5.252 -34.082  1.00  0.00    -0.096 N 
HETATM   10  H   UNL     1      -3.241   4.232 -31.553  1.00  0.00     0.166 HD
ENDROOT
BRANCH   1  11
HETATM   11  C   UNL     1      -7.370   1.926 -33.025  1.00  0.00    -0.011 A 
HETATM   12  C   UNL     1      -8.223   1.190 -33.879  1.00  0.00     0.076 A 
HETATM   13  C   UNL     1      -9.488   0.801 -33.428  1.00  0.00     0.037 A 
HETATM   14  C   UNL     1      -9.908   1.123 -32.135  1.00  0.00     0.003 A 
HETATM   15  C   UNL     1      -9.074   1.845 -31.288  1.00  0.00     0.001 A 
HETATM   16  C   UNL     1      -7.814   2.247 -31.728  1.00  0.00     0.011 A 
BRANCH  12  17
HETATM   17  O   UNL     1      -7.726   0.896 -35.122  1.00  0.00    -0.351 OA
BRANCH  17  18
HETATM   18  C   UNL     1      -7.131  -0.385 -35.309  1.00  0.00     0.171 C 
HETATM   19  C   UNL     1      -7.682  -1.310 -34.238  1.00  0.00     0.034 C 
ENDBRANCH  17  18
ENDBRANCH  12  17
ENDBRANCH   1  11
BRANCH   6  20
HETATM   20  S   UNL     1      -4.789   6.227 -32.607  1.00  0.00    -0.102 SA
BRANCH  20  21
HETATM   21  C   UNL     1      -3.128   6.717 -33.150  1.00  0.00     0.184 C 
BRANCH  21  22
HETATM   22  C   UNL     1      -2.364   7.500 -32.095  1.00  0.00     0.231 C 
HETATM   23  N   UNL     1      -2.075   6.765 -30.958  1.00  0.00    -0.327 N 
HETATM   24  H   UNL     1      -2.583   5.891 -30.857  1.00  0.00     0.169 HD
HETATM   25  O   UNL     1      -1.988   8.645 -32.334  1.00  0.00    -0.272 OA
BRANCH  23  26
HETATM   26  C   UNL     1      -1.209   7.107 -29.903  1.00  0.00     0.034 A 
HETATM   27  C   UNL     1      -1.226   8.342 -29.256  1.00  0.00     0.030 A 
HETATM   28  C   UNL     1      -0.299   8.623 -28.246  1.00  0.00     0.009 A 
HETATM   29  C   UNL     1       0.659   7.676 -27.872  1.00  0.00    -0.062 A 
HETATM   30  C   UNL     1       1.634   7.982 -26.775  1.00  0.00     0.048 C 
HETATM   31  C   UNL     1       0.662   6.430 -28.507  1.00  0.00     0.009 A 
HETATM   32  C   UNL     1      -0.262   6.152 -29.519  1.00  0.00     0.030 A 
ENDBRANCH  23  26
ENDBRANCH  21  22
ENDBRANCH  20  21
ENDBRANCH   6  20
BRANCH   2  33
HETATM   33  C   UNL     1      -4.961   0.137 -32.438  1.00  0.00     0.255 C 
HETATM   34  N   UNL     1      -4.202  -0.587 -33.339  1.00  0.00    -0.323 N 
HETATM   35  H   UNL     1      -3.646  -0.063 -34.001  1.00  0.00     0.169 HD
HETATM   36  O   UNL     1      -5.672  -0.339 -31.564  1.00  0.00    -0.268 OA
BRANCH  34  37
HETATM   37  C   UNL     1      -4.008  -1.987 -33.336  1.00  0.00     0.035 A 
HETATM   38  C   UNL     1      -4.451  -2.839 -34.350  1.00  0.00     0.029 A 
HETATM   39  C   UNL     1      -4.249  -4.219 -34.261  1.00  0.00     0.002 A 
HETATM   40  C   UNL     1      -3.607  -4.763 -33.153  1.00  0.00     0.000 A 
HETATM   41  C   UNL     1      -3.155  -3.925 -32.139  1.00  0.00     0.002 A 
HETATM   42  C   UNL     1      -3.344  -2.542 -32.234  1.00  0.00     0.029 A 
ENDBRANCH  34  37
ENDBRANCH   2  33
TORSDOF 9
ENDMDL
MODEL 6
REMARK VINA RESULT:      -9.1      2.527      4.720
REMARK  9 active torsions:
REMARK  status: ('A' for Active; 'I' for Inactive)
REMARK    1  A    between atoms: C_2  and  O_3 
REMARK    2  A    between atoms: O_3  and  C_4 
REMARK    3  A    between atoms: C_5  and  C_6 
REMARK    4  A    between atoms: C_7  and  C_8 
REMARK       I    between atoms: C_8  and  N_9 
REMARK    5  A    between atoms: N_9  and  C_10 
REMARK    6  A    between atoms: C_20  and  S_21 
REMARK    7  A    between atoms: S_21  and  C_22 
REMARK    8  A    between atoms: C_22  and  C_23 
REMARK       I    between atoms: C_23  and  N_24 
REMARK    9  A    between atoms: N_24  and  C_25 
ROOT
HETATM    1  C   UNL     1      -3.850   3.984 -31.131  1.00  0.00     0.107 C 
HETATM    2  C   UNL     1      -4.705   2.717 -30.994  1.00  0.00     0.046 C 
HETATM    3  C   UNL     1      -5.767   2.696 -30.154  1.00  0.00     0.019 C 
HETATM    4  C   UNL     1      -6.802   1.596 -30.103  1.00  0.00     0.069 C 
HETATM    5  N   UNL     1      -6.016   3.775 -29.316  1.00  0.00    -0.353 N 
HETATM    6  C   UNL     1      -5.415   5.019 -29.434  1.00  0.00     0.087 C 
HETATM    7  C   UNL     1      -4.351   5.170 -30.262  1.00  0.00     0.055 C 
HETATM    8  C   UNL     1      -3.903   6.547 -30.723  1.00  0.00     0.019 C 
HETATM    9  N   UNL     1      -3.531   7.690 -31.104  1.00  0.00    -0.096 N 
HETATM   10  H   UNL     1      -6.962   3.821 -28.945  1.00  0.00     0.166 HD
ENDROOT
BRANCH   1  11
HETATM   11  C   UNL     1      -3.669   4.444 -32.591  1.00  0.00    -0.011 A 
HETATM   12  C   UNL     1      -2.391   4.645 -33.162  1.00  0.00     0.076 A 
HETATM   13  C   UNL     1      -2.281   4.998 -34.510  1.00  0.00     0.037 A 
HETATM   14  C   UNL     1      -3.425   5.141 -35.299  1.00  0.00     0.003 A 
HETATM   15  C   UNL     1      -4.686   4.943 -34.747  1.00  0.00     0.001 A 
HETATM   16  C   UNL     1      -4.810   4.599 -33.402  1.00  0.00     0.011 A 
BRANCH  12  17
HETATM   17  O   UNL     1      -1.320   4.464 -32.325  1.00  0.00    -0.351 OA
BRANCH  17  18
HETATM   18  C   UNL     1      -0.566   5.617 -31.960  1.00  0.00     0.171 C 
HETATM   19  C   UNL     1      -0.309   5.546 -30.466  1.00  0.00     0.034 C 
ENDBRANCH  17  18
ENDBRANCH  12  17
ENDBRANCH   1  11
BRANCH   6  20
HETATM   20  S   UNL     1      -6.174   6.429 -28.703  1.00  0.00    -0.102 SA
BRANCH  20  21
HETATM   21  C   UNL     1      -5.633   6.310 -26.975  1.00  0.00     0.184 C 
BRANCH  21  22
HETATM   22  C   UNL     1      -4.367   7.103 -26.692  1.00  0.00     0.231 C 
HETATM   23  N   UNL     1      -3.211   6.475 -27.122  1.00  0.00    -0.327 N 
HETATM   24  H   UNL     1      -3.305   5.492 -27.360  1.00  0.00     0.169 HD
HETATM   25  O   UNL     1      -4.444   8.230 -26.210  1.00  0.00    -0.272 OA
BRANCH  23  26
HETATM   26  C   UNL     1      -1.916   7.015 -27.214  1.00  0.00     0.034 A 
HETATM   27  C   UNL     1      -0.825   6.546 -26.481  1.00  0.00     0.030 A 
HETATM   28  C   UNL     1       0.422   7.169 -26.594  1.00  0.00     0.009 A 
HETATM   29  C   UNL     1       0.597   8.271 -27.437  1.00  0.00    -0.062 A 
HETATM   30  C   UNL     1       1.943   8.918 -27.564  1.00  0.00     0.048 C 
HETATM   31  C   UNL     1      -0.491   8.727 -28.187  1.00  0.00     0.009 A 
HETATM   32  C   UNL     1      -1.739   8.107 -28.070  1.00  0.00     0.030 A 
ENDBRANCH  23  26
ENDBRANCH  21  22
ENDBRANCH  20  21
ENDBRANCH   6  20
BRANCH   2  33
HETATM   33  C   UNL     1      -4.362   1.552 -31.878  1.00  0.00     0.255 C 
HETATM   34  N   UNL     1      -5.447   0.759 -32.200  1.00  0.00    -0.323 N 
HETATM   35  H   UNL     1      -6.348   1.039 -31.835  1.00  0.00     0.169 HD
HETATM   36  O   UNL     1      -3.211   1.366 -32.250  1.00  0.00    -0.268 OA
BRANCH  34  37
HETATM   37  C   UNL     1      -5.455  -0.322 -33.109  1.00  0.00     0.035 A 
HETATM   38  C   UNL     1      -6.373  -0.458 -34.154  1.00  0.00     0.029 A 
HETATM   39  C   UNL     1      -6.337  -1.574 -34.994  1.00  0.00     0.002 A 
HETATM   40  C   UNL     1      -5.388  -2.571 -34.795  1.00  0.00     0.000 A 
HETATM   41  C   UNL     1      -4.464  -2.446 -33.762  1.00  0.00     0.002 A 
HETATM   42  C   UNL     1      -4.490  -1.322 -32.929  1.00  0.00     0.029 A 
ENDBRANCH  34  37
ENDBRANCH   2  33
TORSDOF 9
ENDMDL
MODEL 7
REMARK VINA RESULT:      -9.0      3.640      8.516
REMARK  9 active torsions:
REMARK  status: ('A' for Active; 'I' for Inactive)
REMARK    1  A    between atoms: C_2  and  O_3 
REMARK    2  A    between atoms: O_3  and  C_4 
REMARK    3  A    between atoms: C_5  and  C_6 
REMARK    4  A    between atoms: C_7  and  C_8 
REMARK       I    between atoms: C_8  and  N_9 
REMARK    5  A    between atoms: N_9  and  C_10 
REMARK    6  A    between atoms: C_20  and  S_21 
REMARK    7  A    between atoms: S_21  and  C_22 
REMARK    8  A    between atoms: C_22  and  C_23 
REMARK       I    between atoms: C_23  and  N_24 
REMARK    9  A    between atoms: N_24  and  C_25 
ROOT
HETATM    1  C   UNL     1      -6.995   2.544 -31.736  1.00  0.00     0.107 C 
HETATM    2  C   UNL     1      -7.829   1.629 -32.643  1.00  0.00     0.046 C 
HETATM    3  C   UNL     1      -9.180   1.719 -32.649  1.00  0.00     0.019 C 
HETATM    4  C   UNL     1     -10.083   1.037 -33.651  1.00  0.00     0.069 C 
HETATM    5  N   UNL     1      -9.829   2.548 -31.743  1.00  0.00    -0.353 N 
HETATM    6  C   UNL     1      -9.202   3.518 -30.975  1.00  0.00     0.087 C 
HETATM    7  C   UNL     1      -7.847   3.542 -30.906  1.00  0.00     0.055 C 
HETATM    8  C   UNL     1      -7.108   4.775 -30.414  1.00  0.00     0.019 C 
HETATM    9  N   UNL     1      -6.495   5.798 -30.004  1.00  0.00    -0.096 N 
HETATM   10  H   UNL     1     -10.785   2.790 -31.992  1.00  0.00     0.166 HD
ENDROOT
BRANCH   1  11
HETATM   11  C   UNL     1      -5.884   3.303 -32.489  1.00  0.00    -0.011 A 
HETATM   12  C   UNL     1      -4.517   3.152 -32.162  1.00  0.00     0.076 A 
HETATM   13  C   UNL     1      -3.546   3.813 -32.919  1.00  0.00     0.037 A 
HETATM   14  C   UNL     1      -3.916   4.611 -34.003  1.00  0.00     0.003 A 
HETATM   15  C   UNL     1      -5.258   4.764 -34.335  1.00  0.00     0.001 A 
HETATM   16  C   UNL     1      -6.238   4.117 -33.583  1.00  0.00     0.011 A 
BRANCH  12  17
HETATM   17  O   UNL     1      -4.238   2.335 -31.096  1.00  0.00    -0.351 OA
BRANCH  17  18
HETATM   18  C   UNL     1      -3.394   1.211 -31.331  1.00  0.00     0.171 C 
HETATM   19  C   UNL     1      -4.109  -0.021 -30.805  1.00  0.00     0.034 C 
ENDBRANCH  17  18
ENDBRANCH  12  17
ENDBRANCH   1  11
BRANCH   6  20
HETATM   20  S   UNL     1     -10.147   4.839 -30.296  1.00  0.00    -0.102 SA
BRANCH  20  21
HETATM   21  C   UNL     1     -10.643   5.764 -31.776  1.00  0.00     0.184 C 
BRANCH  21  22
HETATM   22  C   UNL     1     -11.920   5.234 -32.409  1.00  0.00     0.231 C 
HETATM   23  N   UNL     1     -12.801   4.678 -31.499  1.00  0.00    -0.327 N 
HETATM   24  H   UNL     1     -12.419   4.481 -30.578  1.00  0.00     0.169 HD
HETATM   25  O   UNL     1     -12.125   5.402 -33.608  1.00  0.00    -0.272 OA
BRANCH  23  26
HETATM   26  C   UNL     1     -14.140   4.302 -31.710  1.00  0.00     0.034 A 
HETATM   27  C   UNL     1     -15.214   5.191 -31.655  1.00  0.00     0.030 A 
HETATM   28  C   UNL     1     -16.522   4.728 -31.830  1.00  0.00     0.009 A 
HETATM   29  C   UNL     1     -16.778   3.373 -32.057  1.00  0.00    -0.062 A 
HETATM   30  C   UNL     1     -18.183   2.893 -32.262  1.00  0.00     0.048 C 
HETATM   31  C   UNL     1     -15.699   2.486 -32.132  1.00  0.00     0.009 A 
HETATM   32  C   UNL     1     -14.392   2.947 -31.953  1.00  0.00     0.030 A 
ENDBRANCH  23  26
ENDBRANCH  21  22
ENDBRANCH  20  21
ENDBRANCH   6  20
BRANCH   2  33
HETATM   33  C   UNL     1      -7.085   0.705 -33.565  1.00  0.00     0.255 C 
HETATM   34  N   UNL     1      -6.883  -0.558 -33.042  1.00  0.00    -0.323 N 
HETATM   35  H   UNL     1      -7.259  -0.744 -32.121  1.00  0.00     0.169 HD
HETATM   36  O   UNL     1      -6.712   1.086 -34.665  1.00  0.00    -0.268 OA
BRANCH  34  37
HETATM   37  C   UNL     1      -6.332  -1.669 -33.721  1.00  0.00     0.035 A 
HETATM   38  C   UNL     1      -7.093  -2.663 -34.338  1.00  0.00     0.029 A 
HETATM   39  C   UNL     1      -6.475  -3.750 -34.964  1.00  0.00     0.002 A 
HETATM   40  C   UNL     1      -5.088  -3.857 -34.972  1.00  0.00     0.000 A 
HETATM   41  C   UNL     1      -4.317  -2.870 -34.366  1.00  0.00     0.002 A 
HETATM   42  C   UNL     1      -4.935  -1.775 -33.752  1.00  0.00     0.029 A 
ENDBRANCH  34  37
ENDBRANCH   2  33
TORSDOF 9
ENDMDL
MODEL 8
REMARK VINA RESULT:      -8.7      3.280      7.049
REMARK  9 active torsions:
REMARK  status: ('A' for Active; 'I' for Inactive)
REMARK    1  A    between atoms: C_2  and  O_3 
REMARK    2  A    between atoms: O_3  and  C_4 
REMARK    3  A    between atoms: C_5  and  C_6 
REMARK    4  A    between atoms: C_7  and  C_8 
REMARK       I    between atoms: C_8  and  N_9 
REMARK    5  A    between atoms: N_9  and  C_10 
REMARK    6  A    between atoms: C_20  and  S_21 
REMARK    7  A    between atoms: S_21  and  C_22 
REMARK    8  A    between atoms: C_22  and  C_23 
REMARK       I    between atoms: C_23  and  N_24 
REMARK    9  A    between atoms: N_24  and  C_25 
ROOT
HETATM    1  C   UNL     1      -5.742   2.987 -31.177  1.00  0.00     0.107 C 
HETATM    2  C   UNL     1      -6.904   2.145 -31.721  1.00  0.00     0.046 C 
HETATM    3  C   UNL     1      -8.152   2.296 -31.219  1.00  0.00     0.019 C 
HETATM    4  C   UNL     1      -9.401   1.693 -31.821  1.00  0.00     0.069 C 
HETATM    5  N   UNL     1      -8.368   3.120 -30.122  1.00  0.00    -0.353 N 
HETATM    6  C   UNL     1      -7.447   4.031 -29.628  1.00  0.00     0.087 C 
HETATM    7  C   UNL     1      -6.165   3.991 -30.071  1.00  0.00     0.055 C 
HETATM    8  C   UNL     1      -5.228   5.170 -29.871  1.00  0.00     0.019 C 
HETATM    9  N   UNL     1      -4.450   6.148 -29.703  1.00  0.00    -0.096 N 
HETATM   10  H   UNL     1      -9.334   3.414 -29.990  1.00  0.00     0.166 HD
ENDROOT
BRANCH   1  11
HETATM   11  C   UNL     1      -4.951   3.722 -32.278  1.00  0.00    -0.011 A 
HETATM   12  C   UNL     1      -3.595   3.430 -32.550  1.00  0.00     0.076 A 
HETATM   13  C   UNL     1      -2.944   4.079 -33.603  1.00  0.00     0.037 A 
HETATM   14  C   UNL     1      -3.628   5.004 -34.395  1.00  0.00     0.003 A 
HETATM   15  C   UNL     1      -4.963   5.296 -34.136  1.00  0.00     0.001 A 
HETATM   16  C   UNL     1      -5.622   4.662 -33.084  1.00  0.00     0.011 A 
BRANCH  12  17
HETATM   17  O   UNL     1      -3.004   2.495 -31.740  1.00  0.00    -0.351 OA
BRANCH  17  18
HETATM   18  C   UNL     1      -3.006   1.141 -32.185  1.00  0.00     0.171 C 
HETATM   19  C   UNL     1      -3.096   0.253 -30.957  1.00  0.00     0.034 C 
ENDBRANCH  17  18
ENDBRANCH  12  17
ENDBRANCH   1  11
BRANCH   6  20
HETATM   20  S   UNL     1      -7.994   5.368 -28.622  1.00  0.00    -0.102 SA
BRANCH  20  21
HETATM   21  C   UNL     1      -8.445   6.623 -29.853  1.00  0.00     0.184 C 
BRANCH  21  22
HETATM   22  C   UNL     1      -9.622   6.208 -30.721  1.00  0.00     0.231 C 
HETATM   23  N   UNL     1      -9.282   5.971 -32.042  1.00  0.00    -0.327 N 
HETATM   24  H   UNL     1      -8.368   6.309 -32.330  1.00  0.00     0.169 HD
HETATM   25  O   UNL     1     -10.725   6.028 -30.212  1.00  0.00    -0.272 OA
BRANCH  23  26
HETATM   26  C   UNL     1     -10.067   5.372 -33.043  1.00  0.00     0.034 A 
HETATM   27  C   UNL     1     -11.441   5.578 -33.180  1.00  0.00     0.030 A 
HETATM   28  C   UNL     1     -12.160   4.907 -34.174  1.00  0.00     0.009 A 
HETATM   29  C   UNL     1     -11.520   4.019 -35.044  1.00  0.00    -0.062 A 
HETATM   30  C   UNL     1     -12.299   3.321 -36.118  1.00  0.00     0.048 C 
HETATM   31  C   UNL     1     -10.140   3.829 -34.920  1.00  0.00     0.009 A 
HETATM   32  C   UNL     1      -9.423   4.496 -33.923  1.00  0.00     0.030 A 
ENDBRANCH  23  26
ENDBRANCH  21  22
ENDBRANCH  20  21
ENDBRANCH   6  20
BRANCH   2  33
HETATM   33  C   UNL     1      -6.610   1.222 -32.871  1.00  0.00     0.255 C 
HETATM   34  N   UNL     1      -6.290  -0.065 -32.482  1.00  0.00    -0.323 N 
HETATM   35  H   UNL     1      -6.300  -0.266 -31.491  1.00  0.00     0.169 HD
HETATM   36  O   UNL     1      -6.662   1.625 -34.024  1.00  0.00    -0.268 OA
BRANCH  34  37
HETATM   37  C   UNL     1      -6.093  -1.173 -33.337  1.00  0.00     0.035 A 
HETATM   38  C   UNL     1      -7.128  -1.869 -33.966  1.00  0.00     0.029 A 
HETATM   39  C   UNL     1      -6.856  -2.977 -34.773  1.00  0.00     0.002 A 
HETATM   40  C   UNL     1      -5.545  -3.407 -34.954  1.00  0.00     0.000 A 
HETATM   41  C   UNL     1      -4.503  -2.720 -34.337  1.00  0.00     0.002 A 
HETATM   42  C   UNL     1      -4.774  -1.602 -33.541  1.00  0.00     0.029 A 
ENDBRANCH  34  37
ENDBRANCH   2  33
TORSDOF 9
ENDMDL
MODEL 9
REMARK VINA RESULT:      -8.6      3.745      7.581
REMARK  9 active torsions:
REMARK  status: ('A' for Active; 'I' for Inactive)
REMARK    1  A    between atoms: C_2  and  O_3 
REMARK    2  A    between atoms: O_3  and  C_4 
REMARK    3  A    between atoms: C_5  and  C_6 
REMARK    4  A    between atoms: C_7  and  C_8 
REMARK       I    between atoms: C_8  and  N_9 
REMARK    5  A    between atoms: N_9  and  C_10 
REMARK    6  A    between atoms: C_20  and  S_21 
REMARK    7  A    between atoms: S_21  and  C_22 
REMARK    8  A    between atoms: C_22  and  C_23 
REMARK       I    between atoms: C_23  and  N_24 
REMARK    9  A    between atoms: N_24  and  C_25 
ROOT
HETATM    1  C   UNL     1      -7.767   2.631 -31.856  1.00  0.00     0.107 C 
HETATM    2  C   UNL     1      -8.443   1.733 -32.901  1.00  0.00     0.046 C 
HETATM    3  C   UNL     1      -9.776   1.821 -33.118  1.00  0.00     0.019 C 
HETATM    4  C   UNL     1     -10.507   1.158 -34.263  1.00  0.00     0.069 C 
HETATM    5  N   UNL     1     -10.564   2.632 -32.310  1.00  0.00    -0.353 N 
HETATM    6  C   UNL     1     -10.070   3.586 -31.434  1.00  0.00     0.087 C 
HETATM    7  C   UNL     1      -8.744   3.611 -31.152  1.00  0.00     0.055 C 
HETATM    8  C   UNL     1      -8.097   4.835 -30.525  1.00  0.00     0.019 C 
HETATM    9  N   UNL     1      -7.560   5.850 -30.004  1.00  0.00    -0.096 N 
HETATM   10  H   UNL     1     -11.470   2.877 -32.703  1.00  0.00     0.166 HD
ENDROOT
BRANCH   1  11
HETATM   11  C   UNL     1      -6.554   3.406 -32.409  1.00  0.00    -0.011 A 
HETATM   12  C   UNL     1      -5.275   3.323 -31.814  1.00  0.00     0.076 A 
HETATM   13  C   UNL     1      -4.195   3.995 -32.394  1.00  0.00     0.037 A 
HETATM   14  C   UNL     1      -4.369   4.736 -33.565  1.00  0.00     0.003 A 
HETATM   15  C   UNL     1      -5.623   4.821 -34.159  1.00  0.00     0.001 A 
HETATM   16  C   UNL     1      -6.711   4.164 -33.587  1.00  0.00     0.011 A 
BRANCH  12  17
HETATM   17  O   UNL     1      -5.185   2.559 -30.679  1.00  0.00    -0.351 OA
BRANCH  17  18
HETATM   18  C   UNL     1      -4.765   1.205 -30.828  1.00  0.00     0.171 C 
HETATM   19  C   UNL     1      -5.613   0.354 -29.901  1.00  0.00     0.034 C 
ENDBRANCH  17  18
ENDBRANCH  12  17
ENDBRANCH   1  11
BRANCH   6  20
HETATM   20  S   UNL     1     -11.116   4.893 -30.887  1.00  0.00    -0.102 SA
BRANCH  20  21
HETATM   21  C   UNL     1     -12.156   5.195 -32.344  1.00  0.00     0.184 C 
BRANCH  21  22
HETATM   22  C   UNL     1     -11.612   6.290 -33.246  1.00  0.00     0.231 C 
HETATM   23  N   UNL     1     -11.848   6.070 -34.592  1.00  0.00    -0.327 N 
HETATM   24  H   UNL     1     -12.140   5.129 -34.840  1.00  0.00     0.169 HD
HETATM   25  O   UNL     1     -11.104   7.294 -32.753  1.00  0.00    -0.272 OA
BRANCH  23  26
HETATM   26  C   UNL     1     -11.677   6.970 -35.659  1.00  0.00     0.034 A 
HETATM   27  C   UNL     1     -10.433   7.414 -36.109  1.00  0.00     0.030 A 
HETATM   28  C   UNL     1     -10.349   8.348 -37.147  1.00  0.00     0.009 A 
HETATM   29  C   UNL     1     -11.506   8.854 -37.748  1.00  0.00    -0.062 A 
HETATM   30  C   UNL     1     -11.402   9.840 -38.872  1.00  0.00     0.048 C 
HETATM   31  C   UNL     1     -12.751   8.393 -37.311  1.00  0.00     0.009 A 
HETATM   32  C   UNL     1     -12.834   7.463 -36.270  1.00  0.00     0.030 A 
ENDBRANCH  23  26
ENDBRANCH  21  22
ENDBRANCH  20  21
ENDBRANCH   6  20
BRANCH   2  33
HETATM   33  C   UNL     1      -7.558   0.828 -33.712  1.00  0.00     0.255 C 
HETATM   34  N   UNL     1      -7.169  -0.315 -33.040  1.00  0.00    -0.323 N 
HETATM   35  H   UNL     1      -7.519  -0.442 -32.100  1.00  0.00     0.169 HD
HETATM   36  O   UNL     1      -7.240   1.125 -34.855  1.00  0.00    -0.268 OA
BRANCH  34  37
HETATM   37  C   UNL     1      -6.448  -1.402 -33.585  1.00  0.00     0.035 A 
HETATM   38  C   UNL     1      -5.063  -1.551 -33.483  1.00  0.00     0.029 A 
HETATM   39  C   UNL     1      -4.417  -2.639 -34.077  1.00  0.00     0.002 A 
HETATM   40  C   UNL     1      -5.148  -3.587 -34.786  1.00  0.00     0.000 A 
HETATM   41  C   UNL     1      -6.530  -3.454 -34.890  1.00  0.00     0.002 A 
HETATM   42  C   UNL     1      -7.179  -2.373 -34.284  1.00  0.00     0.029 A 
ENDBRANCH  34  37
ENDBRANCH   2  33
TORSDOF 9
ENDMDL
MODEL 10
REMARK VINA RESULT:      -8.6      4.151      8.653
REMARK  9 active torsions:
REMARK  status: ('A' for Active; 'I' for Inactive)
REMARK    1  A    between atoms: C_2  and  O_3 
REMARK    2  A    between atoms: O_3  and  C_4 
REMARK    3  A    between atoms: C_5  and  C_6 
REMARK    4  A    between atoms: C_7  and  C_8 
REMARK       I    between atoms: C_8  and  N_9 
REMARK    5  A    between atoms: N_9  and  C_10 
REMARK    6  A    between atoms: C_20  and  S_21 
REMARK    7  A    between atoms: S_21  and  C_22 
REMARK    8  A    between atoms: C_22  and  C_23 
REMARK       I    between atoms: C_23  and  N_24 
REMARK    9  A    between atoms: N_24  and  C_25 
ROOT
HETATM    1  C   UNL     1      -9.050   4.721 -33.827  1.00  0.00     0.107 C 
HETATM    2  C   UNL     1      -9.664   3.334 -34.061  1.00  0.00     0.046 C 
HETATM    3  C   UNL     1      -8.873   2.236 -34.115  1.00  0.00     0.019 C 
HETATM    4  C   UNL     1      -9.377   0.811 -34.114  1.00  0.00     0.069 C 
HETATM    5  N   UNL     1      -7.490   2.369 -34.086  1.00  0.00    -0.353 N 
HETATM    6  C   UNL     1      -6.819   3.533 -33.743  1.00  0.00     0.087 C 
HETATM    7  C   UNL     1      -7.509   4.696 -33.639  1.00  0.00     0.055 C 
HETATM    8  C   UNL     1      -6.924   5.894 -32.910  1.00  0.00     0.019 C 
HETATM    9  N   UNL     1      -6.438   6.888 -32.306  1.00  0.00    -0.096 N 
HETATM   10  H   UNL     1      -6.983   1.524 -33.833  1.00  0.00     0.166 HD
ENDROOT
BRANCH   1  11
HETATM   11  C   UNL     1      -9.708   5.492 -32.666  1.00  0.00    -0.011 A 
HETATM   12  C   UNL     1     -10.482   6.655 -32.880  1.00  0.00     0.076 A 
HETATM   13  C   UNL     1     -11.111   7.279 -31.799  1.00  0.00     0.037 A 
HETATM   14  C   UNL     1     -10.989   6.753 -30.510  1.00  0.00     0.003 A 
HETATM   15  C   UNL     1     -10.231   5.608 -30.290  1.00  0.00     0.001 A 
HETATM   16  C   UNL     1      -9.592   4.981 -31.358  1.00  0.00     0.011 A 
BRANCH  12  17
HETATM   17  O   UNL     1     -10.568   7.093 -34.177  1.00  0.00    -0.351 OA
BRANCH  17  18
HETATM   18  C   UNL     1     -11.841   7.024 -34.813  1.00  0.00     0.171 C 
HETATM   19  C   UNL     1     -11.733   7.751 -36.142  1.00  0.00     0.034 C 
ENDBRANCH  17  18
ENDBRANCH  12  17
ENDBRANCH   1  11
BRANCH   6  20
HETATM   20  S   UNL     1      -5.140   3.450 -33.217  1.00  0.00    -0.102 SA
BRANCH  20  21
HETATM   21  C   UNL     1      -5.223   2.277 -31.835  1.00  0.00     0.184 C 
BRANCH  21  22
HETATM   22  C   UNL     1      -5.826   0.938 -32.226  1.00  0.00     0.231 C 
HETATM   23  N   UNL     1      -5.155   0.307 -33.259  1.00  0.00    -0.327 N 
HETATM   24  H   UNL     1      -4.502   0.886 -33.779  1.00  0.00     0.169 HD
HETATM   25  O   UNL     1      -6.762   0.475 -31.580  1.00  0.00    -0.272 OA
BRANCH  23  26
HETATM   26  C   UNL     1      -5.310  -1.016 -33.711  1.00  0.00     0.034 A 
HETATM   27  C   UNL     1      -4.298  -1.975 -33.665  1.00  0.00     0.030 A 
HETATM   28  C   UNL     1      -4.516  -3.257 -34.179  1.00  0.00     0.009 A 
HETATM   29  C   UNL     1      -5.746  -3.599 -34.749  1.00  0.00    -0.062 A 
HETATM   30  C   UNL     1      -5.973  -4.983 -35.279  1.00  0.00     0.048 C 
HETATM   31  C   UNL     1      -6.766  -2.644 -34.777  1.00  0.00     0.009 A 
HETATM   32  C   UNL     1      -6.546  -1.361 -34.268  1.00  0.00     0.030 A 
ENDBRANCH  23  26
ENDBRANCH  21  22
ENDBRANCH  20  21
ENDBRANCH   6  20
BRANCH   2  33
HETATM   33  C   UNL     1     -11.161   3.245 -34.145  1.00  0.00     0.255 C 
HETATM   34  N   UNL     1     -11.761   2.848 -32.965  1.00  0.00    -0.323 N 
HETATM   35  H   UNL     1     -11.157   2.677 -32.173  1.00  0.00     0.169 HD
HETATM   36  O   UNL     1     -11.746   3.509 -35.187  1.00  0.00    -0.268 OA
BRANCH  34  37
HETATM   37  C   UNL     1     -13.150   2.800 -32.706  1.00  0.00     0.035 A 
HETATM   38  C   UNL     1     -13.840   3.758 -31.961  1.00  0.00     0.029 A 
HETATM   39  C   UNL     1     -15.211   3.624 -31.721  1.00  0.00     0.002 A 
HETATM   40  C   UNL     1     -15.905   2.526 -32.217  1.00  0.00     0.000 A 
HETATM   41  C   UNL     1     -15.231   1.566 -32.966  1.00  0.00     0.002 A 
HETATM   42  C   UNL     1     -13.862   1.707 -33.219  1.00  0.00     0.029 A 
ENDBRANCH  34  37
ENDBRANCH   2  33
TORSDOF 9
ENDMDL
