MODEL 1
REMARK VINA RESULT:      -9.0      0.000      0.000
REMARK  5 active torsions:
REMARK  status: ('A' for Active; 'I' for Inactive)
REMARK    1  A    between atoms: C_2  and  C_3 
REMARK    2  A    between atoms: C_8  and  C_9 
REMARK       I    between atoms: C_9  and  N_10 
REMARK    3  A    between atoms: N_10  and  C_11 
REMARK    4  A    between atoms: C_11  and  C_12 
REMARK    5  A    between atoms: C_19  and  C_20 
ROOT
HETATM    1  C   UNL     1      -6.478   0.977 -31.799  1.00  0.00     0.118 C 
HETATM    2  N   UNL     1      -5.229   1.301 -31.120  1.00  0.00    -0.366 N 
HETATM    3  C   UNL     1      -4.428   2.305 -31.541  1.00  0.00     0.123 A 
HETATM    4  N   UNL     1      -4.802   3.146 -32.555  1.00  0.00    -0.240 N 
HETATM    5  N   UNL     1      -3.854   4.035 -32.893  1.00  0.00    -0.165 NA
HETATM    6  C   UNL     1      -2.867   3.814 -31.994  1.00  0.00     0.148 A 
HETATM    7  C   UNL     1      -3.184   2.721 -31.144  1.00  0.00     0.088 A 
HETATM    8  C   UNL     1      -6.037   3.000 -33.305  1.00  0.00     0.221 C 
HETATM    9  C   UNL     1      -7.072   2.226 -32.466  1.00  0.00     0.066 C 
HETATM   10  H   UNL     1      -4.885   0.598 -30.466  1.00  0.00     0.161 HD
ENDROOT
BRANCH   6  11
HETATM   11  C   UNL     1      -1.650   4.641 -31.951  1.00  0.00     0.272 C 
HETATM   12  N   UNL     1      -1.130   4.779 -30.684  1.00  0.00    -0.353 N 
HETATM   13  H   UNL     1      -1.711   4.429 -29.926  1.00  0.00     0.162 HD
HETATM   14  O   UNL     1      -1.145   5.143 -32.950  1.00  0.00    -0.266 OA
BRANCH  12  15
HETATM   15  C   UNL     1       0.046   5.566 -30.387  1.00  0.00     0.155 C 
BRANCH  15  16
HETATM   16  C   UNL     1      -0.156   6.503 -29.195  1.00  0.00     0.139 C 
HETATM   17  O   UNL     1       0.229   5.853 -27.966  1.00  0.00    -0.384 OA
HETATM   18  C   UNL     1       0.818   6.834 -27.100  1.00  0.00     0.168 C 
HETATM   19  C   UNL     1       0.790   8.162 -27.830  1.00  0.00     0.029 C 
HETATM   20  C   UNL     1       0.714   7.745 -29.276  1.00  0.00     0.035 C 
ENDBRANCH  15  16
ENDBRANCH  12  15
ENDBRANCH   6  11
BRANCH   8  21
HETATM   21  C   UNL     1      -6.617   4.337 -33.716  1.00  0.00     0.409 C 
HETATM   22  F   UNL     1      -7.848   4.247 -34.260  1.00  0.00    -0.169 F 
HETATM   23  F   UNL     1      -6.749   5.131 -32.617  1.00  0.00    -0.169 F 
HETATM   24  F   UNL     1      -5.818   5.007 -34.576  1.00  0.00    -0.169 F 
ENDBRANCH   8  21
BRANCH   1  25
HETATM   25  C   UNL     1      -6.334  -0.200 -32.753  1.00  0.00    -0.034 A 
HETATM   26  C   UNL     1      -7.255  -0.476 -33.776  1.00  0.00     0.011 A 
HETATM   27  C   UNL     1      -7.073  -1.570 -34.629  1.00  0.00     0.026 A 
HETATM   28  C   UNL     1      -5.970  -2.412 -34.474  1.00  0.00     0.055 A 
HETATM   29  C   UNL     1      -5.048  -2.160 -33.456  1.00  0.00     0.056 A 
HETATM   30 CL   UNL     1      -5.807  -3.736 -35.570  1.00  0.00    -0.083 Cl
HETATM   31  C   UNL     1      -5.234  -1.065 -32.603  1.00  0.00     0.034 A 
HETATM   32 CL   UNL     1      -3.659  -3.153 -33.195  1.00  0.00    -0.083 Cl
ENDBRANCH   1  25
TORSDOF 5
ENDMDL
MODEL 2
REMARK VINA RESULT:      -8.9      2.245      2.699
REMARK  5 active torsions:
REMARK  status: ('A' for Active; 'I' for Inactive)
REMARK    1  A    between atoms: C_2  and  C_3 
REMARK    2  A    between atoms: C_8  and  C_9 
REMARK       I    between atoms: C_9  and  N_10 
REMARK    3  A    between atoms: N_10  and  C_11 
REMARK    4  A    between atoms: C_11  and  C_12 
REMARK    5  A    between atoms: C_19  and  C_20 
ROOT
HETATM    1  C   UNL     1      -5.013  -0.220 -31.458  1.00  0.00     0.118 C 
HETATM    2  N   UNL     1      -3.860   0.620 -31.760  1.00  0.00    -0.366 N 
HETATM    3  C   UNL     1      -3.997   1.873 -32.246  1.00  0.00     0.123 A 
HETATM    4  N   UNL     1      -5.227   2.464 -32.371  1.00  0.00    -0.240 N 
HETATM    5  N   UNL     1      -5.182   3.679 -32.942  1.00  0.00    -0.165 NA
HETATM    6  C   UNL     1      -3.860   3.914 -33.103  1.00  0.00     0.148 A 
HETATM    7  C   UNL     1      -3.088   2.793 -32.697  1.00  0.00     0.088 A 
HETATM    8  C   UNL     1      -6.476   1.792 -32.066  1.00  0.00     0.221 C 
HETATM    9  C   UNL     1      -6.224   0.642 -31.071  1.00  0.00     0.066 C 
HETATM   10  H   UNL     1      -2.961   0.140 -31.802  1.00  0.00     0.161 HD
ENDROOT
BRANCH   6  11
HETATM   11  C   UNL     1      -3.351   5.192 -33.629  1.00  0.00     0.272 C 
HETATM   12  N   UNL     1      -2.000   5.362 -33.433  1.00  0.00    -0.353 N 
HETATM   13  H   UNL     1      -1.549   4.676 -32.833  1.00  0.00     0.162 HD
HETATM   14  O   UNL     1      -4.064   6.013 -34.199  1.00  0.00    -0.266 OA
BRANCH  12  15
HETATM   15  C   UNL     1      -1.279   6.548 -33.840  1.00  0.00     0.155 C 
BRANCH  15  16
HETATM   16  C   UNL     1      -0.997   7.497 -32.674  1.00  0.00     0.139 C 
HETATM   17  O   UNL     1      -2.006   8.525 -32.599  1.00  0.00    -0.384 OA
HETATM   18  C   UNL     1      -2.243   8.828 -31.216  1.00  0.00     0.168 C 
HETATM   19  C   UNL     1      -1.328   7.943 -30.393  1.00  0.00     0.029 C 
HETATM   20  C   UNL     1      -1.047   6.795 -31.328  1.00  0.00     0.035 C 
ENDBRANCH  15  16
ENDBRANCH  12  15
ENDBRANCH   6  11
BRANCH   8  21
HETATM   21  C   UNL     1      -7.510   2.738 -31.493  1.00  0.00     0.409 C 
HETATM   22  F   UNL     1      -8.128   3.491 -32.426  1.00  0.00    -0.169 F 
HETATM   23  F   UNL     1      -8.491   2.020 -30.879  1.00  0.00    -0.169 F 
HETATM   24  F   UNL     1      -6.993   3.561 -30.552  1.00  0.00    -0.169 F 
ENDBRANCH   8  21
BRANCH   1  25
HETATM   25  C   UNL     1      -5.315  -1.215 -32.569  1.00  0.00    -0.034 A 
HETATM   26  C   UNL     1      -6.482  -1.164 -33.347  1.00  0.00     0.011 A 
HETATM   27  C   UNL     1      -6.710  -2.101 -34.361  1.00  0.00     0.026 A 
HETATM   28  C   UNL     1      -5.778  -3.109 -34.614  1.00  0.00     0.055 A 
HETATM   29  C   UNL     1      -4.615  -3.182 -33.845  1.00  0.00     0.056 A 
HETATM   30 CL   UNL     1      -6.122  -4.224 -35.887  1.00  0.00    -0.083 Cl
HETATM   31  C   UNL     1      -4.391  -2.243 -32.829  1.00  0.00     0.034 A 
HETATM   32 CL   UNL     1      -3.413  -4.398 -34.091  1.00  0.00    -0.083 Cl
ENDBRANCH   1  25
TORSDOF 5
ENDMDL
MODEL 3
REMARK VINA RESULT:      -8.8      5.964      9.662
REMARK  5 active torsions:
REMARK  status: ('A' for Active; 'I' for Inactive)
REMARK    1  A    between atoms: C_2  and  C_3 
REMARK    2  A    between atoms: C_8  and  C_9 
REMARK       I    between atoms: C_9  and  N_10 
REMARK    3  A    between atoms: N_10  and  C_11 
REMARK    4  A    between atoms: C_11  and  C_12 
REMARK    5  A    between atoms: C_19  and  C_20 
ROOT
HETATM    1  C   UNL     1      -6.048   0.720 -30.783  1.00  0.00     0.118 C 
HETATM    2  N   UNL     1      -7.458   1.083 -30.700  1.00  0.00    -0.366 N 
HETATM    3  C   UNL     1      -8.287   0.971 -31.761  1.00  0.00     0.123 A 
HETATM    4  N   UNL     1      -7.876   0.402 -32.938  1.00  0.00    -0.240 N 
HETATM    5  N   UNL     1      -8.804   0.443 -33.907  1.00  0.00    -0.165 NA
HETATM    6  C   UNL     1      -9.887   0.977 -33.297  1.00  0.00     0.148 A 
HETATM    7  C   UNL     1      -9.592   1.340 -31.956  1.00  0.00     0.088 A 
HETATM    8  C   UNL     1      -6.521  -0.062 -33.175  1.00  0.00     0.221 C 
HETATM    9  C   UNL     1      -5.833  -0.380 -31.833  1.00  0.00     0.066 C 
HETATM   10  H   UNL     1      -7.727   1.630 -29.883  1.00  0.00     0.161 HD
ENDROOT
BRANCH   6  11
HETATM   11  C   UNL     1     -11.178   1.128 -33.988  1.00  0.00     0.272 C 
HETATM   12  N   UNL     1     -12.216   0.492 -33.347  1.00  0.00    -0.353 N 
HETATM   13  H   UNL     1     -11.955  -0.116 -32.575  1.00  0.00     0.162 HD
HETATM   14  O   UNL     1     -11.312   1.772 -35.025  1.00  0.00    -0.266 OA
BRANCH  12  15
HETATM   15  C   UNL     1     -13.573   0.478 -33.849  1.00  0.00     0.155 C 
BRANCH  15  16
HETATM   16  C   UNL     1     -14.328   1.773 -33.545  1.00  0.00     0.139 C 
HETATM   17  O   UNL     1     -15.720   1.501 -33.284  1.00  0.00    -0.384 OA
HETATM   18  C   UNL     1     -16.178   2.413 -32.274  1.00  0.00     0.168 C 
HETATM   19  C   UNL     1     -15.008   3.298 -31.895  1.00  0.00     0.029 C 
HETATM   20  C   UNL     1     -13.818   2.464 -32.292  1.00  0.00     0.035 C 
ENDBRANCH  15  16
ENDBRANCH  12  15
ENDBRANCH   6  11
BRANCH   8  21
HETATM   21  C   UNL     1      -6.484  -1.288 -34.063  1.00  0.00     0.409 C 
HETATM   22  F   UNL     1      -6.484  -0.999 -35.381  1.00  0.00    -0.169 F 
HETATM   23  F   UNL     1      -5.336  -1.982 -33.832  1.00  0.00    -0.169 F 
HETATM   24  F   UNL     1      -7.503  -2.141 -33.813  1.00  0.00    -0.169 F 
ENDBRANCH   8  21
BRANCH   1  25
HETATM   25  C   UNL     1      -5.147   1.929 -30.987  1.00  0.00    -0.034 A 
HETATM   26  C   UNL     1      -3.819   1.829 -31.431  1.00  0.00     0.011 A 
HETATM   27  C   UNL     1      -3.034   2.974 -31.607  1.00  0.00     0.026 A 
HETATM   28  C   UNL     1      -3.558   4.239 -31.340  1.00  0.00     0.055 A 
HETATM   29  C   UNL     1      -4.874   4.359 -30.889  1.00  0.00     0.056 A 
HETATM   30 CL   UNL     1      -2.533   5.606 -31.589  1.00  0.00    -0.083 Cl
HETATM   31  C   UNL     1      -5.658   3.211 -30.712  1.00  0.00     0.034 A 
HETATM   32 CL   UNL     1      -5.599   5.886 -30.534  1.00  0.00    -0.083 Cl
ENDBRANCH   1  25
TORSDOF 5
ENDMDL
MODEL 4
REMARK VINA RESULT:      -8.5      5.463      9.026
REMARK  5 active torsions:
REMARK  status: ('A' for Active; 'I' for Inactive)
REMARK    1  A    between atoms: C_2  and  C_3 
REMARK    2  A    between atoms: C_8  and  C_9 
REMARK       I    between atoms: C_9  and  N_10 
REMARK    3  A    between atoms: N_10  and  C_11 
REMARK    4  A    between atoms: C_11  and  C_12 
REMARK    5  A    between atoms: C_19  and  C_20 
ROOT
HETATM    1  C   UNL     1      -4.955   2.107 -31.405  1.00  0.00     0.118 C 
HETATM    2  N   UNL     1      -6.382   2.312 -31.186  1.00  0.00    -0.366 N 
HETATM    3  C   UNL     1      -7.314   1.776 -32.005  1.00  0.00     0.123 A 
HETATM    4  N   UNL     1      -6.973   0.916 -33.016  1.00  0.00    -0.240 N 
HETATM    5  N   UNL     1      -8.015   0.542 -33.776  1.00  0.00    -0.165 NA
HETATM    6  C   UNL     1      -9.081   1.112 -33.170  1.00  0.00     0.148 A 
HETATM    7  C   UNL     1      -8.676   1.912 -32.068  1.00  0.00     0.088 A 
HETATM    8  C   UNL     1      -5.604   0.560 -33.340  1.00  0.00     0.221 C 
HETATM    9  C   UNL     1      -4.703   0.764 -32.106  1.00  0.00     0.066 C 
HETATM   10  H   UNL     1      -6.628   3.055 -30.532  1.00  0.00     0.161 HD
ENDROOT
BRANCH   6  11
HETATM   11  C   UNL     1     -10.459   0.888 -33.637  1.00  0.00     0.272 C 
HETATM   12  N   UNL     1     -10.835   1.736 -34.652  1.00  0.00    -0.353 N 
HETATM   13  H   UNL     1     -10.192   2.497 -34.857  1.00  0.00     0.162 HD
HETATM   14  O   UNL     1     -11.190   0.018 -33.172  1.00  0.00    -0.266 OA
BRANCH  12  15
HETATM   15  C   UNL     1     -12.150   1.723 -35.255  1.00  0.00     0.155 C 
BRANCH  15  16
HETATM   16  C   UNL     1     -13.108   2.721 -34.602  1.00  0.00     0.139 C 
HETATM   17  O   UNL     1     -13.680   2.165 -33.399  1.00  0.00    -0.384 OA
HETATM   18  C   UNL     1     -13.839   3.224 -32.443  1.00  0.00     0.168 C 
HETATM   19  C   UNL     1     -13.345   4.502 -33.090  1.00  0.00     0.029 C 
HETATM   20  C   UNL     1     -12.408   3.993 -34.156  1.00  0.00     0.035 C 
ENDBRANCH  15  16
ENDBRANCH  12  15
ENDBRANCH   6  11
BRANCH   8  21
HETATM   21  C   UNL     1      -5.484  -0.870 -33.822  1.00  0.00     0.409 C 
HETATM   22  F   UNL     1      -5.991  -1.068 -35.056  1.00  0.00    -0.169 F 
HETATM   23  F   UNL     1      -4.168  -1.215 -33.897  1.00  0.00    -0.169 F 
HETATM   24  F   UNL     1      -6.061  -1.752 -32.975  1.00  0.00    -0.169 F 
ENDBRANCH   8  21
BRANCH   1  25
HETATM   25  C   UNL     1      -4.299   3.285 -32.110  1.00  0.00    -0.034 A 
HETATM   26  C   UNL     1      -4.951   4.054 -33.087  1.00  0.00     0.011 A 
HETATM   27  C   UNL     1      -4.303   5.131 -33.702  1.00  0.00     0.026 A 
HETATM   28  C   UNL     1      -2.991   5.458 -33.356  1.00  0.00     0.055 A 
HETATM   29  C   UNL     1      -2.322   4.700 -32.393  1.00  0.00     0.056 A 
HETATM   30 CL   UNL     1      -2.260   6.806 -34.151  1.00  0.00    -0.083 Cl
HETATM   31  C   UNL     1      -2.973   3.621 -31.780  1.00  0.00     0.034 A 
HETATM   32 CL   UNL     1      -0.698   5.036 -31.910  1.00  0.00    -0.083 Cl
ENDBRANCH   1  25
TORSDOF 5
ENDMDL
MODEL 5
REMARK VINA RESULT:      -8.5      5.203      8.253
REMARK  5 active torsions:
REMARK  status: ('A' for Active; 'I' for Inactive)
REMARK    1  A    between atoms: C_2  and  C_3 
REMARK    2  A    between atoms: C_8  and  C_9 
REMARK       I    between atoms: C_9  and  N_10 
REMARK    3  A    between atoms: N_10  and  C_11 
REMARK    4  A    between atoms: C_11  and  C_12 
REMARK    5  A    between atoms: C_19  and  C_20 
ROOT
HETATM    1  C   UNL     1      -5.514   1.132 -33.673  1.00  0.00     0.118 C 
HETATM    2  N   UNL     1      -6.641   1.961 -34.084  1.00  0.00    -0.366 N 
HETATM    3  C   UNL     1      -7.603   2.338 -33.213  1.00  0.00     0.123 A 
HETATM    4  N   UNL     1      -7.511   2.060 -31.875  1.00  0.00    -0.240 N 
HETATM    5  N   UNL     1      -8.590   2.441 -31.173  1.00  0.00    -0.165 NA
HETATM    6  C   UNL     1      -9.365   3.073 -32.083  1.00  0.00     0.148 A 
HETATM    7  C   UNL     1      -8.787   3.009 -33.379  1.00  0.00     0.088 A 
HETATM    8  C   UNL     1      -6.430   1.291 -31.288  1.00  0.00     0.221 C 
HETATM    9  C   UNL     1      -5.184   1.362 -32.192  1.00  0.00     0.066 C 
HETATM   10  H   UNL     1      -6.785   2.047 -35.090  1.00  0.00     0.161 HD
ENDROOT
BRANCH   6  11
HETATM   11  C   UNL     1     -10.630   3.730 -31.713  1.00  0.00     0.272 C 
HETATM   12  N   UNL     1     -11.413   4.052 -32.798  1.00  0.00    -0.353 N 
HETATM   13  H   UNL     1     -10.977   3.940 -33.709  1.00  0.00     0.162 HD
HETATM   14  O   UNL     1     -10.954   3.952 -30.551  1.00  0.00    -0.266 OA
BRANCH  12  15
HETATM   15  C   UNL     1     -12.687   4.727 -32.686  1.00  0.00     0.155 C 
BRANCH  15  16
HETATM   16  C   UNL     1     -13.870   3.807 -32.993  1.00  0.00     0.139 C 
HETATM   17  O   UNL     1     -13.435   2.647 -33.732  1.00  0.00    -0.384 OA
HETATM   18  C   UNL     1     -14.218   1.521 -33.309  1.00  0.00     0.168 C 
HETATM   19  C   UNL     1     -15.193   2.012 -32.258  1.00  0.00     0.029 C 
HETATM   20  C   UNL     1     -14.520   3.255 -31.736  1.00  0.00     0.035 C 
ENDBRANCH  15  16
ENDBRANCH  12  15
ENDBRANCH   6  11
BRANCH   8  21
HETATM   21  C   UNL     1      -6.073   1.775 -29.898  1.00  0.00     0.409 C 
HETATM   22  F   UNL     1      -7.054   2.489 -29.307  1.00  0.00    -0.169 F 
HETATM   23  F   UNL     1      -5.848   0.704 -29.088  1.00  0.00    -0.169 F 
HETATM   24  F   UNL     1      -4.939   2.511 -29.881  1.00  0.00    -0.169 F 
ENDBRANCH   8  21
BRANCH   1  25
HETATM   25  C   UNL     1      -5.714  -0.336 -34.022  1.00  0.00    -0.034 A 
HETATM   26  C   UNL     1      -6.840  -0.814 -34.711  1.00  0.00     0.011 A 
HETATM   27  C   UNL     1      -6.973  -2.174 -35.012  1.00  0.00     0.026 A 
HETATM   28  C   UNL     1      -5.987  -3.083 -34.627  1.00  0.00     0.055 A 
HETATM   29  C   UNL     1      -4.863  -2.629 -33.933  1.00  0.00     0.056 A 
HETATM   30 CL   UNL     1      -6.215  -4.744 -35.040  1.00  0.00    -0.083 Cl
HETATM   31  C   UNL     1      -4.733  -1.267 -33.632  1.00  0.00     0.034 A 
HETATM   32 CL   UNL     1      -3.599  -3.687 -33.418  1.00  0.00    -0.083 Cl
ENDBRANCH   1  25
TORSDOF 5
ENDMDL
MODEL 6
REMARK VINA RESULT:      -8.4      3.831      4.924
REMARK  5 active torsions:
REMARK  status: ('A' for Active; 'I' for Inactive)
REMARK    1  A    between atoms: C_2  and  C_3 
REMARK    2  A    between atoms: C_8  and  C_9 
REMARK       I    between atoms: C_9  and  N_10 
REMARK    3  A    between atoms: N_10  and  C_11 
REMARK    4  A    between atoms: C_11  and  C_12 
REMARK    5  A    between atoms: C_19  and  C_20 
ROOT
HETATM    1  C   UNL     1      -8.311   0.824 -33.866  1.00  0.00     0.118 C 
HETATM    2  N   UNL     1      -7.401   1.746 -34.536  1.00  0.00    -0.366 N 
HETATM    3  C   UNL     1      -6.489   2.471 -33.852  1.00  0.00     0.123 A 
HETATM    4  N   UNL     1      -6.291   2.293 -32.508  1.00  0.00    -0.240 N 
HETATM    5  N   UNL     1      -5.402   3.150 -31.979  1.00  0.00    -0.165 NA
HETATM    6  C   UNL     1      -4.944   3.843 -33.045  1.00  0.00     0.148 A 
HETATM    7  C   UNL     1      -5.619   3.458 -34.234  1.00  0.00     0.088 A 
HETATM    8  C   UNL     1      -7.072   1.378 -31.695  1.00  0.00     0.221 C 
HETATM    9  C   UNL     1      -7.674   0.272 -32.583  1.00  0.00     0.066 C 
HETATM   10  H   UNL     1      -7.639   1.982 -35.499  1.00  0.00     0.161 HD
ENDROOT
BRANCH   6  11
HETATM   11  C   UNL     1      -3.875   4.848 -32.924  1.00  0.00     0.272 C 
HETATM   12  N   UNL     1      -2.615   4.299 -32.864  1.00  0.00    -0.353 N 
HETATM   13  H   UNL     1      -2.576   3.287 -32.762  1.00  0.00     0.162 HD
HETATM   14  O   UNL     1      -4.091   6.056 -32.895  1.00  0.00    -0.266 OA
BRANCH  12  15
HETATM   15  C   UNL     1      -1.410   5.085 -32.718  1.00  0.00     0.155 C 
BRANCH  15  16
HETATM   16  C   UNL     1      -1.128   5.468 -31.264  1.00  0.00     0.139 C 
HETATM   17  O   UNL     1      -0.330   4.456 -30.616  1.00  0.00    -0.384 OA
HETATM   18  C   UNL     1       0.564   5.103 -29.698  1.00  0.00     0.168 C 
HETATM   19  C   UNL     1       0.301   6.594 -29.780  1.00  0.00     0.029 C 
HETATM   20  C   UNL     1      -0.318   6.747 -31.145  1.00  0.00     0.035 C 
ENDBRANCH  15  16
ENDBRANCH  12  15
ENDBRANCH   6  11
BRANCH   8  21
HETATM   21  C   UNL     1      -6.248   0.749 -30.592  1.00  0.00     0.409 C 
HETATM   22  F   UNL     1      -6.174   1.503 -29.476  1.00  0.00    -0.169 F 
HETATM   23  F   UNL     1      -6.821  -0.427 -30.213  1.00  0.00    -0.169 F 
HETATM   24  F   UNL     1      -4.991   0.449 -30.990  1.00  0.00    -0.169 F 
ENDBRANCH   8  21
BRANCH   1  25
HETATM   25  C   UNL     1      -9.689   1.427 -33.641  1.00  0.00    -0.034 A 
HETATM   26  C   UNL     1      -9.895   2.789 -33.373  1.00  0.00     0.011 A 
HETATM   27  C   UNL     1     -11.185   3.295 -33.178  1.00  0.00     0.026 A 
HETATM   28  C   UNL     1     -12.294   2.449 -33.242  1.00  0.00     0.055 A 
HETATM   29  C   UNL     1     -12.109   1.089 -33.499  1.00  0.00     0.056 A 
HETATM   30 CL   UNL     1     -13.855   3.145 -33.000  1.00  0.00    -0.083 Cl
HETATM   31  C   UNL     1     -10.816   0.585 -33.692  1.00  0.00     0.034 A 
HETATM   32 CL   UNL     1     -13.425  -0.026 -33.593  1.00  0.00    -0.083 Cl
ENDBRANCH   1  25
TORSDOF 5
ENDMDL
MODEL 7
REMARK VINA RESULT:      -8.4      2.159      2.760
REMARK  5 active torsions:
REMARK  status: ('A' for Active; 'I' for Inactive)
REMARK    1  A    between atoms: C_2  and  C_3 
REMARK    2  A    between atoms: C_8  and  C_9 
REMARK       I    between atoms: C_9  and  N_10 
REMARK    3  A    between atoms: N_10  and  C_11 
REMARK    4  A    between atoms: C_11  and  C_12 
REMARK    5  A    between atoms: C_19  and  C_20 
ROOT
HETATM    1  C   UNL     1      -8.063   0.671 -31.809  1.00  0.00     0.118 C 
HETATM    2  N   UNL     1      -7.393   1.250 -30.651  1.00  0.00    -0.366 N 
HETATM    3  C   UNL     1      -6.862   2.493 -30.681  1.00  0.00     0.123 A 
HETATM    4  N   UNL     1      -7.028   3.319 -31.761  1.00  0.00    -0.240 N 
HETATM    5  N   UNL     1      -6.371   4.484 -31.651  1.00  0.00    -0.165 NA
HETATM    6  C   UNL     1      -5.838   4.441 -30.409  1.00  0.00     0.148 A 
HETATM    7  C   UNL     1      -6.108   3.196 -29.779  1.00  0.00     0.088 A 
HETATM    8  C   UNL     1      -7.715   2.923 -32.977  1.00  0.00     0.221 C 
HETATM    9  C   UNL     1      -8.693   1.771 -32.676  1.00  0.00     0.066 C 
HETATM   10  H   UNL     1      -7.147   0.596 -29.908  1.00  0.00     0.161 HD
ENDROOT
BRANCH   6  11
HETATM   11  C   UNL     1      -5.091   5.574 -29.837  1.00  0.00     0.272 C 
HETATM   12  N   UNL     1      -4.023   5.967 -30.609  1.00  0.00    -0.353 N 
HETATM   13  H   UNL     1      -3.787   5.354 -31.386  1.00  0.00     0.162 HD
HETATM   14  O   UNL     1      -5.405   6.119 -28.783  1.00  0.00    -0.266 OA
BRANCH  12  15
HETATM   15  C   UNL     1      -3.126   7.041 -30.241  1.00  0.00     0.155 C 
BRANCH  15  16
HETATM   16  C   UNL     1      -1.668   6.587 -30.153  1.00  0.00     0.139 C 
HETATM   17  O   UNL     1      -1.490   5.314 -30.808  1.00  0.00    -0.384 OA
HETATM   18  C   UNL     1      -0.199   5.304 -31.434  1.00  0.00     0.168 C 
HETATM   19  C   UNL     1       0.459   6.639 -31.146  1.00  0.00     0.029 C 
HETATM   20  C   UNL     1      -0.720   7.536 -30.866  1.00  0.00     0.035 C 
ENDBRANCH  15  16
ENDBRANCH  12  15
ENDBRANCH   6  11
BRANCH   8  21
HETATM   21  C   UNL     1      -8.469   4.074 -33.608  1.00  0.00     0.409 C 
HETATM   22  F   UNL     1      -7.676   4.935 -34.279  1.00  0.00    -0.169 F 
HETATM   23  F   UNL     1      -9.355   3.590 -34.522  1.00  0.00    -0.169 F 
HETATM   24  F   UNL     1      -9.194   4.774 -32.708  1.00  0.00    -0.169 F 
ENDBRANCH   8  21
BRANCH   1  25
HETATM   25  C   UNL     1      -7.161  -0.269 -32.595  1.00  0.00    -0.034 A 
HETATM   26  C   UNL     1      -7.544  -0.865 -33.807  1.00  0.00     0.011 A 
HETATM   27  C   UNL     1      -6.673  -1.719 -34.493  1.00  0.00     0.026 A 
HETATM   28  C   UNL     1      -5.405  -1.996 -33.980  1.00  0.00     0.055 A 
HETATM   29  C   UNL     1      -5.008  -1.420 -32.771  1.00  0.00     0.056 A 
HETATM   30 CL   UNL     1      -4.382  -3.051 -34.886  1.00  0.00    -0.083 Cl
HETATM   31  C   UNL     1      -5.883  -0.566 -32.086  1.00  0.00     0.034 A 
HETATM   32 CL   UNL     1      -3.458  -1.712 -32.068  1.00  0.00    -0.083 Cl
ENDBRANCH   1  25
TORSDOF 5
ENDMDL
MODEL 8
REMARK VINA RESULT:      -8.4      4.597      8.873
REMARK  5 active torsions:
REMARK  status: ('A' for Active; 'I' for Inactive)
REMARK    1  A    between atoms: C_2  and  C_3 
REMARK    2  A    between atoms: C_8  and  C_9 
REMARK       I    between atoms: C_9  and  N_10 
REMARK    3  A    between atoms: N_10  and  C_11 
REMARK    4  A    between atoms: C_11  and  C_12 
REMARK    5  A    between atoms: C_19  and  C_20 
ROOT
HETATM    1  C   UNL     1      -1.481   6.079 -31.737  1.00  0.00     0.118 C 
HETATM    2  N   UNL     1      -1.707   4.653 -31.940  1.00  0.00    -0.366 N 
HETATM    3  C   UNL     1      -2.893   4.071 -31.654  1.00  0.00     0.123 A 
HETATM    4  N   UNL     1      -3.981   4.808 -31.268  1.00  0.00    -0.240 N 
HETATM    5  N   UNL     1      -5.050   4.060 -30.951  1.00  0.00    -0.165 NA
HETATM    6  C   UNL     1      -4.660   2.797 -31.235  1.00  0.00     0.148 A 
HETATM    7  C   UNL     1      -3.304   2.764 -31.658  1.00  0.00     0.088 A 
HETATM    8  C   UNL     1      -3.947   6.245 -31.067  1.00  0.00     0.221 C 
HETATM    9  C   UNL     1      -2.794   6.862 -31.883  1.00  0.00     0.066 C 
HETATM   10  H   UNL     1      -0.871   4.088 -32.089  1.00  0.00     0.161 HD
ENDROOT
BRANCH   6  11
HETATM   11  C   UNL     1      -5.572   1.649 -31.108  1.00  0.00     0.272 C 
HETATM   12  N   UNL     1      -5.221   0.584 -31.906  1.00  0.00    -0.353 N 
HETATM   13  H   UNL     1      -4.482   0.760 -32.581  1.00  0.00     0.162 HD
HETATM   14  O   UNL     1      -6.540   1.642 -30.353  1.00  0.00    -0.266 OA
BRANCH  12  15
HETATM   15  C   UNL     1      -5.981  -0.645 -31.972  1.00  0.00     0.155 C 
BRANCH  15  16
HETATM   16  C   UNL     1      -6.874  -0.720 -33.211  1.00  0.00     0.139 C 
HETATM   17  O   UNL     1      -8.101   0.009 -32.999  1.00  0.00    -0.384 OA
HETATM   18  C   UNL     1      -8.484   0.621 -34.239  1.00  0.00     0.168 C 
HETATM   19  C   UNL     1      -7.442   0.247 -35.274  1.00  0.00     0.029 C 
HETATM   20  C   UNL     1      -6.236  -0.075 -34.429  1.00  0.00     0.035 C 
ENDBRANCH  15  16
ENDBRANCH  12  15
ENDBRANCH   6  11
BRANCH   8  21
HETATM   21  C   UNL     1      -5.252   6.908 -31.456  1.00  0.00     0.409 C 
HETATM   22  F   UNL     1      -5.174   8.252 -31.529  1.00  0.00    -0.169 F 
HETATM   23  F   UNL     1      -5.622   6.486 -32.696  1.00  0.00    -0.169 F 
HETATM   24  F   UNL     1      -6.266   6.583 -30.624  1.00  0.00    -0.169 F 
ENDBRANCH   8  21
BRANCH   1  25
HETATM   25  C   UNL     1      -0.750   6.373 -30.435  1.00  0.00    -0.034 A 
HETATM   26  C   UNL     1       0.104   5.450 -29.811  1.00  0.00     0.011 A 
HETATM   27  C   UNL     1       0.757   5.772 -28.616  1.00  0.00     0.026 A 
HETATM   28  C   UNL     1       0.567   7.020 -28.020  1.00  0.00     0.055 A 
HETATM   29  C   UNL     1      -0.286   7.948 -28.620  1.00  0.00     0.056 A 
HETATM   30 CL   UNL     1       1.413   7.349 -26.551  1.00  0.00    -0.083 Cl
HETATM   31  C   UNL     1      -0.940   7.622 -29.816  1.00  0.00     0.034 A 
HETATM   32 CL   UNL     1      -0.578   9.512 -27.948  1.00  0.00    -0.083 Cl
ENDBRANCH   1  25
TORSDOF 5
ENDMDL
MODEL 9
REMARK VINA RESULT:      -8.4      5.966      8.431
REMARK  5 active torsions:
REMARK  status: ('A' for Active; 'I' for Inactive)
REMARK    1  A    between atoms: C_2  and  C_3 
REMARK    2  A    between atoms: C_8  and  C_9 
REMARK       I    between atoms: C_9  and  N_10 
REMARK    3  A    between atoms: N_10  and  C_11 
REMARK    4  A    between atoms: C_11  and  C_12 
REMARK    5  A    between atoms: C_19  and  C_20 
ROOT
HETATM    1  C   UNL     1      -5.738   0.504 -34.150  1.00  0.00     0.118 C 
HETATM    2  N   UNL     1      -7.014   0.640 -34.842  1.00  0.00    -0.366 N 
HETATM    3  C   UNL     1      -8.175   0.816 -34.172  1.00  0.00     0.123 A 
HETATM    4  N   UNL     1      -8.201   0.991 -32.814  1.00  0.00    -0.240 N 
HETATM    5  N   UNL     1      -9.442   1.074 -32.307  1.00  0.00    -0.165 NA
HETATM    6  C   UNL     1     -10.241   1.043 -33.398  1.00  0.00     0.148 A 
HETATM    7  C   UNL     1      -9.481   0.859 -34.584  1.00  0.00     0.088 A 
HETATM    8  C   UNL     1      -7.018   0.938 -31.975  1.00  0.00     0.221 C 
HETATM    9  C   UNL     1      -5.765   1.259 -32.813  1.00  0.00     0.066 C 
HETATM   10  H   UNL     1      -7.016   0.372 -35.826  1.00  0.00     0.161 HD
ENDROOT
BRANCH   6  11
HETATM   11  C   UNL     1     -11.702   1.193 -33.301  1.00  0.00     0.272 C 
HETATM   12  N   UNL     1     -12.097   2.463 -32.950  1.00  0.00    -0.353 N 
HETATM   13  H   UNL     1     -11.355   3.094 -32.660  1.00  0.00     0.162 HD
HETATM   14  O   UNL     1     -12.486   0.275 -33.527  1.00  0.00    -0.266 OA
BRANCH  12  15
HETATM   15  C   UNL     1     -13.481   2.845 -32.768  1.00  0.00     0.155 C 
BRANCH  15  16
HETATM   16  C   UNL     1     -13.632   4.223 -32.121  1.00  0.00     0.139 C 
HETATM   17  O   UNL     1     -15.001   4.672 -32.195  1.00  0.00    -0.384 OA
HETATM   18  C   UNL     1     -15.301   5.408 -31.000  1.00  0.00     0.168 C 
HETATM   19  C   UNL     1     -14.050   5.419 -30.145  1.00  0.00     0.029 C 
HETATM   20  C   UNL     1     -13.299   4.210 -30.639  1.00  0.00     0.035 C 
ENDBRANCH  15  16
ENDBRANCH  12  15
ENDBRANCH   6  11
BRANCH   8  21
HETATM   21  C   UNL     1      -7.102   1.897 -30.806  1.00  0.00     0.409 C 
HETATM   22  F   UNL     1      -8.367   2.225 -30.468  1.00  0.00    -0.169 F 
HETATM   23  F   UNL     1      -6.557   1.317 -29.702  1.00  0.00    -0.169 F 
HETATM   24  F   UNL     1      -6.408   3.038 -31.020  1.00  0.00    -0.169 F 
ENDBRANCH   8  21
BRANCH   1  25
HETATM   25  C   UNL     1      -5.304  -0.947 -34.011  1.00  0.00    -0.034 A 
HETATM   26  C   UNL     1      -4.205  -1.347 -33.234  1.00  0.00     0.011 A 
HETATM   27  C   UNL     1      -3.850  -2.697 -33.135  1.00  0.00     0.026 A 
HETATM   28  C   UNL     1      -4.583  -3.673 -33.814  1.00  0.00     0.055 A 
HETATM   29  C   UNL     1      -5.674  -3.294 -34.599  1.00  0.00     0.056 A 
HETATM   30 CL   UNL     1      -4.091  -5.318 -33.638  1.00  0.00    -0.083 Cl
HETATM   31  C   UNL     1      -6.026  -1.941 -34.697  1.00  0.00     0.034 A 
HETATM   32 CL   UNL     1      -6.631  -4.436 -35.471  1.00  0.00    -0.083 Cl
ENDBRANCH   1  25
TORSDOF 5
ENDMDL
MODEL 10
REMARK VINA RESULT:      -8.4      4.543      9.010
REMARK  5 active torsions:
REMARK  status: ('A' for Active; 'I' for Inactive)
REMARK    1  A    between atoms: C_2  and  C_3 
REMARK    2  A    between atoms: C_8  and  C_9 
REMARK       I    between atoms: C_9  and  N_10 
REMARK    3  A    between atoms: N_10  and  C_11 
REMARK    4  A    between atoms: C_11  and  C_12 
REMARK    5  A    between atoms: C_19  and  C_20 
ROOT
HETATM    1  C   UNL     1      -1.565   6.231 -31.689  1.00  0.00     0.118 C 
HETATM    2  N   UNL     1      -1.666   4.809 -31.995  1.00  0.00    -0.366 N 
HETATM    3  C   UNL     1      -2.780   4.097 -31.717  1.00  0.00     0.123 A 
HETATM    4  N   UNL     1      -3.916   4.696 -31.241  1.00  0.00    -0.240 N 
HETATM    5  N   UNL     1      -4.898   3.829 -30.948  1.00  0.00    -0.165 NA
HETATM    6  C   UNL     1      -4.404   2.633 -31.341  1.00  0.00     0.148 A 
HETATM    7  C   UNL     1      -3.069   2.760 -31.808  1.00  0.00     0.088 A 
HETATM    8  C   UNL     1      -4.008   6.111 -30.931  1.00  0.00     0.221 C 
HETATM    9  C   UNL     1      -2.949   6.893 -31.733  1.00  0.00     0.066 C 
HETATM   10  H   UNL     1      -0.787   4.339 -32.213  1.00  0.00     0.161 HD
ENDROOT
BRANCH   6  11
HETATM   11  C   UNL     1      -5.201   1.397 -31.274  1.00  0.00     0.272 C 
HETATM   12  N   UNL     1      -5.480   0.861 -32.511  1.00  0.00    -0.353 N 
HETATM   13  H   UNL     1      -5.240   1.442 -33.310  1.00  0.00     0.162 HD
HETATM   14  O   UNL     1      -5.565   0.891 -30.217  1.00  0.00    -0.266 OA
BRANCH  12  15
HETATM   15  C   UNL     1      -6.269  -0.336 -32.700  1.00  0.00     0.155 C 
BRANCH  15  16
HETATM   16  C   UNL     1      -5.810  -1.161 -33.904  1.00  0.00     0.139 C 
HETATM   17  O   UNL     1      -4.593  -1.872 -33.599  1.00  0.00    -0.384 OA
HETATM   18  C   UNL     1      -4.632  -3.142 -34.266  1.00  0.00     0.168 C 
HETATM   19  C   UNL     1      -5.940  -3.218 -35.028  1.00  0.00     0.029 C 
HETATM   20  C   UNL     1      -6.812  -2.236 -34.288  1.00  0.00     0.035 C 
ENDBRANCH  15  16
ENDBRANCH  12  15
ENDBRANCH   6  11
BRANCH   8  21
HETATM   21  C   UNL     1      -5.382   6.673 -31.226  1.00  0.00     0.409 C 
HETATM   22  F   UNL     1      -5.954   6.149 -32.330  1.00  0.00    -0.169 F 
HETATM   23  F   UNL     1      -6.222   6.384 -30.194  1.00  0.00    -0.169 F 
HETATM   24  F   UNL     1      -5.376   8.020 -31.348  1.00  0.00    -0.169 F 
ENDBRANCH   8  21
BRANCH   1  25
HETATM   25  C   UNL     1      -0.814   6.496 -30.393  1.00  0.00    -0.034 A 
HETATM   26  C   UNL     1       0.057   5.564 -29.807  1.00  0.00     0.011 A 
HETATM   27  C   UNL     1       0.727   5.859 -28.615  1.00  0.00     0.026 A 
HETATM   28  C   UNL     1       0.538   7.090 -27.983  1.00  0.00     0.055 A 
HETATM   29  C   UNL     1      -0.331   8.027 -28.546  1.00  0.00     0.056 A 
HETATM   30 CL   UNL     1       1.407   7.387 -26.521  1.00  0.00    -0.083 Cl
HETATM   31  C   UNL     1      -1.002   7.728 -29.739  1.00  0.00     0.034 A 
HETATM   32 CL   UNL     1      -0.622   9.571 -27.828  1.00  0.00    -0.083 Cl
ENDBRANCH   1  25
TORSDOF 5
ENDMDL
