MODEL 1
REMARK VINA RESULT:      -8.9      0.000      0.000
REMARK  9 active torsions:
REMARK  status: ('A' for Active; 'I' for Inactive)
REMARK    1  A    between atoms: C_2  and  C_3 
REMARK    2  A    between atoms: C_3  and  C_4 
REMARK    3  A    between atoms: C_4  and  C_5 
REMARK    4  A    between atoms: C_5  and  N_6 
REMARK    5  A    between atoms: C_9  and  C_10 
REMARK       I    between atoms: C_10  and  N_11 
REMARK    6  A    between atoms: N_11  and  N_12 
REMARK    7  A    between atoms: C_13  and  C_14 
REMARK    8  A    between atoms: C_24  and  O_25 
REMARK    9  A    between atoms: C_28  and  O_29 
ROOT
HETATM    1  C   UNL     1      -3.449   1.066 -31.813  1.00  0.00     0.280 C 
HETATM    2  N   UNL     1      -3.192   2.132 -32.664  1.00  0.00    -0.242 N 
HETATM    3  O   UNL     1      -3.151   0.995 -30.628  1.00  0.00    -0.266 OA
HETATM    4  H   UNL     1      -3.398   2.044 -33.656  1.00  0.00     0.192 HD
ENDROOT
BRANCH   1   5
HETATM    5  C   UNL     1      -4.075  -0.070 -32.525  1.00  0.00     0.135 A 
HETATM    6  C   UNL     1      -5.268   0.177 -33.369  1.00  0.00     0.266 A 
HETATM    7  N   UNL     1      -5.810  -0.906 -34.062  1.00  0.00    -0.313 N 
HETATM    8  O   UNL     1      -5.717   1.319 -33.461  1.00  0.00    -0.267 OA
HETATM    9  C   UNL     1      -5.216  -2.209 -34.006  1.00  0.00     0.050 A 
HETATM   10  C   UNL     1      -4.089  -2.413 -33.186  1.00  0.00     0.025 A 
HETATM   11  C   UNL     1      -5.709  -3.297 -34.749  1.00  0.00     0.031 A 
HETATM   12  C   UNL     1      -3.534  -1.293 -32.413  1.00  0.00     0.099 A 
HETATM   13  C   UNL     1      -3.498  -3.689 -33.118  1.00  0.00     0.016 A 
HETATM   14  C   UNL     1      -4.007  -4.756 -33.854  1.00  0.00     0.001 A 
HETATM   15  C   UNL     1      -5.110  -4.557 -34.671  1.00  0.00     0.002 A 
BRANCH   7  16
HETATM   16  C   UNL     1      -7.025  -0.643 -34.837  1.00  0.00     0.132 C 
BRANCH  16  17
HETATM   17  C   UNL     1      -8.316  -0.635 -34.007  1.00  0.00     0.020 C 
BRANCH  17  18
HETATM   18  C   UNL     1      -9.048   0.706 -33.998  1.00  0.00     0.001 C 
BRANCH  18  19
HETATM   19  C   UNL     1     -10.273   0.650 -33.082  1.00  0.00    -0.004 C 
HETATM   20  C   UNL     1     -11.509   1.210 -33.764  1.00  0.00     0.005 C 
ENDBRANCH  18  19
ENDBRANCH  17  18
ENDBRANCH  16  17
ENDBRANCH   7  16
BRANCH  12  21
HETATM   21  O   UNL     1      -2.439  -1.596 -31.622  1.00  0.00    -0.359 OA
HETATM   22  H   UNL     1      -1.667  -1.064 -31.896  1.00  0.00     0.218 HD
ENDBRANCH  12  21
ENDBRANCH   1   5
BRANCH   2  23
HETATM   23  N   UNL     1      -2.659   3.285 -32.168  1.00  0.00    -0.176 NA
HETATM   24  C   UNL     1      -3.427   4.299 -31.902  1.00  0.00     0.069 C 
HETATM   25  C   UNL     1      -2.730   5.543 -31.391  1.00  0.00     0.073 C 
BRANCH  24  26
HETATM   26  C   UNL     1      -4.915   4.372 -32.026  1.00  0.00     0.092 A 
HETATM   27  C   UNL     1      -5.527   5.066 -33.197  1.00  0.00     0.261 A 
HETATM   28  O   UNL     1      -4.841   5.561 -34.085  1.00  0.00    -0.267 OA
HETATM   29  N   UNL     1      -6.892   5.120 -33.253  1.00  0.00    -0.322 N 
HETATM   30  C   UNL     1      -7.730   4.555 -32.289  1.00  0.00     0.048 A 
HETATM   31  H   UNL     1      -7.284   5.588 -34.061  1.00  0.00     0.169 HD
HETATM   32  C   UNL     1      -7.167   3.914 -31.177  1.00  0.00     0.025 A 
HETATM   33  C   UNL     1      -9.114   4.629 -32.457  1.00  0.00     0.030 A 
HETATM   34  C   UNL     1      -8.025   3.336 -30.233  1.00  0.00     0.016 A 
HETATM   35  C   UNL     1      -5.699   3.864 -31.055  1.00  0.00     0.096 A 
HETATM   36  C   UNL     1      -9.411   3.402 -30.399  1.00  0.00     0.001 A 
HETATM   37  C   UNL     1      -9.955   4.049 -31.508  1.00  0.00     0.002 A 
BRANCH  35  38
HETATM   38  O   UNL     1      -5.226   3.235 -29.916  1.00  0.00    -0.359 OA
HETATM   39  H   UNL     1      -5.909   2.637 -29.547  1.00  0.00     0.218 HD
ENDBRANCH  35  38
ENDBRANCH  24  26
ENDBRANCH   2  23
TORSDOF 9
ENDMDL
MODEL 2
REMARK VINA RESULT:      -8.2      2.973      7.797
REMARK  9 active torsions:
REMARK  status: ('A' for Active; 'I' for Inactive)
REMARK    1  A    between atoms: C_2  and  C_3 
REMARK    2  A    between atoms: C_3  and  C_4 
REMARK    3  A    between atoms: C_4  and  C_5 
REMARK    4  A    between atoms: C_5  and  N_6 
REMARK    5  A    between atoms: C_9  and  C_10 
REMARK       I    between atoms: C_10  and  N_11 
REMARK    6  A    between atoms: N_11  and  N_12 
REMARK    7  A    between atoms: C_13  and  C_14 
REMARK    8  A    between atoms: C_24  and  O_25 
REMARK    9  A    between atoms: C_28  and  O_29 
ROOT
HETATM    1  C   UNL     1      -7.181   6.060 -32.041  1.00  0.00     0.280 C 
HETATM    2  N   UNL     1      -7.372   5.127 -31.031  1.00  0.00    -0.242 N 
HETATM    3  O   UNL     1      -8.057   6.635 -32.673  1.00  0.00    -0.266 OA
HETATM    4  H   UNL     1      -6.571   4.639 -30.639  1.00  0.00     0.192 HD
ENDROOT
BRANCH   1   5
HETATM    5  C   UNL     1      -5.747   6.245 -32.357  1.00  0.00     0.135 A 
HETATM    6  C   UNL     1      -4.907   7.058 -31.447  1.00  0.00     0.266 A 
HETATM    7  N   UNL     1      -3.550   7.179 -31.749  1.00  0.00    -0.313 N 
HETATM    8  O   UNL     1      -5.415   7.567 -30.449  1.00  0.00    -0.267 OA
HETATM    9  C   UNL     1      -2.965   6.505 -32.871  1.00  0.00     0.050 A 
HETATM   10  C   UNL     1      -3.794   5.748 -33.722  1.00  0.00     0.025 A 
HETATM   11  C   UNL     1      -1.589   6.561 -33.153  1.00  0.00     0.031 A 
HETATM   12  C   UNL     1      -5.233   5.650 -33.445  1.00  0.00     0.099 A 
HETATM   13  C   UNL     1      -3.234   5.085 -34.831  1.00  0.00     0.016 A 
HETATM   14  C   UNL     1      -1.870   5.160 -35.098  1.00  0.00     0.001 A 
HETATM   15  C   UNL     1      -1.048   5.896 -34.257  1.00  0.00     0.002 A 
BRANCH   7  16
HETATM   16  C   UNL     1      -2.759   8.040 -30.867  1.00  0.00     0.132 C 
BRANCH  16  17
HETATM   17  C   UNL     1      -2.073   7.299 -29.710  1.00  0.00     0.020 C 
BRANCH  17  18
HETATM   18  C   UNL     1      -0.547   7.384 -29.729  1.00  0.00     0.001 C 
BRANCH  18  19
HETATM   19  C   UNL     1       0.076   6.048 -29.315  1.00  0.00    -0.004 C 
HETATM   20  C   UNL     1       0.589   5.272 -30.516  1.00  0.00     0.005 C 
ENDBRANCH  18  19
ENDBRANCH  17  18
ENDBRANCH  16  17
ENDBRANCH   7  16
BRANCH  12  21
HETATM   21  O   UNL     1      -5.968   4.900 -34.349  1.00  0.00    -0.359 OA
HETATM   22  H   UNL     1      -5.424   4.690 -35.133  1.00  0.00     0.218 HD
ENDBRANCH  12  21
ENDBRANCH   1   5
BRANCH   2  23
HETATM   23  N   UNL     1      -8.631   4.866 -30.576  1.00  0.00    -0.176 NA
HETATM   24  C   UNL     1      -9.321   3.891 -31.087  1.00  0.00     0.069 C 
HETATM   25  C   UNL     1     -10.721   3.709 -30.538  1.00  0.00     0.073 C 
BRANCH  24  26
HETATM   26  C   UNL     1      -8.888   2.920 -32.139  1.00  0.00     0.092 A 
HETATM   27  C   UNL     1      -9.303   3.130 -33.556  1.00  0.00     0.261 A 
HETATM   28  O   UNL     1      -9.976   4.099 -33.896  1.00  0.00    -0.267 OA
HETATM   29  N   UNL     1      -8.894   2.205 -34.476  1.00  0.00    -0.322 N 
HETATM   30  C   UNL     1      -8.108   1.094 -34.160  1.00  0.00     0.048 A 
HETATM   31  H   UNL     1      -9.182   2.373 -35.432  1.00  0.00     0.169 HD
HETATM   32  C   UNL     1      -7.724   0.878 -32.830  1.00  0.00     0.025 A 
HETATM   33  C   UNL     1      -7.709   0.227 -35.178  1.00  0.00     0.030 A 
HETATM   34  C   UNL     1      -6.917  -0.230 -32.538  1.00  0.00     0.016 A 
HETATM   35  C   UNL     1      -8.173   1.831 -31.798  1.00  0.00     0.096 A 
HETATM   36  C   UNL     1      -6.510  -1.097 -33.555  1.00  0.00     0.001 A 
HETATM   37  C   UNL     1      -6.907  -0.871 -34.872  1.00  0.00     0.002 A 
BRANCH  35  38
HETATM   38  O   UNL     1      -7.770   1.530 -30.508  1.00  0.00    -0.359 OA
HETATM   39  H   UNL     1      -7.703   2.346 -29.971  1.00  0.00     0.218 HD
ENDBRANCH  35  38
ENDBRANCH  24  26
ENDBRANCH   2  23
TORSDOF 9
ENDMDL
MODEL 3
REMARK VINA RESULT:      -8.2     15.211     18.230
REMARK  9 active torsions:
REMARK  status: ('A' for Active; 'I' for Inactive)
REMARK    1  A    between atoms: C_2  and  C_3 
REMARK    2  A    between atoms: C_3  and  C_4 
REMARK    3  A    between atoms: C_4  and  C_5 
REMARK    4  A    between atoms: C_5  and  N_6 
REMARK    5  A    between atoms: C_9  and  C_10 
REMARK       I    between atoms: C_10  and  N_11 
REMARK    6  A    between atoms: N_11  and  N_12 
REMARK    7  A    between atoms: C_13  and  C_14 
REMARK    8  A    between atoms: C_24  and  O_25 
REMARK    9  A    between atoms: C_28  and  O_29 
ROOT
HETATM    1  C   UNL     1      -2.833 -12.689 -38.150  1.00  0.00     0.280 C 
HETATM    2  N   UNL     1      -2.111 -13.846 -37.885  1.00  0.00    -0.242 N 
HETATM    3  O   UNL     1      -2.370 -11.571 -38.335  1.00  0.00    -0.266 OA
HETATM    4  H   UNL     1      -2.605 -14.703 -37.650  1.00  0.00     0.192 HD
ENDROOT
BRANCH   1   5
HETATM    5  C   UNL     1      -4.293 -12.927 -38.103  1.00  0.00     0.135 A 
HETATM    6  C   UNL     1      -4.897 -13.461 -36.860  1.00  0.00     0.266 A 
HETATM    7  N   UNL     1      -6.282 -13.635 -36.833  1.00  0.00    -0.313 N 
HETATM    8  O   UNL     1      -4.177 -13.701 -35.892  1.00  0.00    -0.267 OA
HETATM    9  C   UNL     1      -7.109 -13.267 -37.944  1.00  0.00     0.050 A 
HETATM   10  C   UNL     1      -6.501 -12.771 -39.115  1.00  0.00     0.025 A 
HETATM   11  C   UNL     1      -8.510 -13.372 -37.910  1.00  0.00     0.031 A 
HETATM   12  C   UNL     1      -5.040 -12.627 -39.176  1.00  0.00     0.099 A 
HETATM   13  C   UNL     1      -7.301 -12.411 -40.215  1.00  0.00     0.016 A 
HETATM   14  C   UNL     1      -8.687 -12.531 -40.166  1.00  0.00     0.001 A 
HETATM   15  C   UNL     1      -9.290 -13.009 -39.012  1.00  0.00     0.002 A 
BRANCH   7  16
HETATM   16  C   UNL     1      -6.841 -14.223 -35.614  1.00  0.00     0.132 C 
BRANCH  16  17
HETATM   17  C   UNL     1      -7.149 -13.207 -34.505  1.00  0.00     0.020 C 
BRANCH  17  18
HETATM   18  C   UNL     1      -6.244 -13.323 -33.279  1.00  0.00     0.001 C 
BRANCH  18  19
HETATM   19  C   UNL     1      -6.067 -14.788 -32.872  1.00  0.00    -0.004 C 
HETATM   20  C   UNL     1      -5.293 -14.920 -31.571  1.00  0.00     0.005 C 
ENDBRANCH  18  19
ENDBRANCH  17  18
ENDBRANCH  16  17
ENDBRANCH   7  16
BRANCH  12  21
HETATM   21  O   UNL     1      -4.536 -12.151 -40.375  1.00  0.00    -0.359 OA
HETATM   22  H   UNL     1      -5.254 -12.062 -41.032  1.00  0.00     0.218 HD
ENDBRANCH  12  21
ENDBRANCH   1   5
BRANCH   2  23
HETATM   23  N   UNL     1      -0.749 -13.823 -37.932  1.00  0.00    -0.176 NA
HETATM   24  C   UNL     1      -0.114 -14.519 -38.827  1.00  0.00     0.069 C 
HETATM   25  C   UNL     1       1.398 -14.454 -38.769  1.00  0.00     0.073 C 
BRANCH  24  26
HETATM   26  C   UNL     1      -0.703 -15.361 -39.913  1.00  0.00     0.092 A 
HETATM   27  C   UNL     1      -0.401 -16.821 -39.965  1.00  0.00     0.261 A 
HETATM   28  O   UNL     1       0.303 -17.366 -39.120  1.00  0.00    -0.267 OA
HETATM   29  N   UNL     1      -0.950 -17.542 -40.988  1.00  0.00    -0.322 N 
HETATM   30  C   UNL     1      -1.779 -16.989 -41.967  1.00  0.00     0.048 A 
HETATM   31  H   UNL     1      -0.738 -18.532 -40.997  1.00  0.00     0.169 HD
HETATM   32  C   UNL     1      -2.059 -15.616 -41.938  1.00  0.00     0.025 A 
HETATM   33  C   UNL     1      -2.324 -17.818 -42.950  1.00  0.00     0.030 A 
HETATM   34  C   UNL     1      -2.910 -15.086 -42.917  1.00  0.00     0.016 A 
HETATM   35  C   UNL     1      -1.458 -14.792 -40.874  1.00  0.00     0.096 A 
HETATM   36  C   UNL     1      -3.463 -15.912 -43.899  1.00  0.00     0.001 A 
HETATM   37  C   UNL     1      -3.169 -17.274 -43.917  1.00  0.00     0.002 A 
BRANCH  35  38
HETATM   38  O   UNL     1      -1.764 -13.443 -40.933  1.00  0.00    -0.359 OA
HETATM   39  H   UNL     1      -1.016 -12.907 -40.597  1.00  0.00     0.218 HD
ENDBRANCH  35  38
ENDBRANCH  24  26
ENDBRANCH   2  23
TORSDOF 9
ENDMDL
MODEL 4
REMARK VINA RESULT:      -8.1      2.052      3.648
REMARK  9 active torsions:
REMARK  status: ('A' for Active; 'I' for Inactive)
REMARK    1  A    between atoms: C_2  and  C_3 
REMARK    2  A    between atoms: C_3  and  C_4 
REMARK    3  A    between atoms: C_4  and  C_5 
REMARK    4  A    between atoms: C_5  and  N_6 
REMARK    5  A    between atoms: C_9  and  C_10 
REMARK       I    between atoms: C_10  and  N_11 
REMARK    6  A    between atoms: N_11  and  N_12 
REMARK    7  A    between atoms: C_13  and  C_14 
REMARK    8  A    between atoms: C_24  and  O_25 
REMARK    9  A    between atoms: C_28  and  O_29 
ROOT
HETATM    1  C   UNL     1      -4.779   3.971 -32.405  1.00  0.00     0.280 C 
HETATM    2  N   UNL     1      -5.992   4.456 -31.935  1.00  0.00    -0.242 N 
HETATM    3  O   UNL     1      -3.790   4.636 -32.682  1.00  0.00    -0.266 OA
HETATM    4  H   UNL     1      -6.780   3.821 -31.829  1.00  0.00     0.192 HD
ENDROOT
BRANCH   1   5
HETATM    5  C   UNL     1      -4.819   2.509 -32.631  1.00  0.00     0.135 A 
HETATM    6  C   UNL     1      -5.815   1.952 -33.576  1.00  0.00     0.266 A 
HETATM    7  N   UNL     1      -5.801   0.574 -33.800  1.00  0.00    -0.313 N 
HETATM    8  O   UNL     1      -6.592   2.712 -34.153  1.00  0.00    -0.267 OA
HETATM    9  C   UNL     1      -4.830  -0.278 -33.181  1.00  0.00     0.050 A 
HETATM   10  C   UNL     1      -3.902   0.281 -32.280  1.00  0.00     0.025 A 
HETATM   11  C   UNL     1      -4.757  -1.657 -33.445  1.00  0.00     0.031 A 
HETATM   12  C   UNL     1      -3.935   1.723 -31.997  1.00  0.00     0.099 A 
HETATM   13  C   UNL     1      -2.946  -0.546 -31.661  1.00  0.00     0.016 A 
HETATM   14  C   UNL     1      -2.896  -1.911 -31.929  1.00  0.00     0.001 A 
HETATM   15  C   UNL     1      -3.801  -2.465 -32.823  1.00  0.00     0.002 A 
BRANCH   7  16
HETATM   16  C   UNL     1      -6.837   0.047 -34.690  1.00  0.00     0.132 C 
BRANCH  16  17
HETATM   17  C   UNL     1      -8.150  -0.319 -33.984  1.00  0.00     0.020 C 
BRANCH  17  18
HETATM   18  C   UNL     1      -9.269   0.705 -34.170  1.00  0.00     0.001 C 
BRANCH  18  19
HETATM   19  C   UNL     1     -10.016   0.938 -32.854  1.00  0.00    -0.004 C 
HETATM   20  C   UNL     1      -9.135   1.618 -31.821  1.00  0.00     0.005 C 
ENDBRANCH  18  19
ENDBRANCH  17  18
ENDBRANCH  16  17
ENDBRANCH   7  16
BRANCH  12  21
HETATM   21  O   UNL     1      -2.998   2.175 -31.083  1.00  0.00    -0.359 OA
HETATM   22  H   UNL     1      -2.095   2.033 -31.428  1.00  0.00     0.218 HD
ENDBRANCH  12  21
ENDBRANCH   1   5
BRANCH   2  23
HETATM   23  N   UNL     1      -6.123   5.777 -31.626  1.00  0.00    -0.176 NA
HETATM   24  C   UNL     1      -7.280   6.360 -31.720  1.00  0.00     0.069 C 
HETATM   25  C   UNL     1      -7.308   7.838 -31.390  1.00  0.00     0.073 C 
BRANCH  24  26
HETATM   26  C   UNL     1      -8.586   5.737 -32.098  1.00  0.00     0.092 A 
HETATM   27  C   UNL     1      -9.641   5.544 -31.061  1.00  0.00     0.261 A 
HETATM   28  O   UNL     1      -9.481   5.906 -29.900  1.00  0.00    -0.267 OA
HETATM   29  N   UNL     1     -10.810   4.955 -31.455  1.00  0.00    -0.322 N 
HETATM   30  C   UNL     1     -11.067   4.541 -32.764  1.00  0.00     0.048 A 
HETATM   31  H   UNL     1     -11.514   4.841 -30.736  1.00  0.00     0.169 HD
HETATM   32  C   UNL     1     -10.078   4.704 -33.744  1.00  0.00     0.025 A 
HETATM   33  C   UNL     1     -12.308   3.985 -33.076  1.00  0.00     0.030 A 
HETATM   34  C   UNL     1     -10.363   4.303 -35.055  1.00  0.00     0.016 A 
HETATM   35  C   UNL     1      -8.787   5.302 -33.357  1.00  0.00     0.096 A 
HETATM   36  C   UNL     1     -11.607   3.751 -35.374  1.00  0.00     0.001 A 
HETATM   37  C   UNL     1     -12.577   3.590 -34.386  1.00  0.00     0.002 A 
BRANCH  35  38
HETATM   38  O   UNL     1      -7.858   5.403 -34.378  1.00  0.00    -0.359 OA
HETATM   39  H   UNL     1      -8.266   5.166 -35.237  1.00  0.00     0.218 HD
ENDBRANCH  35  38
ENDBRANCH  24  26
ENDBRANCH   2  23
TORSDOF 9
ENDMDL
MODEL 5
REMARK VINA RESULT:      -8.0      2.386      8.134
REMARK  9 active torsions:
REMARK  status: ('A' for Active; 'I' for Inactive)
REMARK    1  A    between atoms: C_2  and  C_3 
REMARK    2  A    between atoms: C_3  and  C_4 
REMARK    3  A    between atoms: C_4  and  C_5 
REMARK    4  A    between atoms: C_5  and  N_6 
REMARK    5  A    between atoms: C_9  and  C_10 
REMARK       I    between atoms: C_10  and  N_11 
REMARK    6  A    between atoms: N_11  and  N_12 
REMARK    7  A    between atoms: C_13  and  C_14 
REMARK    8  A    between atoms: C_24  and  O_25 
REMARK    9  A    between atoms: C_28  and  O_29 
ROOT
HETATM    1  C   UNL     1      -7.204   5.002 -33.460  1.00  0.00     0.280 C 
HETATM    2  N   UNL     1      -7.471   3.971 -32.568  1.00  0.00    -0.242 N 
HETATM    3  O   UNL     1      -7.955   5.419 -34.332  1.00  0.00    -0.266 OA
HETATM    4  H   UNL     1      -6.736   3.642 -31.947  1.00  0.00     0.192 HD
ENDROOT
BRANCH   1   5
HETATM    5  C   UNL     1      -5.828   5.522 -33.307  1.00  0.00     0.135 A 
HETATM    6  C   UNL     1      -5.518   6.417 -32.166  1.00  0.00     0.266 A 
HETATM    7  N   UNL     1      -4.201   6.857 -32.024  1.00  0.00    -0.313 N 
HETATM    8  O   UNL     1      -6.408   6.713 -31.371  1.00  0.00    -0.267 OA
HETATM    9  C   UNL     1      -3.163   6.428 -32.915  1.00  0.00     0.050 A 
HETATM   10  C   UNL     1      -3.493   5.585 -33.995  1.00  0.00     0.025 A 
HETATM   11  C   UNL     1      -1.820   6.807 -32.749  1.00  0.00     0.031 A 
HETATM   12  C   UNL     1      -4.884   5.151 -34.186  1.00  0.00     0.099 A 
HETATM   13  C   UNL     1      -2.485   5.160 -34.880  1.00  0.00     0.016 A 
HETATM   14  C   UNL     1      -1.162   5.554 -34.704  1.00  0.00     0.001 A 
HETATM   15  C   UNL     1      -0.830   6.376 -33.636  1.00  0.00     0.002 A 
BRANCH   7  16
HETATM   16  C   UNL     1      -3.940   7.789 -30.925  1.00  0.00     0.132 C 
BRANCH  16  17
HETATM   17  C   UNL     1      -3.216   7.164 -29.725  1.00  0.00     0.020 C 
BRANCH  17  18
HETATM   18  C   UNL     1      -2.004   7.959 -29.240  1.00  0.00     0.001 C 
BRANCH  18  19
HETATM   19  C   UNL     1      -0.773   7.057 -29.126  1.00  0.00    -0.004 C 
HETATM   20  C   UNL     1       0.480   7.854 -28.805  1.00  0.00     0.005 C 
ENDBRANCH  18  19
ENDBRANCH  17  18
ENDBRANCH  16  17
ENDBRANCH   7  16
BRANCH  12  21
HETATM   21  O   UNL     1      -5.113   4.341 -35.285  1.00  0.00    -0.359 OA
HETATM   22  H   UNL     1      -5.600   4.836 -35.973  1.00  0.00     0.218 HD
ENDBRANCH  12  21
ENDBRANCH   1   5
BRANCH   2  23
HETATM   23  N   UNL     1      -8.710   3.404 -32.536  1.00  0.00    -0.176 NA
HETATM   24  C   UNL     1      -8.840   2.113 -32.608  1.00  0.00     0.069 C 
HETATM   25  C   UNL     1     -10.261   1.587 -32.601  1.00  0.00     0.073 C 
BRANCH  24  26
HETATM   26  C   UNL     1      -7.752   1.090 -32.677  1.00  0.00     0.092 A 
HETATM   27  C   UNL     1      -6.814   0.927 -31.528  1.00  0.00     0.261 A 
HETATM   28  O   UNL     1      -6.923   1.597 -30.505  1.00  0.00    -0.267 OA
HETATM   29  N   UNL     1      -5.827  -0.011 -31.649  1.00  0.00    -0.322 N 
HETATM   30  C   UNL     1      -5.662  -0.822 -32.775  1.00  0.00     0.048 A 
HETATM   31  H   UNL     1      -5.208  -0.108 -30.854  1.00  0.00     0.169 HD
HETATM   32  C   UNL     1      -6.528  -0.669 -33.866  1.00  0.00     0.025 A 
HETATM   33  C   UNL     1      -4.646  -1.778 -32.786  1.00  0.00     0.030 A 
HETATM   34  C   UNL     1      -6.359  -1.507 -34.976  1.00  0.00     0.016 A 
HETATM   35  C   UNL     1      -7.586   0.356 -33.795  1.00  0.00     0.096 A 
HETATM   36  C   UNL     1      -5.348  -2.470 -34.990  1.00  0.00     0.001 A 
HETATM   37  C   UNL     1      -4.491  -2.605 -33.898  1.00  0.00     0.002 A 
BRANCH  35  38
HETATM   38  O   UNL     1      -8.379   0.458 -34.924  1.00  0.00    -0.359 OA
HETATM   39  H   UNL     1      -8.093   1.215 -35.477  1.00  0.00     0.218 HD
ENDBRANCH  35  38
ENDBRANCH  24  26
ENDBRANCH   2  23
TORSDOF 9
ENDMDL
MODEL 6
REMARK VINA RESULT:      -8.0      2.765      5.214
REMARK  9 active torsions:
REMARK  status: ('A' for Active; 'I' for Inactive)
REMARK    1  A    between atoms: C_2  and  C_3 
REMARK    2  A    between atoms: C_3  and  C_4 
REMARK    3  A    between atoms: C_4  and  C_5 
REMARK    4  A    between atoms: C_5  and  N_6 
REMARK    5  A    between atoms: C_9  and  C_10 
REMARK       I    between atoms: C_10  and  N_11 
REMARK    6  A    between atoms: N_11  and  N_12 
REMARK    7  A    between atoms: C_13  and  C_14 
REMARK    8  A    between atoms: C_24  and  O_25 
REMARK    9  A    between atoms: C_28  and  O_29 
ROOT
HETATM    1  C   UNL     1      -9.528   0.699 -33.536  1.00  0.00     0.280 C 
HETATM    2  N   UNL     1      -9.486   1.736 -34.459  1.00  0.00    -0.242 N 
HETATM    3  O   UNL     1     -10.535   0.188 -33.064  1.00  0.00    -0.266 OA
HETATM    4  H   UNL     1      -8.591   2.149 -34.710  1.00  0.00     0.192 HD
ENDROOT
BRANCH   1   5
HETATM    5  C   UNL     1      -8.174   0.302 -33.090  1.00  0.00     0.135 A 
HETATM    6  C   UNL     1      -7.666   0.808 -31.793  1.00  0.00     0.266 A 
HETATM    7  N   UNL     1      -6.403   0.382 -31.379  1.00  0.00    -0.313 N 
HETATM    8  O   UNL     1      -8.375   1.549 -31.113  1.00  0.00    -0.267 OA
HETATM    9  C   UNL     1      -5.633  -0.550 -32.148  1.00  0.00     0.050 A 
HETATM   10  C   UNL     1      -6.141  -1.004 -33.382  1.00  0.00     0.025 A 
HETATM   11  C   UNL     1      -4.388  -1.041 -31.716  1.00  0.00     0.031 A 
HETATM   12  C   UNL     1      -7.448  -0.528 -33.854  1.00  0.00     0.099 A 
HETATM   13  C   UNL     1      -5.393  -1.916 -34.150  1.00  0.00     0.016 A 
HETATM   14  C   UNL     1      -4.158  -2.383 -33.709  1.00  0.00     0.001 A 
HETATM   15  C   UNL     1      -3.659  -1.947 -32.490  1.00  0.00     0.002 A 
BRANCH   7  16
HETATM   16  C   UNL     1      -5.902   0.948 -30.124  1.00  0.00     0.132 C 
BRANCH  16  17
HETATM   17  C   UNL     1      -5.053   2.215 -30.297  1.00  0.00     0.020 C 
BRANCH  17  18
HETATM   18  C   UNL     1      -5.781   3.511 -29.945  1.00  0.00     0.001 C 
BRANCH  18  19
HETATM   19  C   UNL     1      -6.074   4.329 -31.206  1.00  0.00    -0.004 C 
HETATM   20  C   UNL     1      -5.260   5.611 -31.245  1.00  0.00     0.005 C 
ENDBRANCH  18  19
ENDBRANCH  17  18
ENDBRANCH  16  17
ENDBRANCH   7  16
BRANCH  12  21
HETATM   21  O   UNL     1      -7.853  -1.014 -35.086  1.00  0.00    -0.359 OA
HETATM   22  H   UNL     1      -7.085  -1.360 -35.582  1.00  0.00     0.218 HD
ENDBRANCH  12  21
ENDBRANCH   1   5
BRANCH   2  23
HETATM   23  N   UNL     1     -10.641   2.198 -35.016  1.00  0.00    -0.176 NA
HETATM   24  C   UNL     1     -11.067   3.394 -34.741  1.00  0.00     0.069 C 
HETATM   25  C   UNL     1     -12.379   3.796 -35.382  1.00  0.00     0.073 C 
BRANCH  24  26
HETATM   26  C   UNL     1     -10.403   4.423 -33.882  1.00  0.00     0.092 A 
HETATM   27  C   UNL     1      -9.778   5.622 -34.513  1.00  0.00     0.261 A 
HETATM   28  O   UNL     1      -9.812   5.807 -35.725  1.00  0.00    -0.267 OA
HETATM   29  N   UNL     1      -9.169   6.523 -33.685  1.00  0.00    -0.322 N 
HETATM   30  C   UNL     1      -9.115   6.386 -32.295  1.00  0.00     0.048 A 
HETATM   31  H   UNL     1      -8.759   7.333 -34.134  1.00  0.00     0.169 HD
HETATM   32  C   UNL     1      -9.686   5.257 -31.692  1.00  0.00     0.025 A 
HETATM   33  C   UNL     1      -8.504   7.382 -31.532  1.00  0.00     0.030 A 
HETATM   34  C   UNL     1      -9.640   5.148 -30.297  1.00  0.00     0.016 A 
HETATM   35  C   UNL     1     -10.321   4.239 -32.550  1.00  0.00     0.096 A 
HETATM   36  C   UNL     1      -9.036   6.146 -29.527  1.00  0.00     0.001 A 
HETATM   37  C   UNL     1      -8.467   7.259 -30.144  1.00  0.00     0.002 A 
BRANCH  35  38
HETATM   38  O   UNL     1     -10.838   3.145 -31.877  1.00  0.00    -0.359 OA
HETATM   39  H   UNL     1     -10.592   3.179 -30.929  1.00  0.00     0.218 HD
ENDBRANCH  35  38
ENDBRANCH  24  26
ENDBRANCH   2  23
TORSDOF 9
ENDMDL
MODEL 7
REMARK VINA RESULT:      -8.0      2.310      4.844
REMARK  9 active torsions:
REMARK  status: ('A' for Active; 'I' for Inactive)
REMARK    1  A    between atoms: C_2  and  C_3 
REMARK    2  A    between atoms: C_3  and  C_4 
REMARK    3  A    between atoms: C_4  and  C_5 
REMARK    4  A    between atoms: C_5  and  N_6 
REMARK    5  A    between atoms: C_9  and  C_10 
REMARK       I    between atoms: C_10  and  N_11 
REMARK    6  A    between atoms: N_11  and  N_12 
REMARK    7  A    between atoms: C_13  and  C_14 
REMARK    8  A    between atoms: C_24  and  O_25 
REMARK    9  A    between atoms: C_28  and  O_29 
ROOT
HETATM    1  C   UNL     1      -6.749   3.858 -31.248  1.00  0.00     0.280 C 
HETATM    2  N   UNL     1      -6.982   4.589 -32.406  1.00  0.00    -0.242 N 
HETATM    3  O   UNL     1      -6.873   4.260 -30.099  1.00  0.00    -0.266 OA
HETATM    4  H   UNL     1      -6.753   4.185 -33.310  1.00  0.00     0.192 HD
ENDROOT
BRANCH   1   5
HETATM    5  C   UNL     1      -6.229   2.505 -31.545  1.00  0.00     0.135 A 
HETATM    6  C   UNL     1      -7.087   1.550 -32.285  1.00  0.00     0.266 A 
HETATM    7  N   UNL     1      -6.554   0.296 -32.588  1.00  0.00    -0.313 N 
HETATM    8  O   UNL     1      -8.215   1.896 -32.636  1.00  0.00    -0.267 OA
HETATM    9  C   UNL     1      -5.207  -0.052 -32.243  1.00  0.00     0.050 A 
HETATM   10  C   UNL     1      -4.421   0.875 -31.531  1.00  0.00     0.025 A 
HETATM   11  C   UNL     1      -4.631  -1.285 -32.598  1.00  0.00     0.031 A 
HETATM   12  C   UNL     1      -4.984   2.182 -31.164  1.00  0.00     0.099 A 
HETATM   13  C   UNL     1      -3.098   0.544 -31.182  1.00  0.00     0.016 A 
HETATM   14  C   UNL     1      -2.549  -0.685 -31.534  1.00  0.00     0.001 A 
HETATM   15  C   UNL     1      -3.315  -1.597 -32.244  1.00  0.00     0.002 A 
BRANCH   7  16
HETATM   16  C   UNL     1      -7.447  -0.647 -33.264  1.00  0.00     0.132 C 
BRANCH  16  17
HETATM   17  C   UNL     1      -7.273  -0.701 -34.788  1.00  0.00     0.020 C 
BRANCH  17  18
HETATM   18  C   UNL     1      -6.550  -1.950 -35.293  1.00  0.00     0.001 C 
BRANCH  18  19
HETATM   19  C   UNL     1      -7.020  -3.193 -34.534  1.00  0.00    -0.004 C 
HETATM   20  C   UNL     1      -6.314  -4.448 -35.020  1.00  0.00     0.005 C 
ENDBRANCH  18  19
ENDBRANCH  17  18
ENDBRANCH  16  17
ENDBRANCH   7  16
BRANCH  12  21
HETATM   21  O   UNL     1      -4.142   3.016 -30.448  1.00  0.00    -0.359 OA
HETATM   22  H   UNL     1      -3.268   2.595 -30.331  1.00  0.00     0.218 HD
ENDBRANCH  12  21
ENDBRANCH   1   5
BRANCH   2  23
HETATM   23  N   UNL     1      -7.508   5.844 -32.323  1.00  0.00    -0.176 NA
HETATM   24  C   UNL     1      -8.783   6.031 -32.492  1.00  0.00     0.069 C 
HETATM   25  C   UNL     1      -9.258   7.467 -32.417  1.00  0.00     0.073 C 
BRANCH  24  26
HETATM   26  C   UNL     1      -9.832   4.994 -32.735  1.00  0.00     0.092 A 
HETATM   27  C   UNL     1     -10.469   4.301 -31.577  1.00  0.00     0.261 A 
HETATM   28  O   UNL     1     -10.175   4.576 -30.418  1.00  0.00    -0.267 OA
HETATM   29  N   UNL     1     -11.410   3.349 -31.853  1.00  0.00    -0.322 N 
HETATM   30  C   UNL     1     -11.808   3.006 -33.148  1.00  0.00     0.048 A 
HETATM   31  H   UNL     1     -11.834   2.899 -31.052  1.00  0.00     0.169 HD
HETATM   32  C   UNL     1     -11.207   3.639 -34.244  1.00  0.00     0.025 A 
HETATM   33  C   UNL     1     -12.807   2.047 -33.325  1.00  0.00     0.030 A 
HETATM   34  C   UNL     1     -11.636   3.296 -35.532  1.00  0.00     0.016 A 
HETATM   35  C   UNL     1     -10.160   4.647 -33.995  1.00  0.00     0.096 A 
HETATM   36  C   UNL     1     -12.640   2.342 -35.715  1.00  0.00     0.001 A 
HETATM   37  C   UNL     1     -13.223   1.717 -34.614  1.00  0.00     0.002 A 
BRANCH  35  38
HETATM   38  O   UNL     1      -9.601   5.205 -35.131  1.00  0.00    -0.359 OA
HETATM   39  H   UNL     1     -10.192   5.077 -35.902  1.00  0.00     0.218 HD
ENDBRANCH  35  38
ENDBRANCH  24  26
ENDBRANCH   2  23
TORSDOF 9
ENDMDL
MODEL 8
REMARK VINA RESULT:      -8.0      2.609      5.493
REMARK  9 active torsions:
REMARK  status: ('A' for Active; 'I' for Inactive)
REMARK    1  A    between atoms: C_2  and  C_3 
REMARK    2  A    between atoms: C_3  and  C_4 
REMARK    3  A    between atoms: C_4  and  C_5 
REMARK    4  A    between atoms: C_5  and  N_6 
REMARK    5  A    between atoms: C_9  and  C_10 
REMARK       I    between atoms: C_10  and  N_11 
REMARK    6  A    between atoms: N_11  and  N_12 
REMARK    7  A    between atoms: C_13  and  C_14 
REMARK    8  A    between atoms: C_24  and  O_25 
REMARK    9  A    between atoms: C_28  and  O_29 
ROOT
HETATM    1  C   UNL     1      -7.056   4.406 -33.328  1.00  0.00     0.280 C 
HETATM    2  N   UNL     1      -8.208   4.708 -32.615  1.00  0.00    -0.242 N 
HETATM    3  O   UNL     1      -6.539   5.094 -34.198  1.00  0.00    -0.266 OA
HETATM    4  H   UNL     1      -8.603   4.017 -31.982  1.00  0.00     0.192 HD
ENDROOT
BRANCH   1   5
HETATM    5  C   UNL     1      -6.528   3.067 -32.982  1.00  0.00     0.135 A 
HETATM    6  C   UNL     1      -7.288   1.864 -33.393  1.00  0.00     0.266 A 
HETATM    7  N   UNL     1      -6.743   0.615 -33.090  1.00  0.00    -0.313 N 
HETATM    8  O   UNL     1      -8.344   1.997 -34.011  1.00  0.00    -0.267 OA
HETATM    9  C   UNL     1      -5.470   0.486 -32.445  1.00  0.00     0.050 A 
HETATM   10  C   UNL     1      -4.777   1.651 -32.058  1.00  0.00     0.025 A 
HETATM   11  C   UNL     1      -4.875  -0.762 -32.191  1.00  0.00     0.031 A 
HETATM   12  C   UNL     1      -5.360   2.972 -32.329  1.00  0.00     0.099 A 
HETATM   13  C   UNL     1      -3.527   1.538 -31.420  1.00  0.00     0.016 A 
HETATM   14  C   UNL     1      -2.959   0.292 -31.169  1.00  0.00     0.001 A 
HETATM   15  C   UNL     1      -3.632  -0.857 -31.557  1.00  0.00     0.002 A 
BRANCH   7  16
HETATM   16  C   UNL     1      -7.548  -0.553 -33.453  1.00  0.00     0.132 C 
BRANCH  16  17
HETATM   17  C   UNL     1      -7.115  -1.238 -34.757  1.00  0.00     0.020 C 
BRANCH  17  18
HETATM   18  C   UNL     1      -6.726  -2.707 -34.595  1.00  0.00     0.001 C 
BRANCH  18  19
HETATM   19  C   UNL     1      -5.325  -2.962 -35.155  1.00  0.00    -0.004 C 
HETATM   20  C   UNL     1      -4.527  -3.899 -34.264  1.00  0.00     0.005 C 
ENDBRANCH  18  19
ENDBRANCH  17  18
ENDBRANCH  16  17
ENDBRANCH   7  16
BRANCH  12  21
HETATM   21  O   UNL     1      -4.615   4.055 -31.893  1.00  0.00    -0.359 OA
HETATM   22  H   UNL     1      -3.771   4.104 -32.385  1.00  0.00     0.218 HD
ENDBRANCH  12  21
ENDBRANCH   1   5
BRANCH   2  23
HETATM   23  N   UNL     1      -8.806   5.923 -32.772  1.00  0.00    -0.176 NA
HETATM   24  C   UNL     1      -9.988   6.007 -33.304  1.00  0.00     0.069 C 
HETATM   25  C   UNL     1     -10.545   7.406 -33.468  1.00  0.00     0.073 C 
BRANCH  24  26
HETATM   26  C   UNL     1     -10.865   4.884 -33.756  1.00  0.00     0.092 A 
HETATM   27  C   UNL     1     -10.699   4.320 -35.127  1.00  0.00     0.261 A 
HETATM   28  O   UNL     1      -9.838   4.735 -35.897  1.00  0.00    -0.267 OA
HETATM   29  N   UNL     1     -11.537   3.306 -35.497  1.00  0.00    -0.322 N 
HETATM   30  C   UNL     1     -12.521   2.771 -34.662  1.00  0.00     0.048 A 
HETATM   31  H   UNL     1     -11.400   2.934 -36.428  1.00  0.00     0.169 HD
HETATM   32  C   UNL     1     -12.698   3.302 -33.377  1.00  0.00     0.025 A 
HETATM   33  C   UNL     1     -13.303   1.708 -35.118  1.00  0.00     0.030 A 
HETATM   34  C   UNL     1     -13.675   2.737 -32.548  1.00  0.00     0.016 A 
HETATM   35  C   UNL     1     -11.840   4.422 -32.948  1.00  0.00     0.096 A 
HETATM   36  C   UNL     1     -14.456   1.669 -32.998  1.00  0.00     0.001 A 
HETATM   37  C   UNL     1     -14.272   1.157 -34.281  1.00  0.00     0.002 A 
BRANCH  35  38
HETATM   38  O   UNL     1     -12.097   4.903 -31.676  1.00  0.00    -0.359 OA
HETATM   39  H   UNL     1     -12.985   4.619 -31.375  1.00  0.00     0.218 HD
ENDBRANCH  35  38
ENDBRANCH  24  26
ENDBRANCH   2  23
TORSDOF 9
ENDMDL
MODEL 9
REMARK VINA RESULT:      -8.0      2.066      4.693
REMARK  9 active torsions:
REMARK  status: ('A' for Active; 'I' for Inactive)
REMARK    1  A    between atoms: C_2  and  C_3 
REMARK    2  A    between atoms: C_3  and  C_4 
REMARK    3  A    between atoms: C_4  and  C_5 
REMARK    4  A    between atoms: C_5  and  N_6 
REMARK    5  A    between atoms: C_9  and  C_10 
REMARK       I    between atoms: C_10  and  N_11 
REMARK    6  A    between atoms: N_11  and  N_12 
REMARK    7  A    between atoms: C_13  and  C_14 
REMARK    8  A    between atoms: C_24  and  O_25 
REMARK    9  A    between atoms: C_28  and  O_29 
ROOT
HETATM    1  C   UNL     1      -8.031   0.117 -34.018  1.00  0.00     0.280 C 
HETATM    2  N   UNL     1      -8.910   0.337 -32.965  1.00  0.00    -0.242 N 
HETATM    3  O   UNL     1      -8.229   0.383 -35.196  1.00  0.00    -0.266 OA
HETATM    4  H   UNL     1      -8.680  -0.013 -32.038  1.00  0.00     0.192 HD
ENDROOT
BRANCH   1   5
HETATM    5  C   UNL     1      -6.803  -0.580 -33.576  1.00  0.00     0.135 A 
HETATM    6  C   UNL     1      -6.034  -0.031 -32.434  1.00  0.00     0.266 A 
HETATM    7  N   UNL     1      -4.904  -0.735 -32.013  1.00  0.00    -0.313 N 
HETATM    8  O   UNL     1      -6.426   0.993 -31.877  1.00  0.00    -0.267 OA
HETATM    9  C   UNL     1      -4.516  -1.971 -32.624  1.00  0.00     0.050 A 
HETATM   10  C   UNL     1      -5.264  -2.461 -33.714  1.00  0.00     0.025 A 
HETATM   11  C   UNL     1      -3.421  -2.727 -32.171  1.00  0.00     0.031 A 
HETATM   12  C   UNL     1      -6.428  -1.708 -34.199  1.00  0.00     0.099 A 
HETATM   13  C   UNL     1      -4.891  -3.672 -34.326  1.00  0.00     0.016 A 
HETATM   14  C   UNL     1      -3.797  -4.401 -33.869  1.00  0.00     0.001 A 
HETATM   15  C   UNL     1      -3.065  -3.929 -32.789  1.00  0.00     0.002 A 
BRANCH   7  16
HETATM   16  C   UNL     1      -4.130  -0.134 -30.925  1.00  0.00     0.132 C 
BRANCH  16  17
HETATM   17  C   UNL     1      -3.043   0.846 -31.388  1.00  0.00     0.020 C 
BRANCH  17  18
HETATM   18  C   UNL     1      -3.400   2.318 -31.191  1.00  0.00     0.001 C 
BRANCH  18  19
HETATM   19  C   UNL     1      -3.651   3.001 -32.538  1.00  0.00    -0.004 C 
HETATM   20  C   UNL     1      -2.671   4.136 -32.783  1.00  0.00     0.005 C 
ENDBRANCH  18  19
ENDBRANCH  17  18
ENDBRANCH  16  17
ENDBRANCH   7  16
BRANCH  12  21
HETATM   21  O   UNL     1      -7.086  -2.258 -35.287  1.00  0.00    -0.359 OA
HETATM   22  H   UNL     1      -8.008  -1.935 -35.322  1.00  0.00     0.218 HD
ENDBRANCH  12  21
ENDBRANCH   1   5
BRANCH   2  23
HETATM   23  N   UNL     1     -10.074   1.011 -33.181  1.00  0.00    -0.176 NA
HETATM   24  C   UNL     1     -10.129   2.297 -33.000  1.00  0.00     0.069 C 
HETATM   25  C   UNL     1     -11.480   2.943 -33.231  1.00  0.00     0.073 C 
BRANCH  24  26
HETATM   26  C   UNL     1      -9.012   3.210 -32.608  1.00  0.00     0.092 A 
HETATM   27  C   UNL     1      -8.472   4.186 -33.599  1.00  0.00     0.261 A 
HETATM   28  O   UNL     1      -8.936   4.282 -34.731  1.00  0.00    -0.267 OA
HETATM   29  N   UNL     1      -7.440   4.986 -33.196  1.00  0.00    -0.322 N 
HETATM   30  C   UNL     1      -6.882   4.945 -31.916  1.00  0.00     0.048 A 
HETATM   31  H   UNL     1      -7.095   5.646 -33.883  1.00  0.00     0.169 HD
HETATM   32  C   UNL     1      -7.371   4.023 -30.980  1.00  0.00     0.025 A 
HETATM   33  C   UNL     1      -5.855   5.832 -31.588  1.00  0.00     0.030 A 
HETATM   34  C   UNL     1      -6.812   4.013 -29.696  1.00  0.00     0.016 A 
HETATM   35  C   UNL     1      -8.460   3.113 -31.383  1.00  0.00     0.096 A 
HETATM   36  C   UNL     1      -5.789   4.903 -29.360  1.00  0.00     0.001 A 
HETATM   37  C   UNL     1      -5.309   5.809 -30.305  1.00  0.00     0.002 A 
BRANCH  35  38
HETATM   38  O   UNL     1      -8.866   2.218 -30.409  1.00  0.00    -0.359 OA
HETATM   39  H   UNL     1      -8.820   1.300 -30.747  1.00  0.00     0.218 HD
ENDBRANCH  35  38
ENDBRANCH  24  26
ENDBRANCH   2  23
TORSDOF 9
ENDMDL
MODEL 10
REMARK VINA RESULT:      -7.8      3.017      5.643
REMARK  9 active torsions:
REMARK  status: ('A' for Active; 'I' for Inactive)
REMARK    1  A    between atoms: C_2  and  C_3 
REMARK    2  A    between atoms: C_3  and  C_4 
REMARK    3  A    between atoms: C_4  and  C_5 
REMARK    4  A    between atoms: C_5  and  N_6 
REMARK    5  A    between atoms: C_9  and  C_10 
REMARK       I    between atoms: C_10  and  N_11 
REMARK    6  A    between atoms: N_11  and  N_12 
REMARK    7  A    between atoms: C_13  and  C_14 
REMARK    8  A    between atoms: C_24  and  O_25 
REMARK    9  A    between atoms: C_28  and  O_29 
ROOT
HETATM    1  C   UNL     1      -2.517   4.172 -32.900  1.00  0.00     0.280 C 
HETATM    2  N   UNL     1      -1.968   4.452 -31.655  1.00  0.00    -0.242 N 
HETATM    3  O   UNL     1      -2.039   4.467 -33.987  1.00  0.00    -0.266 OA
HETATM    4  H   UNL     1      -2.499   4.245 -30.814  1.00  0.00     0.192 HD
ENDROOT
BRANCH   1   5
HETATM    5  C   UNL     1      -3.842   3.524 -32.785  1.00  0.00     0.135 A 
HETATM    6  C   UNL     1      -3.979   2.305 -31.954  1.00  0.00     0.266 A 
HETATM    7  N   UNL     1      -5.250   1.741 -31.831  1.00  0.00    -0.313 N 
HETATM    8  O   UNL     1      -2.991   1.852 -31.378  1.00  0.00    -0.267 OA
HETATM    9  C   UNL     1      -6.401   2.337 -32.443  1.00  0.00     0.050 A 
HETATM   10  C   UNL     1      -6.234   3.491 -33.235  1.00  0.00     0.025 A 
HETATM   11  C   UNL     1      -7.698   1.822 -32.276  1.00  0.00     0.031 A 
HETATM   12  C   UNL     1      -4.895   4.069 -33.413  1.00  0.00     0.099 A 
HETATM   13  C   UNL     1      -7.355   4.084 -33.846  1.00  0.00     0.016 A 
HETATM   14  C   UNL     1      -8.631   3.553 -33.676  1.00  0.00     0.001 A 
HETATM   15  C   UNL     1      -8.801   2.424 -32.888  1.00  0.00     0.002 A 
BRANCH   7  16
HETATM   16  C   UNL     1      -5.342   0.502 -31.055  1.00  0.00     0.132 C 
BRANCH  16  17
HETATM   17  C   UNL     1      -5.674  -0.743 -31.889  1.00  0.00     0.020 C 
BRANCH  17  18
HETATM   18  C   UNL     1      -4.729  -0.980 -33.066  1.00  0.00     0.001 C 
BRANCH  18  19
HETATM   19  C   UNL     1      -5.461  -1.668 -34.221  1.00  0.00    -0.004 C 
HETATM   20  C   UNL     1      -6.847  -1.082 -34.436  1.00  0.00     0.005 C 
ENDBRANCH  18  19
ENDBRANCH  17  18
ENDBRANCH  16  17
ENDBRANCH   7  16
BRANCH  12  21
HETATM   21  O   UNL     1      -4.830   5.189 -34.225  1.00  0.00    -0.359 OA
HETATM   22  H   UNL     1      -4.201   5.838 -33.855  1.00  0.00     0.218 HD
ENDBRANCH  12  21
ENDBRANCH   1   5
BRANCH   2  23
HETATM   23  N   UNL     1      -0.726   5.007 -31.570  1.00  0.00    -0.176 NA
HETATM   24  C   UNL     1      -0.585   6.237 -31.175  1.00  0.00     0.069 C 
HETATM   25  C   UNL     1       0.834   6.768 -31.151  1.00  0.00     0.073 C 
BRANCH  24  26
HETATM   26  C   UNL     1      -1.656   7.178 -30.725  1.00  0.00     0.092 A 
HETATM   27  C   UNL     1      -2.230   8.161 -31.690  1.00  0.00     0.261 A 
HETATM   28  O   UNL     1      -1.866   8.205 -32.861  1.00  0.00    -0.267 OA
HETATM   29  N   UNL     1      -3.195   9.010 -31.224  1.00  0.00    -0.322 N 
HETATM   30  C   UNL     1      -3.672   8.995 -29.911  1.00  0.00     0.048 A 
HETATM   31  H   UNL     1      -3.575   9.662 -31.899  1.00  0.00     0.169 HD
HETATM   32  C   UNL     1      -3.130   8.087 -28.992  1.00  0.00     0.025 A 
HETATM   33  C   UNL     1      -4.688   9.878 -29.542  1.00  0.00     0.030 A 
HETATM   34  C   UNL     1      -3.637   8.075 -27.686  1.00  0.00     0.016 A 
HETATM   35  C   UNL     1      -2.060   7.176 -29.440  1.00  0.00     0.096 A 
HETATM   36  C   UNL     1      -4.659   8.951 -27.313  1.00  0.00     0.001 A 
HETATM   37  C   UNL     1      -5.182   9.853 -28.239  1.00  0.00     0.002 A 
BRANCH  35  38
HETATM   38  O   UNL     1      -1.564   6.330 -28.464  1.00  0.00    -0.359 OA
HETATM   39  H   UNL     1      -1.450   5.425 -28.821  1.00  0.00     0.218 HD
ENDBRANCH  35  38
ENDBRANCH  24  26
ENDBRANCH   2  23
TORSDOF 9
ENDMDL
