MODEL 1
REMARK VINA RESULT:      -7.8      0.000      0.000
REMARK  6 active torsions:
REMARK  status: ('A' for Active; 'I' for Inactive)
REMARK    1  A    between atoms: C_2  and  C_3 
REMARK    2  A    between atoms: C_3  and  O_4 
REMARK    3  A    between atoms: O_4  and  C_5 
REMARK    4  A    between atoms: C_7  and  N_8 
REMARK       I    between atoms: N_8  and  C_9 
REMARK       I    between atoms: C_9  and  N_10 
REMARK    5  A    between atoms: N_10  and  C_11 
REMARK    6  A    between atoms: C_11  and  C_12 
ROOT
HETATM    1  N   UNL     1      -7.101   0.575 -32.244  1.00  0.00    -0.309 N 
HETATM    2  C   UNL     1      -7.558   1.305 -33.318  1.00  0.00     0.320 C 
HETATM    3  N   UNL     1      -8.904   1.567 -33.186  1.00  0.00    -0.339 N 
HETATM    4  O   UNL     1      -6.917   1.637 -34.305  1.00  0.00    -0.247 OA
HETATM    5  H   UNL     1      -7.819   0.192 -31.649  1.00  0.00     0.170 HD
HETATM    6  H   UNL     1      -9.280   1.638 -32.253  1.00  0.00     0.164 HD
ENDROOT
BRANCH   1   7
HETATM    7  C   UNL     1      -5.801   0.065 -32.054  1.00  0.00     0.039 A 
HETATM    8  C   UNL     1      -5.466  -1.101 -32.750  1.00  0.00     0.066 A 
HETATM    9  C   UNL     1      -4.179  -1.643 -32.669  1.00  0.00     0.070 A 
HETATM   10  C   UNL     1      -3.234  -1.049 -31.835  1.00  0.00     0.037 A 
HETATM   11  C   UNL     1      -3.570   0.100 -31.116  1.00  0.00     0.005 A 
HETATM   12  C   UNL     1      -4.846   0.660 -31.230  1.00  0.00     0.030 A 
BRANCH   9  13
HETATM   13  O   UNL     1      -3.977  -2.751 -33.444  1.00  0.00    -0.351 OA
BRANCH  13  14
HETATM   14  C   UNL     1      -4.627  -2.766 -34.716  1.00  0.00     0.179 C 
BRANCH  14  15
HETATM   15  C   UNL     1      -5.257  -4.148 -34.956  1.00  0.00     0.002 C 
HETATM   16  C   UNL     1      -6.773  -4.106 -34.742  1.00  0.00     0.011 C 
HETATM   17  C   UNL     1      -4.632  -5.213 -34.055  1.00  0.00     0.011 C 
ENDBRANCH  14  15
ENDBRANCH  13  14
ENDBRANCH   9  13
ENDBRANCH   1   7
BRANCH   3  18
HETATM   18  C   UNL     1      -9.677   2.148 -34.264  1.00  0.00     0.164 C 
BRANCH  18  19
HETATM   19  C   UNL     1     -11.115   1.697 -34.256  1.00  0.00    -0.023 A 
HETATM   20  C   UNL     1     -12.039   2.353 -35.068  1.00  0.00     0.127 A 
HETATM   21  N   UNL     1     -13.346   2.020 -35.166  1.00  0.00    -0.248 NA
HETATM   22  C   UNL     1     -13.751   0.969 -34.426  1.00  0.00     0.125 A 
HETATM   23 CL   UNL     1     -15.412   0.575 -34.587  1.00  0.00    -0.063 Cl
HETATM   24  C   UNL     1     -12.927   0.236 -33.594  1.00  0.00     0.045 A 
HETATM   25  C   UNL     1     -11.586   0.606 -33.515  1.00  0.00     0.013 A 
ENDBRANCH  18  19
ENDBRANCH   3  18
TORSDOF 6
ENDMDL
MODEL 2
REMARK VINA RESULT:      -7.6      2.114      2.594
REMARK  6 active torsions:
REMARK  status: ('A' for Active; 'I' for Inactive)
REMARK    1  A    between atoms: C_2  and  C_3 
REMARK    2  A    between atoms: C_3  and  O_4 
REMARK    3  A    between atoms: O_4  and  C_5 
REMARK    4  A    between atoms: C_7  and  N_8 
REMARK       I    between atoms: N_8  and  C_9 
REMARK       I    between atoms: C_9  and  N_10 
REMARK    5  A    between atoms: N_10  and  C_11 
REMARK    6  A    between atoms: C_11  and  C_12 
ROOT
HETATM    1  N   UNL     1      -9.339   0.364 -32.312  1.00  0.00    -0.309 N 
HETATM    2  C   UNL     1     -10.037   1.156 -33.197  1.00  0.00     0.320 C 
HETATM    3  N   UNL     1     -11.382   0.862 -33.150  1.00  0.00    -0.339 N 
HETATM    4  O   UNL     1      -9.567   1.967 -33.982  1.00  0.00    -0.247 OA
HETATM    5  H   UNL     1      -9.859  -0.406 -31.924  1.00  0.00     0.170 HD
HETATM    6  H   UNL     1     -11.758   0.519 -32.280  1.00  0.00     0.164 HD
ENDROOT
BRANCH   1   7
HETATM    7  C   UNL     1      -7.944   0.329 -32.120  1.00  0.00     0.039 A 
HETATM    8  C   UNL     1      -7.208  -0.522 -32.951  1.00  0.00     0.066 A 
HETATM    9  C   UNL     1      -5.812  -0.576 -32.873  1.00  0.00     0.070 A 
HETATM   10  C   UNL     1      -5.148   0.184 -31.913  1.00  0.00     0.037 A 
HETATM   11  C   UNL     1      -5.878   1.016 -31.062  1.00  0.00     0.005 A 
HETATM   12  C   UNL     1      -7.270   1.095 -31.170  1.00  0.00     0.030 A 
BRANCH   9  13
HETATM   13  O   UNL     1      -5.222  -1.410 -33.782  1.00  0.00    -0.351 OA
BRANCH  13  14
HETATM   14  C   UNL     1      -6.085  -2.009 -34.751  1.00  0.00     0.179 C 
BRANCH  14  15
HETATM   15  C   UNL     1      -5.520  -3.378 -35.165  1.00  0.00     0.002 C 
HETATM   16  C   UNL     1      -6.610  -4.453 -35.143  1.00  0.00     0.011 C 
HETATM   17  C   UNL     1      -4.355  -3.799 -34.268  1.00  0.00     0.011 C 
ENDBRANCH  14  15
ENDBRANCH  13  14
ENDBRANCH   9  13
ENDBRANCH   1   7
BRANCH   3  18
HETATM   18  C   UNL     1     -12.315   1.407 -34.114  1.00  0.00     0.164 C 
BRANCH  18  19
HETATM   19  C   UNL     1     -13.618   1.829 -33.486  1.00  0.00    -0.023 A 
HETATM   20  C   UNL     1     -14.785   1.138 -33.809  1.00  0.00     0.127 A 
HETATM   21  N   UNL     1     -16.004   1.406 -33.288  1.00  0.00    -0.248 NA
HETATM   22  C   UNL     1     -16.061   2.407 -32.388  1.00  0.00     0.125 A 
HETATM   23 CL   UNL     1     -17.623   2.708 -31.746  1.00  0.00    -0.063 Cl
HETATM   24  C   UNL     1     -14.972   3.155 -31.982  1.00  0.00     0.045 A 
HETATM   25  C   UNL     1     -13.731   2.853 -32.538  1.00  0.00     0.013 A 
ENDBRANCH  18  19
ENDBRANCH   3  18
TORSDOF 6
ENDMDL
MODEL 3
REMARK VINA RESULT:      -7.6      5.649      8.487
REMARK  6 active torsions:
REMARK  status: ('A' for Active; 'I' for Inactive)
REMARK    1  A    between atoms: C_2  and  C_3 
REMARK    2  A    between atoms: C_3  and  O_4 
REMARK    3  A    between atoms: O_4  and  C_5 
REMARK    4  A    between atoms: C_7  and  N_8 
REMARK       I    between atoms: N_8  and  C_9 
REMARK       I    between atoms: C_9  and  N_10 
REMARK    5  A    between atoms: N_10  and  C_11 
REMARK    6  A    between atoms: C_11  and  C_12 
ROOT
HETATM    1  N   UNL     1      -3.012   3.211 -32.661  1.00  0.00    -0.309 N 
HETATM    2  C   UNL     1      -4.356   2.912 -32.627  1.00  0.00     0.320 C 
HETATM    3  N   UNL     1      -4.545   1.574 -32.360  1.00  0.00    -0.339 N 
HETATM    4  O   UNL     1      -5.283   3.674 -32.863  1.00  0.00    -0.247 OA
HETATM    5  H   UNL     1      -2.396   2.415 -32.680  1.00  0.00     0.170 HD
HETATM    6  H   UNL     1      -3.846   1.101 -31.808  1.00  0.00     0.164 HD
ENDROOT
BRANCH   1   7
HETATM    7  C   UNL     1      -2.426   4.456 -32.965  1.00  0.00     0.039 A 
HETATM    8  C   UNL     1      -2.373   5.404 -31.937  1.00  0.00     0.066 A 
HETATM    9  C   UNL     1      -1.755   6.643 -32.131  1.00  0.00     0.070 A 
HETATM   10  C   UNL     1      -1.239   6.965 -33.384  1.00  0.00     0.037 A 
HETATM   11  C   UNL     1      -1.313   6.035 -34.423  1.00  0.00     0.005 A 
HETATM   12  C   UNL     1      -1.897   4.782 -34.213  1.00  0.00     0.030 A 
BRANCH   9  13
HETATM   13  O   UNL     1      -1.728   7.446 -31.025  1.00  0.00    -0.351 OA
BRANCH  13  14
HETATM   14  C   UNL     1      -1.324   6.830 -29.800  1.00  0.00     0.179 C 
BRANCH  14  15
HETATM   15  C   UNL     1       0.211   6.748 -29.749  1.00  0.00     0.002 C 
HETATM   16  C   UNL     1       0.676   5.314 -29.482  1.00  0.00     0.011 C 
HETATM   17  C   UNL     1       0.789   7.689 -28.692  1.00  0.00     0.011 C 
ENDBRANCH  14  15
ENDBRANCH  13  14
ENDBRANCH   9  13
ENDBRANCH   1   7
BRANCH   3  18
HETATM   18  C   UNL     1      -5.850   0.953 -32.460  1.00  0.00     0.164 C 
BRANCH  18  19
HETATM   19  C   UNL     1      -5.807  -0.379 -33.164  1.00  0.00    -0.023 A 
HETATM   20  C   UNL     1      -7.001  -0.972 -33.570  1.00  0.00     0.127 A 
HETATM   21  N   UNL     1      -7.086  -2.148 -34.233  1.00  0.00    -0.248 NA
HETATM   22  C   UNL     1      -5.919  -2.758 -34.518  1.00  0.00     0.125 A 
HETATM   23 CL   UNL     1      -6.071  -4.240 -35.367  1.00  0.00    -0.063 Cl
HETATM   24  C   UNL     1      -4.675  -2.262 -34.177  1.00  0.00     0.045 A 
HETATM   25  C   UNL     1      -4.623  -1.049 -33.494  1.00  0.00     0.013 A 
ENDBRANCH  18  19
ENDBRANCH   3  18
TORSDOF 6
ENDMDL
MODEL 4
REMARK VINA RESULT:      -7.3      6.229      8.996
REMARK  6 active torsions:
REMARK  status: ('A' for Active; 'I' for Inactive)
REMARK    1  A    between atoms: C_2  and  C_3 
REMARK    2  A    between atoms: C_3  and  O_4 
REMARK    3  A    between atoms: O_4  and  C_5 
REMARK    4  A    between atoms: C_7  and  N_8 
REMARK       I    between atoms: N_8  and  C_9 
REMARK       I    between atoms: C_9  and  N_10 
REMARK    5  A    between atoms: N_10  and  C_11 
REMARK    6  A    between atoms: C_11  and  C_12 
ROOT
HETATM    1  N   UNL     1      -4.662   3.556 -31.314  1.00  0.00    -0.309 N 
HETATM    2  C   UNL     1      -3.316   3.828 -31.424  1.00  0.00     0.320 C 
HETATM    3  N   UNL     1      -3.107   5.187 -31.523  1.00  0.00    -0.339 N 
HETATM    4  O   UNL     1      -2.407   3.015 -31.499  1.00  0.00    -0.247 OA
HETATM    5  H   UNL     1      -5.274   4.331 -31.509  1.00  0.00     0.170 HD
HETATM    6  H   UNL     1      -3.774   5.799 -31.079  1.00  0.00     0.164 HD
ENDROOT
BRANCH   1   7
HETATM    7  C   UNL     1      -5.269   2.285 -31.256  1.00  0.00     0.039 A 
HETATM    8  C   UNL     1      -5.502   1.634 -32.473  1.00  0.00     0.066 A 
HETATM    9  C   UNL     1      -6.044   0.346 -32.508  1.00  0.00     0.070 A 
HETATM   10  C   UNL     1      -6.415  -0.276 -31.318  1.00  0.00     0.037 A 
HETATM   11  C   UNL     1      -6.211   0.378 -30.101  1.00  0.00     0.005 A 
HETATM   12  C   UNL     1      -5.633   1.650 -30.069  1.00  0.00     0.030 A 
BRANCH   9  13
HETATM   13  O   UNL     1      -6.165  -0.188 -33.761  1.00  0.00    -0.351 OA
BRANCH  13  14
HETATM   14  C   UNL     1      -6.850  -1.438 -33.858  1.00  0.00     0.179 C 
BRANCH  14  15
HETATM   15  C   UNL     1      -6.046  -2.396 -34.752  1.00  0.00     0.002 C 
HETATM   16  C   UNL     1      -6.716  -3.770 -34.829  1.00  0.00     0.011 C 
HETATM   17  C   UNL     1      -4.605  -2.545 -34.263  1.00  0.00     0.011 C 
ENDBRANCH  14  15
ENDBRANCH  13  14
ENDBRANCH   9  13
ENDBRANCH   1   7
BRANCH   3  18
HETATM   18  C   UNL     1      -1.806   5.736 -31.844  1.00  0.00     0.164 C 
BRANCH  18  19
HETATM   19  C   UNL     1      -0.979   6.025 -30.618  1.00  0.00    -0.023 A 
HETATM   20  C   UNL     1      -1.240   7.177 -29.877  1.00  0.00     0.127 A 
HETATM   21  N   UNL     1      -0.585   7.525 -28.746  1.00  0.00    -0.248 NA
HETATM   22  C   UNL     1       0.371   6.675 -28.324  1.00  0.00     0.125 A 
HETATM   23 CL   UNL     1       1.169   7.150 -26.882  1.00  0.00    -0.063 Cl
HETATM   24  C   UNL     1       0.710   5.500 -28.967  1.00  0.00     0.045 A 
HETATM   25  C   UNL     1       0.017   5.170 -30.130  1.00  0.00     0.013 A 
ENDBRANCH  18  19
ENDBRANCH   3  18
TORSDOF 6
ENDMDL
MODEL 5
REMARK VINA RESULT:      -7.3      1.630      3.419
REMARK  6 active torsions:
REMARK  status: ('A' for Active; 'I' for Inactive)
REMARK    1  A    between atoms: C_2  and  C_3 
REMARK    2  A    between atoms: C_3  and  O_4 
REMARK    3  A    between atoms: O_4  and  C_5 
REMARK    4  A    between atoms: C_7  and  N_8 
REMARK       I    between atoms: N_8  and  C_9 
REMARK       I    between atoms: C_9  and  N_10 
REMARK    5  A    between atoms: N_10  and  C_11 
REMARK    6  A    between atoms: C_11  and  C_12 
ROOT
HETATM    1  N   UNL     1      -7.766   0.077 -34.974  1.00  0.00    -0.309 N 
HETATM    2  C   UNL     1      -8.498   0.850 -34.101  1.00  0.00     0.320 C 
HETATM    3  N   UNL     1      -9.341   1.692 -34.794  1.00  0.00    -0.339 N 
HETATM    4  O   UNL     1      -8.400   0.873 -32.883  1.00  0.00    -0.247 OA
HETATM    5  H   UNL     1      -7.808   0.362 -35.939  1.00  0.00     0.170 HD
HETATM    6  H   UNL     1      -9.674   1.387 -35.696  1.00  0.00     0.164 HD
ENDROOT
BRANCH   1   7
HETATM    7  C   UNL     1      -6.759  -0.853 -34.646  1.00  0.00     0.039 A 
HETATM    8  C   UNL     1      -5.562  -0.341 -34.132  1.00  0.00     0.066 A 
HETATM    9  C   UNL     1      -4.532  -1.193 -33.722  1.00  0.00     0.070 A 
HETATM   10  C   UNL     1      -4.673  -2.569 -33.885  1.00  0.00     0.037 A 
HETATM   11  C   UNL     1      -5.853  -3.086 -34.422  1.00  0.00     0.005 A 
HETATM   12  C   UNL     1      -6.896  -2.232 -34.794  1.00  0.00     0.030 A 
BRANCH   9  13
HETATM   13  O   UNL     1      -3.445  -0.558 -33.189  1.00  0.00    -0.351 OA
BRANCH  13  14
HETATM   14  C   UNL     1      -3.176  -0.804 -31.808  1.00  0.00     0.179 C 
BRANCH  14  15
HETATM   15  C   UNL     1      -3.553   0.437 -30.982  1.00  0.00     0.002 C 
HETATM   16  C   UNL     1      -4.981   0.328 -30.443  1.00  0.00     0.011 C 
HETATM   17  C   UNL     1      -3.399   1.721 -31.797  1.00  0.00     0.011 C 
ENDBRANCH  14  15
ENDBRANCH  13  14
ENDBRANCH   9  13
ENDBRANCH   1   7
BRANCH   3  18
HETATM   18  C   UNL     1     -10.080   2.746 -34.130  1.00  0.00     0.164 C 
BRANCH  18  19
HETATM   19  C   UNL     1     -11.522   2.381 -33.890  1.00  0.00    -0.023 A 
HETATM   20  C   UNL     1     -12.256   3.094 -32.943  1.00  0.00     0.127 A 
HETATM   21  N   UNL     1     -13.561   2.877 -32.662  1.00  0.00    -0.248 NA
HETATM   22  C   UNL     1     -14.170   1.907 -33.370  1.00  0.00     0.125 A 
HETATM   23 CL   UNL     1     -15.825   1.671 -32.990  1.00  0.00    -0.063 Cl
HETATM   24  C   UNL     1     -13.550   1.142 -34.340  1.00  0.00     0.045 A 
HETATM   25  C   UNL     1     -12.205   1.391 -34.605  1.00  0.00     0.013 A 
ENDBRANCH  18  19
ENDBRANCH   3  18
TORSDOF 6
ENDMDL
MODEL 6
REMARK VINA RESULT:      -7.2      4.949      7.920
REMARK  6 active torsions:
REMARK  status: ('A' for Active; 'I' for Inactive)
REMARK    1  A    between atoms: C_2  and  C_3 
REMARK    2  A    between atoms: C_3  and  O_4 
REMARK    3  A    between atoms: O_4  and  C_5 
REMARK    4  A    between atoms: C_7  and  N_8 
REMARK       I    between atoms: N_8  and  C_9 
REMARK       I    between atoms: C_9  and  N_10 
REMARK    5  A    between atoms: N_10  and  C_11 
REMARK    6  A    between atoms: C_11  and  C_12 
ROOT
HETATM    1  N   UNL     1      -5.698   2.403 -32.177  1.00  0.00    -0.309 N 
HETATM    2  C   UNL     1      -6.251   1.756 -33.259  1.00  0.00     0.320 C 
HETATM    3  N   UNL     1      -6.847   0.578 -32.862  1.00  0.00    -0.339 N 
HETATM    4  O   UNL     1      -6.188   2.100 -34.430  1.00  0.00    -0.247 OA
HETATM    5  H   UNL     1      -5.641   1.857 -31.332  1.00  0.00     0.170 HD
HETATM    6  H   UNL     1      -7.215   0.530 -31.925  1.00  0.00     0.164 HD
ENDROOT
BRANCH   1   7
HETATM    7  C   UNL     1      -4.953   3.599 -32.192  1.00  0.00     0.039 A 
HETATM    8  C   UNL     1      -3.613   3.520 -31.797  1.00  0.00     0.066 A 
HETATM    9  C   UNL     1      -2.782   4.644 -31.840  1.00  0.00     0.070 A 
HETATM   10  C   UNL     1      -3.310   5.875 -32.222  1.00  0.00     0.037 A 
HETATM   11  C   UNL     1      -4.653   5.967 -32.592  1.00  0.00     0.005 A 
HETATM   12  C   UNL     1      -5.470   4.833 -32.585  1.00  0.00     0.030 A 
BRANCH   9  13
HETATM   13  O   UNL     1      -1.484   4.408 -31.479  1.00  0.00    -0.351 OA
BRANCH  13  14
HETATM   14  C   UNL     1      -0.497   5.269 -32.050  1.00  0.00     0.179 C 
BRANCH  14  15
HETATM   15  C   UNL     1       0.334   5.913 -30.927  1.00  0.00     0.002 C 
HETATM   16  C   UNL     1       0.675   4.891 -29.839  1.00  0.00     0.011 C 
HETATM   17  C   UNL     1      -0.388   7.110 -30.310  1.00  0.00     0.011 C 
ENDBRANCH  14  15
ENDBRANCH  13  14
ENDBRANCH   9  13
ENDBRANCH   1   7
BRANCH   3  18
HETATM   18  C   UNL     1      -7.333  -0.391 -33.822  1.00  0.00     0.164 C 
BRANCH  18  19
HETATM   19  C   UNL     1      -6.397  -1.560 -33.992  1.00  0.00    -0.023 A 
HETATM   20  C   UNL     1      -5.123  -1.499 -33.430  1.00  0.00     0.127 A 
HETATM   21  N   UNL     1      -4.209  -2.494 -33.492  1.00  0.00    -0.248 NA
HETATM   22  C   UNL     1      -4.590  -3.614 -34.137  1.00  0.00     0.125 A 
HETATM   23 CL   UNL     1      -3.406  -4.854 -34.184  1.00  0.00    -0.063 Cl
HETATM   24  C   UNL     1      -5.829  -3.795 -34.723  1.00  0.00     0.045 A 
HETATM   25  C   UNL     1      -6.746  -2.750 -34.642  1.00  0.00     0.013 A 
ENDBRANCH  18  19
ENDBRANCH   3  18
TORSDOF 6
ENDMDL
MODEL 7
REMARK VINA RESULT:      -6.9      6.536      9.272
REMARK  6 active torsions:
REMARK  status: ('A' for Active; 'I' for Inactive)
REMARK    1  A    between atoms: C_2  and  C_3 
REMARK    2  A    between atoms: C_3  and  O_4 
REMARK    3  A    between atoms: O_4  and  C_5 
REMARK    4  A    between atoms: C_7  and  N_8 
REMARK       I    between atoms: N_8  and  C_9 
REMARK       I    between atoms: C_9  and  N_10 
REMARK    5  A    between atoms: N_10  and  C_11 
REMARK    6  A    between atoms: C_11  and  C_12 
ROOT
HETATM    1  N   UNL     1      -3.770   3.518 -31.602  1.00  0.00    -0.309 N 
HETATM    2  C   UNL     1      -2.554   4.027 -32.002  1.00  0.00     0.320 C 
HETATM    3  N   UNL     1      -1.869   4.541 -30.923  1.00  0.00    -0.339 N 
HETATM    4  O   UNL     1      -2.130   4.099 -33.146  1.00  0.00    -0.247 OA
HETATM    5  H   UNL     1      -4.049   3.759 -30.664  1.00  0.00     0.170 HD
HETATM    6  H   UNL     1      -2.040   4.131 -30.017  1.00  0.00     0.164 HD
ENDROOT
BRANCH   1   7
HETATM    7  C   UNL     1      -4.773   2.968 -32.425  1.00  0.00     0.039 A 
HETATM    8  C   UNL     1      -5.034   1.600 -32.283  1.00  0.00     0.066 A 
HETATM    9  C   UNL     1      -6.053   0.982 -33.015  1.00  0.00     0.070 A 
HETATM   10  C   UNL     1      -6.779   1.724 -33.943  1.00  0.00     0.037 A 
HETATM   11  C   UNL     1      -6.506   3.083 -34.109  1.00  0.00     0.005 A 
HETATM   12  C   UNL     1      -5.513   3.705 -33.348  1.00  0.00     0.030 A 
BRANCH   9  13
HETATM   13  O   UNL     1      -6.232  -0.344 -32.735  1.00  0.00    -0.351 OA
BRANCH  13  14
HETATM   14  C   UNL     1      -5.123  -1.206 -32.996  1.00  0.00     0.179 C 
BRANCH  14  15
HETATM   15  C   UNL     1      -5.351  -1.949 -34.324  1.00  0.00     0.002 C 
HETATM   16  C   UNL     1      -6.818  -2.356 -34.481  1.00  0.00     0.011 C 
HETATM   17  C   UNL     1      -4.452  -3.180 -34.440  1.00  0.00     0.011 C 
ENDBRANCH  14  15
ENDBRANCH  13  14
ENDBRANCH   9  13
ENDBRANCH   1   7
BRANCH   3  18
HETATM   18  C   UNL     1      -0.653   5.310 -31.088  1.00  0.00     0.164 C 
BRANCH  18  19
HETATM   19  C   UNL     1      -0.588   6.499 -30.164  1.00  0.00    -0.023 A 
HETATM   20  C   UNL     1      -1.748   7.229 -29.911  1.00  0.00     0.127 A 
HETATM   21  N   UNL     1      -1.818   8.294 -29.081  1.00  0.00    -0.248 NA
HETATM   22  C   UNL     1      -0.674   8.641 -28.458  1.00  0.00     0.125 A 
HETATM   23 CL   UNL     1      -0.809   9.990 -27.407  1.00  0.00    -0.063 Cl
HETATM   24  C   UNL     1       0.532   7.988 -28.621  1.00  0.00     0.045 A 
HETATM   25  C   UNL     1       0.570   6.895 -29.484  1.00  0.00     0.013 A 
ENDBRANCH  18  19
ENDBRANCH   3  18
TORSDOF 6
ENDMDL
MODEL 8
REMARK VINA RESULT:      -6.8      6.126      9.108
REMARK  6 active torsions:
REMARK  status: ('A' for Active; 'I' for Inactive)
REMARK    1  A    between atoms: C_2  and  C_3 
REMARK    2  A    between atoms: C_3  and  O_4 
REMARK    3  A    between atoms: O_4  and  C_5 
REMARK    4  A    between atoms: C_7  and  N_8 
REMARK       I    between atoms: N_8  and  C_9 
REMARK       I    between atoms: C_9  and  N_10 
REMARK    5  A    between atoms: N_10  and  C_11 
REMARK    6  A    between atoms: C_11  and  C_12 
ROOT
HETATM    1  N   UNL     1      -3.691   4.046 -33.119  1.00  0.00    -0.309 N 
HETATM    2  C   UNL     1      -3.568   2.892 -32.377  1.00  0.00     0.320 C 
HETATM    3  N   UNL     1      -4.546   1.988 -32.728  1.00  0.00    -0.339 N 
HETATM    4  O   UNL     1      -2.767   2.680 -31.478  1.00  0.00    -0.247 OA
HETATM    5  H   UNL     1      -4.548   4.132 -33.640  1.00  0.00     0.170 HD
HETATM    6  H   UNL     1      -4.899   2.019 -33.673  1.00  0.00     0.164 HD
ENDROOT
BRANCH   1   7
HETATM    7  C   UNL     1      -2.916   5.218 -33.002  1.00  0.00     0.039 A 
HETATM    8  C   UNL     1      -3.510   6.313 -32.365  1.00  0.00     0.066 A 
HETATM    9  C   UNL     1      -2.795   7.496 -32.150  1.00  0.00     0.070 A 
HETATM   10  C   UNL     1      -1.493   7.608 -32.631  1.00  0.00     0.037 A 
HETATM   11  C   UNL     1      -0.903   6.529 -33.292  1.00  0.00     0.005 A 
HETATM   12  C   UNL     1      -1.608   5.335 -33.470  1.00  0.00     0.030 A 
BRANCH   9  13
HETATM   13  O   UNL     1      -3.482   8.461 -31.468  1.00  0.00    -0.351 OA
BRANCH  13  14
HETATM   14  C   UNL     1      -3.577   8.295 -30.052  1.00  0.00     0.179 C 
BRANCH  14  15
HETATM   15  C   UNL     1      -2.678   9.328 -29.352  1.00  0.00     0.002 C 
HETATM   16  C   UNL     1      -2.549  10.602 -30.190  1.00  0.00     0.011 C 
HETATM   17  C   UNL     1      -1.291   8.755 -29.055  1.00  0.00     0.011 C 
ENDBRANCH  14  15
ENDBRANCH  13  14
ENDBRANCH   9  13
ENDBRANCH   1   7
BRANCH   3  18
HETATM   18  C   UNL     1      -4.768   0.773 -31.971  1.00  0.00     0.164 C 
BRANCH  18  19
HETATM   19  C   UNL     1      -5.248  -0.367 -32.832  1.00  0.00    -0.023 A 
HETATM   20  C   UNL     1      -4.355  -1.380 -33.178  1.00  0.00     0.127 A 
HETATM   21  N   UNL     1      -4.677  -2.465 -33.919  1.00  0.00    -0.248 NA
HETATM   22  C   UNL     1      -5.959  -2.552 -34.325  1.00  0.00     0.125 A 
HETATM   23 CL   UNL     1      -6.326  -3.946 -35.253  1.00  0.00    -0.063 Cl
HETATM   24  C   UNL     1      -6.934  -1.617 -34.034  1.00  0.00     0.045 A 
HETATM   25  C   UNL     1      -6.570  -0.511 -33.269  1.00  0.00     0.013 A 
ENDBRANCH  18  19
ENDBRANCH   3  18
TORSDOF 6
ENDMDL
MODEL 9
REMARK VINA RESULT:      -6.8     14.293     17.159
REMARK  6 active torsions:
REMARK  status: ('A' for Active; 'I' for Inactive)
REMARK    1  A    between atoms: C_2  and  C_3 
REMARK    2  A    between atoms: C_3  and  O_4 
REMARK    3  A    between atoms: O_4  and  C_5 
REMARK    4  A    between atoms: C_7  and  N_8 
REMARK       I    between atoms: N_8  and  C_9 
REMARK       I    between atoms: C_9  and  N_10 
REMARK    5  A    between atoms: N_10  and  C_11 
REMARK    6  A    between atoms: C_11  and  C_12 
ROOT
HETATM    1  N   UNL     1      -3.765 -12.537 -39.374  1.00  0.00    -0.309 N 
HETATM    2  C   UNL     1      -2.925 -13.591 -39.657  1.00  0.00     0.320 C 
HETATM    3  N   UNL     1      -1.612 -13.174 -39.658  1.00  0.00    -0.339 N 
HETATM    4  O   UNL     1      -3.253 -14.734 -39.940  1.00  0.00    -0.247 OA
HETATM    5  H   UNL     1      -3.335 -11.626 -39.403  1.00  0.00     0.170 HD
HETATM    6  H   UNL     1      -1.364 -12.397 -39.065  1.00  0.00     0.164 HD
ENDROOT
BRANCH   1   7
HETATM    7  C   UNL     1      -5.174 -12.556 -39.346  1.00  0.00     0.039 A 
HETATM    8  C   UNL     1      -5.782 -12.916 -38.138  1.00  0.00     0.066 A 
HETATM    9  C   UNL     1      -7.173 -12.903 -38.001  1.00  0.00     0.070 A 
HETATM   10  C   UNL     1      -7.969 -12.588 -39.099  1.00  0.00     0.037 A 
HETATM   11  C   UNL     1      -7.370 -12.254 -40.315  1.00  0.00     0.005 A 
HETATM   12  C   UNL     1      -5.978 -12.230 -40.437  1.00  0.00     0.030 A 
BRANCH   9  13
HETATM   13  O   UNL     1      -7.625 -13.223 -36.750  1.00  0.00    -0.351 OA
BRANCH  13  14
HETATM   14  C   UNL     1      -6.746 -13.999 -35.934  1.00  0.00     0.179 C 
BRANCH  14  15
HETATM   15  C   UNL     1      -6.874 -13.548 -34.469  1.00  0.00     0.002 C 
HETATM   16  C   UNL     1      -5.590 -12.865 -33.990  1.00  0.00     0.011 C 
HETATM   17  C   UNL     1      -7.216 -14.720 -33.549  1.00  0.00     0.011 C 
ENDBRANCH  14  15
ENDBRANCH  13  14
ENDBRANCH   9  13
ENDBRANCH   1   7
BRANCH   3  18
HETATM   18  C   UNL     1      -0.540 -14.034 -40.115  1.00  0.00     0.164 C 
BRANCH  18  19
HETATM   19  C   UNL     1       0.162 -14.739 -38.984  1.00  0.00    -0.023 A 
HETATM   20  C   UNL     1       1.554 -14.816 -38.989  1.00  0.00     0.127 A 
HETATM   21  N   UNL     1       2.293 -15.397 -38.017  1.00  0.00    -0.248 NA
HETATM   22  C   UNL     1       1.611 -15.915 -36.977  1.00  0.00     0.125 A 
HETATM   23 CL   UNL     1       2.586 -16.632 -35.763  1.00  0.00    -0.063 Cl
HETATM   24  C   UNL     1       0.234 -15.888 -36.856  1.00  0.00     0.045 A 
HETATM   25  C   UNL     1      -0.498 -15.283 -37.875  1.00  0.00     0.013 A 
ENDBRANCH  18  19
ENDBRANCH   3  18
TORSDOF 6
ENDMDL
MODEL 10
REMARK VINA RESULT:      -6.6      3.033      4.856
REMARK  6 active torsions:
REMARK  status: ('A' for Active; 'I' for Inactive)
REMARK    1  A    between atoms: C_2  and  C_3 
REMARK    2  A    between atoms: C_3  and  O_4 
REMARK    3  A    between atoms: O_4  and  C_5 
REMARK    4  A    between atoms: C_7  and  N_8 
REMARK       I    between atoms: N_8  and  C_9 
REMARK       I    between atoms: C_9  and  N_10 
REMARK    5  A    between atoms: N_10  and  C_11 
REMARK    6  A    between atoms: C_11  and  C_12 
ROOT
HETATM    1  N   UNL     1      -7.024   0.530 -33.198  1.00  0.00    -0.309 N 
HETATM    2  C   UNL     1      -8.262   0.492 -32.595  1.00  0.00     0.320 C 
HETATM    3  N   UNL     1      -9.247   0.273 -33.533  1.00  0.00    -0.339 N 
HETATM    4  O   UNL     1      -8.508   0.689 -31.414  1.00  0.00    -0.247 OA
HETATM    5  H   UNL     1      -7.037   0.585 -34.204  1.00  0.00     0.170 HD
HETATM    6  H   UNL     1      -9.003  -0.254 -34.358  1.00  0.00     0.164 HD
ENDROOT
BRANCH   1   7
HETATM    7  C   UNL     1      -5.785   0.795 -32.579  1.00  0.00     0.039 A 
HETATM    8  C   UNL     1      -5.353   2.125 -32.563  1.00  0.00     0.066 A 
HETATM    9  C   UNL     1      -4.166   2.489 -31.918  1.00  0.00     0.070 A 
HETATM   10  C   UNL     1      -3.371   1.505 -31.336  1.00  0.00     0.037 A 
HETATM   11  C   UNL     1      -3.783   0.171 -31.371  1.00  0.00     0.005 A 
HETATM   12  C   UNL     1      -4.989  -0.183 -31.984  1.00  0.00     0.030 A 
BRANCH   9  13
HETATM   13  O   UNL     1      -3.897   3.829 -31.935  1.00  0.00    -0.351 OA
BRANCH  13  14
HETATM   14  C   UNL     1      -3.675   4.419 -33.217  1.00  0.00     0.179 C 
BRANCH  14  15
HETATM   15  C   UNL     1      -2.173   4.386 -33.545  1.00  0.00     0.002 C 
HETATM   16  C   UNL     1      -1.347   4.986 -32.404  1.00  0.00     0.011 C 
HETATM   17  C   UNL     1      -1.867   5.118 -34.852  1.00  0.00     0.011 C 
ENDBRANCH  14  15
ENDBRANCH  13  14
ENDBRANCH   9  13
ENDBRANCH   1   7
BRANCH   3  18
HETATM   18  C   UNL     1     -10.653   0.381 -33.201  1.00  0.00     0.164 C 
BRANCH  18  19
HETATM   19  C   UNL     1     -11.310   1.576 -33.841  1.00  0.00    -0.023 A 
HETATM   20  C   UNL     1     -11.098   2.842 -33.298  1.00  0.00     0.127 A 
HETATM   21  N   UNL     1     -11.610   3.988 -33.802  1.00  0.00    -0.248 NA
HETATM   22  C   UNL     1     -12.363   3.868 -34.913  1.00  0.00     0.125 A 
HETATM   23 CL   UNL     1     -12.984   5.345 -35.523  1.00  0.00    -0.063 Cl
HETATM   24  C   UNL     1     -12.633   2.670 -35.547  1.00  0.00     0.045 A 
HETATM   25  C   UNL     1     -12.091   1.508 -35.002  1.00  0.00     0.013 A 
ENDBRANCH  18  19
ENDBRANCH   3  18
TORSDOF 6
ENDMDL
