MODEL 1
REMARK VINA RESULT:      -9.7      0.000      0.000
REMARK  6 active torsions:
REMARK  status: ('A' for Active; 'I' for Inactive)
REMARK    1  A    between atoms: C_9  and  C_10 
REMARK       I    between atoms: C_10  and  N_11 
REMARK    2  A    between atoms: N_11  and  N_12 
REMARK       I    between atoms: N_12  and  C_13 
REMARK       I    between atoms: C_13  and  N_14 
REMARK    3  A    between atoms: N_14  and  C_15 
REMARK    4  A    between atoms: C_15  and  C_16 
REMARK    5  A    between atoms: C_16  and  C_17 
REMARK    6  A    between atoms: C_16  and  C_27 
ROOT
HETATM    1  N   UNL     1      -3.194   4.096 -32.440  1.00  0.00    -0.249 N 
HETATM    2  C   UNL     1      -2.137   4.878 -32.036  1.00  0.00     0.334 C 
HETATM    3  N   UNL     1      -2.474   6.209 -32.018  1.00  0.00    -0.341 N 
HETATM    4  O   UNL     1      -1.031   4.435 -31.750  1.00  0.00    -0.246 OA
HETATM    5  H   UNL     1      -4.143   4.433 -32.319  1.00  0.00     0.192 HD
HETATM    6  H   UNL     1      -3.181   6.473 -32.691  1.00  0.00     0.164 HD
ENDROOT
BRANCH   1   7
HETATM    7  N   UNL     1      -3.032   2.704 -32.460  1.00  0.00    -0.261 N 
HETATM    8  C   UNL     1      -3.826   1.958 -31.612  1.00  0.00     0.291 C 
HETATM    9  O   UNL     1      -4.471   2.428 -30.686  1.00  0.00    -0.264 OA
HETATM   10  H   UNL     1      -2.723   2.289 -33.344  1.00  0.00     0.190 HD
BRANCH   8  11
HETATM   11  C   UNL     1      -3.865   0.466 -31.965  1.00  0.00     0.157 A 
HETATM   12  C   UNL     1      -4.847  -0.080 -32.932  1.00  0.00     0.016 A 
HETATM   13  C   UNL     1      -5.877   0.664 -33.520  1.00  0.00     0.015 A 
HETATM   14  C   UNL     1      -4.718  -1.429 -33.266  1.00  0.00     0.046 A 
HETATM   15  C   UNL     1      -6.735   0.071 -34.453  1.00  0.00     0.001 A 
HETATM   16  C   UNL     1      -6.580  -1.269 -34.801  1.00  0.00     0.001 A 
HETATM   17  C   UNL     1      -5.575  -2.025 -34.202  1.00  0.00     0.018 A 
HETATM   18  C   UNL     1      -3.682  -2.242 -32.608  1.00  0.00     0.272 A 
HETATM   19  O   UNL     1      -3.535  -3.431 -32.869  1.00  0.00    -0.266 OA
HETATM   20  N   UNL     1      -2.906  -1.593 -31.679  1.00  0.00    -0.242 N 
HETATM   21  N   UNL     1      -2.962  -0.269 -31.374  1.00  0.00    -0.166 NA
HETATM   22  H   UNL     1      -2.183  -2.140 -31.218  1.00  0.00     0.192 HD
ENDBRANCH   8  11
ENDBRANCH   1   7
BRANCH   3  23
HETATM   23  C   UNL     1      -1.468   7.220 -31.733  1.00  0.00     0.139 C 
BRANCH  23  24
HETATM   24  C   UNL     1      -1.575   7.893 -30.343  1.00  0.00     0.079 C 
BRANCH  24  25
HETATM   25  C   UNL     1      -0.567   7.375 -29.338  1.00  0.00    -0.020 A 
HETATM   26  C   UNL     1       0.006   8.126 -28.252  1.00  0.00    -0.001 A 
HETATM   27  C   UNL     1       0.887   7.283 -27.574  1.00  0.00     0.042 A 
HETATM   28  C   UNL     1      -0.144   9.448 -27.782  1.00  0.00     0.014 A 
HETATM   29  C   UNL     1       1.624   7.692 -26.456  1.00  0.00     0.030 A 
HETATM   30  N   UNL     1       0.856   6.067 -28.212  1.00  0.00    -0.365 N 
HETATM   31  C   UNL     1       1.455   9.006 -26.012  1.00  0.00     0.002 A 
HETATM   32  C   UNL     1       0.584   9.874 -26.664  1.00  0.00     0.001 A 
HETATM   33  H   UNL     1       1.400   5.262 -27.935  1.00  0.00     0.165 HD
HETATM   34  C   UNL     1      -0.009   6.110 -29.270  1.00  0.00     0.097 A 
ENDBRANCH  24  25
BRANCH  24  35
HETATM   35  C   UNL     1      -2.990   7.964 -29.776  1.00  0.00    -0.007 A 
HETATM   36  S   UNL     1      -4.181   9.050 -30.369  1.00  0.00    -0.106 SA
HETATM   37  C   UNL     1      -5.355   8.486 -29.265  1.00  0.00     0.050 A 
HETATM   38  C   UNL     1      -4.865   7.487 -28.457  1.00  0.00     0.008 A 
HETATM   39  C   UNL     1      -3.506   7.184 -28.752  1.00  0.00     0.016 A 
ENDBRANCH  24  35
ENDBRANCH  23  24
ENDBRANCH   3  23
TORSDOF 6
ENDMDL
MODEL 2
REMARK VINA RESULT:      -9.7      2.627     10.379
REMARK  6 active torsions:
REMARK  status: ('A' for Active; 'I' for Inactive)
REMARK    1  A    between atoms: C_9  and  C_10 
REMARK       I    between atoms: C_10  and  N_11 
REMARK    2  A    between atoms: N_11  and  N_12 
REMARK       I    between atoms: N_12  and  C_13 
REMARK       I    between atoms: C_13  and  N_14 
REMARK    3  A    between atoms: N_14  and  C_15 
REMARK    4  A    between atoms: C_15  and  C_16 
REMARK    5  A    between atoms: C_16  and  C_17 
REMARK    6  A    between atoms: C_16  and  C_27 
ROOT
HETATM    1  N   UNL     1      -2.054   4.574 -31.206  1.00  0.00    -0.249 N 
HETATM    2  C   UNL     1      -3.326   4.105 -31.442  1.00  0.00     0.334 C 
HETATM    3  N   UNL     1      -3.324   3.093 -32.369  1.00  0.00    -0.341 N 
HETATM    4  O   UNL     1      -4.329   4.555 -30.902  1.00  0.00    -0.246 OA
HETATM    5  H   UNL     1      -1.256   3.971 -31.378  1.00  0.00     0.192 HD
HETATM    6  H   UNL     1      -2.579   3.148 -33.050  1.00  0.00     0.164 HD
ENDROOT
BRANCH   1   7
HETATM    7  N   UNL     1      -1.874   5.574 -30.241  1.00  0.00    -0.261 N 
HETATM    8  C   UNL     1      -0.966   6.576 -30.523  1.00  0.00     0.291 C 
HETATM    9  O   UNL     1      -0.144   6.522 -31.425  1.00  0.00    -0.264 OA
HETATM   10  H   UNL     1      -2.677   5.786 -29.643  1.00  0.00     0.190 HD
BRANCH   8  11
HETATM   11  C   UNL     1      -1.112   7.806 -29.617  1.00  0.00     0.157 A 
HETATM   12  C   UNL     1      -0.215   8.031 -28.459  1.00  0.00     0.016 A 
HETATM   13  C   UNL     1       0.755   7.122 -28.020  1.00  0.00     0.015 A 
HETATM   14  C   UNL     1      -0.364   9.238 -27.774  1.00  0.00     0.046 A 
HETATM   15  C   UNL     1       1.583   7.438 -26.937  1.00  0.00     0.001 A 
HETATM   16  C   UNL     1       1.446   8.657 -26.278  1.00  0.00     0.001 A 
HETATM   17  C   UNL     1       0.467   9.558 -26.691  1.00  0.00     0.018 A 
HETATM   18  C   UNL     1      -1.422  10.176 -28.181  1.00  0.00     0.272 A 
HETATM   19  O   UNL     1      -1.589  11.246 -27.605  1.00  0.00    -0.266 OA
HETATM   20  N   UNL     1      -2.215   9.775 -29.228  1.00  0.00    -0.242 N 
HETATM   21  N   UNL     1      -2.060   8.637 -29.957  1.00  0.00    -0.166 NA
HETATM   22  H   UNL     1      -2.948  10.413 -29.524  1.00  0.00     0.192 HD
ENDBRANCH   8  11
ENDBRANCH   1   7
BRANCH   3  23
HETATM   23  C   UNL     1      -4.578   2.534 -32.851  1.00  0.00     0.139 C 
BRANCH  23  24
HETATM   24  C   UNL     1      -5.207   1.439 -31.956  1.00  0.00     0.079 C 
BRANCH  24  25
HETATM   25  C   UNL     1      -4.485   0.109 -32.025  1.00  0.00    -0.020 A 
HETATM   26  C   UNL     1      -4.749  -0.948 -32.965  1.00  0.00    -0.001 A 
HETATM   27  C   UNL     1      -3.871  -1.995 -32.682  1.00  0.00     0.042 A 
HETATM   28  C   UNL     1      -5.656  -1.112 -34.034  1.00  0.00     0.014 A 
HETATM   29  C   UNL     1      -3.853  -3.192 -33.408  1.00  0.00     0.030 A 
HETATM   30  N   UNL     1      -3.099  -1.599 -31.616  1.00  0.00    -0.365 N 
HETATM   31  C   UNL     1      -4.762  -3.326 -34.460  1.00  0.00     0.002 A 
HETATM   32  C   UNL     1      -5.652  -2.302 -34.771  1.00  0.00     0.001 A 
HETATM   33  H   UNL     1      -2.374  -2.162 -31.196  1.00  0.00     0.165 HD
HETATM   34  C   UNL     1      -3.459  -0.342 -31.214  1.00  0.00     0.097 A 
ENDBRANCH  24  25
BRANCH  24  35
HETATM   35  C   UNL     1      -6.720   1.295 -32.092  1.00  0.00    -0.007 A 
HETATM   36  S   UNL     1      -7.634   2.125 -33.287  1.00  0.00    -0.106 SA
HETATM   37  C   UNL     1      -9.101   1.428 -32.758  1.00  0.00     0.050 A 
HETATM   38  C   UNL     1      -8.913   0.575 -31.695  1.00  0.00     0.008 A 
HETATM   39  C   UNL     1      -7.544   0.496 -31.314  1.00  0.00     0.016 A 
ENDBRANCH  24  35
ENDBRANCH  23  24
ENDBRANCH   3  23
TORSDOF 6
ENDMDL
MODEL 3
REMARK VINA RESULT:      -9.6      2.984      9.634
REMARK  6 active torsions:
REMARK  status: ('A' for Active; 'I' for Inactive)
REMARK    1  A    between atoms: C_9  and  C_10 
REMARK       I    between atoms: C_10  and  N_11 
REMARK    2  A    between atoms: N_11  and  N_12 
REMARK       I    between atoms: N_12  and  C_13 
REMARK       I    between atoms: C_13  and  N_14 
REMARK    3  A    between atoms: N_14  and  C_15 
REMARK    4  A    between atoms: C_15  and  C_16 
REMARK    5  A    between atoms: C_16  and  C_17 
REMARK    6  A    between atoms: C_16  and  C_27 
ROOT
HETATM    1  N   UNL     1      -3.871   3.586 -32.873  1.00  0.00    -0.249 N 
HETATM    2  C   UNL     1      -5.198   3.468 -32.528  1.00  0.00     0.334 C 
HETATM    3  N   UNL     1      -5.967   3.107 -33.607  1.00  0.00    -0.341 N 
HETATM    4  O   UNL     1      -5.631   3.680 -31.402  1.00  0.00    -0.246 OA
HETATM    5  H   UNL     1      -3.512   3.075 -33.673  1.00  0.00     0.192 HD
HETATM    6  H   UNL     1      -5.614   3.424 -34.499  1.00  0.00     0.164 HD
ENDROOT
BRANCH   1   7
HETATM    7  N   UNL     1      -2.941   3.895 -31.871  1.00  0.00    -0.261 N 
HETATM    8  C   UNL     1      -1.844   4.653 -32.231  1.00  0.00     0.291 C 
HETATM    9  O   UNL     1      -1.504   4.861 -33.386  1.00  0.00    -0.264 OA
HETATM   10  H   UNL     1      -3.301   3.966 -30.915  1.00  0.00     0.190 HD
BRANCH   8  11
HETATM   11  C   UNL     1      -1.102   5.261 -31.034  1.00  0.00     0.157 A 
HETATM   12  C   UNL     1      -1.352   6.651 -30.586  1.00  0.00     0.016 A 
HETATM   13  C   UNL     1      -2.182   7.560 -31.253  1.00  0.00     0.015 A 
HETATM   14  C   UNL     1      -0.706   7.062 -29.419  1.00  0.00     0.046 A 
HETATM   15  C   UNL     1      -2.387   8.844 -30.733  1.00  0.00     0.001 A 
HETATM   16  C   UNL     1      -1.762   9.234 -29.552  1.00  0.00     0.001 A 
HETATM   17  C   UNL     1      -0.913   8.346 -28.895  1.00  0.00     0.018 A 
HETATM   18  C   UNL     1       0.221   6.141 -28.741  1.00  0.00     0.272 A 
HETATM   19  O   UNL     1       0.810   6.462 -27.715  1.00  0.00    -0.266 OA
HETATM   20  N   UNL     1       0.395   4.915 -29.336  1.00  0.00    -0.242 N 
HETATM   21  N   UNL     1      -0.262   4.459 -30.436  1.00  0.00    -0.166 NA
HETATM   22  H   UNL     1       1.030   4.266 -28.878  1.00  0.00     0.192 HD
ENDBRANCH   8  11
ENDBRANCH   1   7
BRANCH   3  23
HETATM   23  C   UNL     1      -7.415   3.041 -33.489  1.00  0.00     0.139 C 
BRANCH  23  24
HETATM   24  C   UNL     1      -7.997   1.634 -33.212  1.00  0.00     0.079 C 
BRANCH  24  25
HETATM   25  C   UNL     1      -7.195   0.511 -33.834  1.00  0.00    -0.020 A 
HETATM   26  C   UNL     1      -6.096  -0.185 -33.217  1.00  0.00    -0.001 A 
HETATM   27  C   UNL     1      -5.636  -1.139 -34.125  1.00  0.00     0.042 A 
HETATM   28  C   UNL     1      -5.449  -0.092 -31.966  1.00  0.00     0.014 A 
HETATM   29  C   UNL     1      -4.566  -1.999 -33.850  1.00  0.00     0.030 A 
HETATM   30  N   UNL     1      -6.417  -1.036 -35.251  1.00  0.00    -0.365 N 
HETATM   31  C   UNL     1      -3.945  -1.884 -32.604  1.00  0.00     0.002 A 
HETATM   32  C   UNL     1      -4.379  -0.945 -31.673  1.00  0.00     0.001 A 
HETATM   33  H   UNL     1      -6.308  -1.608 -36.076  1.00  0.00     0.165 HD
HETATM   34  C   UNL     1      -7.352  -0.052 -35.089  1.00  0.00     0.097 A 
ENDBRANCH  24  25
BRANCH  24  35
HETATM   35  C   UNL     1      -9.496   1.501 -33.472  1.00  0.00    -0.007 A 
HETATM   36  S   UNL     1     -10.413   2.702 -34.288  1.00  0.00    -0.106 SA
HETATM   37  C   UNL     1     -11.856   1.800 -34.155  1.00  0.00     0.050 A 
HETATM   38  C   UNL     1     -11.659   0.604 -33.506  1.00  0.00     0.008 A 
HETATM   39  C   UNL     1     -10.300   0.430 -33.116  1.00  0.00     0.016 A 
ENDBRANCH  24  35
ENDBRANCH  23  24
ENDBRANCH   3  23
TORSDOF 6
ENDMDL
MODEL 4
REMARK VINA RESULT:      -9.5      3.079     10.568
REMARK  6 active torsions:
REMARK  status: ('A' for Active; 'I' for Inactive)
REMARK    1  A    between atoms: C_9  and  C_10 
REMARK       I    between atoms: C_10  and  N_11 
REMARK    2  A    between atoms: N_11  and  N_12 
REMARK       I    between atoms: N_12  and  C_13 
REMARK       I    between atoms: C_13  and  N_14 
REMARK    3  A    between atoms: N_14  and  C_15 
REMARK    4  A    between atoms: C_15  and  C_16 
REMARK    5  A    between atoms: C_16  and  C_17 
REMARK    6  A    between atoms: C_16  and  C_27 
ROOT
HETATM    1  N   UNL     1      -3.478   3.789 -32.102  1.00  0.00    -0.249 N 
HETATM    2  C   UNL     1      -3.152   2.476 -31.850  1.00  0.00     0.334 C 
HETATM    3  N   UNL     1      -3.533   1.657 -32.883  1.00  0.00    -0.341 N 
HETATM    4  O   UNL     1      -2.609   2.094 -30.821  1.00  0.00    -0.246 OA
HETATM    5  H   UNL     1      -3.583   4.106 -33.060  1.00  0.00     0.192 HD
HETATM    6  H   UNL     1      -4.343   1.977 -33.397  1.00  0.00     0.164 HD
ENDROOT
BRANCH   1   7
HETATM    7  N   UNL     1      -3.107   4.765 -31.167  1.00  0.00    -0.261 N 
HETATM    8  C   UNL     1      -2.024   5.564 -31.476  1.00  0.00     0.291 C 
HETATM    9  O   UNL     1      -1.229   5.325 -32.373  1.00  0.00    -0.264 OA
HETATM   10  H   UNL     1      -3.853   5.147 -30.579  1.00  0.00     0.190 HD
BRANCH   8  11
HETATM   11  C   UNL     1      -1.928   6.826 -30.609  1.00  0.00     0.157 A 
HETATM   12  C   UNL     1      -0.919   6.957 -29.532  1.00  0.00     0.016 A 
HETATM   13  C   UNL     1      -0.049   5.934 -29.134  1.00  0.00     0.015 A 
HETATM   14  C   UNL     1      -0.846   8.191 -28.884  1.00  0.00     0.046 A 
HETATM   15  C   UNL     1       0.899   6.162 -28.130  1.00  0.00     0.001 A 
HETATM   16  C   UNL     1       0.982   7.406 -27.509  1.00  0.00     0.001 A 
HETATM   17  C   UNL     1       0.104   8.422 -27.879  1.00  0.00     0.018 A 
HETATM   18  C   UNL     1      -1.796   9.255 -29.244  1.00  0.00     0.272 A 
HETATM   19  O   UNL     1      -1.770  10.353 -28.699  1.00  0.00    -0.266 OA
HETATM   20  N   UNL     1      -2.718   8.939 -30.213  1.00  0.00    -0.242 N 
HETATM   21  N   UNL     1      -2.779   7.771 -30.908  1.00  0.00    -0.166 NA
HETATM   22  H   UNL     1      -3.379   9.665 -30.476  1.00  0.00     0.192 HD
ENDBRANCH   8  11
ENDBRANCH   1   7
BRANCH   3  23
HETATM   23  C   UNL     1      -3.388   0.214 -32.772  1.00  0.00     0.139 C 
BRANCH  23  24
HETATM   24  C   UNL     1      -4.608  -0.617 -33.235  1.00  0.00     0.079 C 
BRANCH  24  25
HETATM   25  C   UNL     1      -5.874  -0.323 -32.457  1.00  0.00    -0.020 A 
HETATM   26  C   UNL     1      -7.143   0.057 -33.019  1.00  0.00    -0.001 A 
HETATM   27  C   UNL     1      -8.037   0.238 -31.964  1.00  0.00     0.042 A 
HETATM   28  C   UNL     1      -7.615   0.265 -34.333  1.00  0.00     0.014 A 
HETATM   29  C   UNL     1      -9.372   0.615 -32.151  1.00  0.00     0.030 A 
HETATM   30  N   UNL     1      -7.350  -0.021 -30.803  1.00  0.00    -0.365 N 
HETATM   31  C   UNL     1      -9.812   0.813 -33.463  1.00  0.00     0.002 A 
HETATM   32  C   UNL     1      -8.948   0.641 -34.540  1.00  0.00     0.001 A 
HETATM   33  H   UNL     1      -7.751   0.032 -29.877  1.00  0.00     0.165 HD
HETATM   34  C   UNL     1      -6.054  -0.357 -31.085  1.00  0.00     0.097 A 
ENDBRANCH  24  25
BRANCH  24  35
HETATM   35  C   UNL     1      -4.343  -2.112 -33.385  1.00  0.00    -0.007 A 
HETATM   36  S   UNL     1      -5.102  -3.080 -34.583  1.00  0.00    -0.106 SA
HETATM   37  C   UNL     1      -4.285  -4.490 -34.072  1.00  0.00     0.050 A 
HETATM   38  C   UNL     1      -3.445  -4.243 -33.013  1.00  0.00     0.008 A 
HETATM   39  C   UNL     1      -3.475  -2.875 -32.619  1.00  0.00     0.016 A 
ENDBRANCH  24  35
ENDBRANCH  23  24
ENDBRANCH   3  23
TORSDOF 6
ENDMDL
MODEL 5
REMARK VINA RESULT:      -9.5      3.138     10.355
REMARK  6 active torsions:
REMARK  status: ('A' for Active; 'I' for Inactive)
REMARK    1  A    between atoms: C_9  and  C_10 
REMARK       I    between atoms: C_10  and  N_11 
REMARK    2  A    between atoms: N_11  and  N_12 
REMARK       I    between atoms: N_12  and  C_13 
REMARK       I    between atoms: C_13  and  N_14 
REMARK    3  A    between atoms: N_14  and  C_15 
REMARK    4  A    between atoms: C_15  and  C_16 
REMARK    5  A    between atoms: C_16  and  C_17 
REMARK    6  A    between atoms: C_16  and  C_27 
ROOT
HETATM    1  N   UNL     1      -3.241   3.512 -31.892  1.00  0.00    -0.249 N 
HETATM    2  C   UNL     1      -3.268   2.136 -31.856  1.00  0.00     0.334 C 
HETATM    3  N   UNL     1      -3.971   1.620 -32.915  1.00  0.00    -0.341 N 
HETATM    4  O   UNL     1      -2.744   1.467 -30.974  1.00  0.00    -0.246 OA
HETATM    5  H   UNL     1      -3.357   3.994 -32.776  1.00  0.00     0.192 HD
HETATM    6  H   UNL     1      -4.711   2.217 -33.260  1.00  0.00     0.164 HD
ENDROOT
BRANCH   1   7
HETATM    7  N   UNL     1      -2.513   4.195 -30.908  1.00  0.00    -0.261 N 
HETATM    8  C   UNL     1      -1.392   4.892 -31.313  1.00  0.00     0.291 C 
HETATM    9  O   UNL     1      -0.858   4.756 -32.404  1.00  0.00    -0.264 OA
HETATM   10  H   UNL     1      -3.040   4.531 -30.096  1.00  0.00     0.190 HD
BRANCH   8  11
HETATM   11  C   UNL     1      -0.892   5.904 -30.274  1.00  0.00     0.157 A 
HETATM   12  C   UNL     1      -1.443   7.277 -30.196  1.00  0.00     0.016 A 
HETATM   13  C   UNL     1      -2.368   7.812 -31.101  1.00  0.00     0.015 A 
HETATM   14  C   UNL     1      -0.998   8.075 -29.140  1.00  0.00     0.046 A 
HETATM   15  C   UNL     1      -2.862   9.110 -30.924  1.00  0.00     0.001 A 
HETATM   16  C   UNL     1      -2.433   9.887 -29.851  1.00  0.00     0.001 A 
HETATM   17  C   UNL     1      -1.494   9.374 -28.960  1.00  0.00     0.018 A 
HETATM   18  C   UNL     1       0.023   7.552 -28.218  1.00  0.00     0.272 A 
HETATM   19  O   UNL     1       0.444   8.219 -27.279  1.00  0.00    -0.266 OA
HETATM   20  N   UNL     1       0.482   6.284 -28.482  1.00  0.00    -0.242 N 
HETATM   21  N   UNL     1       0.027   5.457 -29.461  1.00  0.00    -0.166 NA
HETATM   22  H   UNL     1       1.185   5.907 -27.852  1.00  0.00     0.192 HD
ENDBRANCH   8  11
ENDBRANCH   1   7
BRANCH   3  23
HETATM   23  C   UNL     1      -4.222   0.190 -33.007  1.00  0.00     0.139 C 
BRANCH  23  24
HETATM   24  C   UNL     1      -5.612  -0.209 -33.557  1.00  0.00     0.079 C 
BRANCH  24  25
HETATM   25  C   UNL     1      -6.762   0.208 -32.664  1.00  0.00    -0.020 A 
HETATM   26  C   UNL     1      -7.981   0.840 -33.095  1.00  0.00    -0.001 A 
HETATM   27  C   UNL     1      -8.768   1.059 -31.964  1.00  0.00     0.042 A 
HETATM   28  C   UNL     1      -8.490   1.248 -34.347  1.00  0.00     0.014 A 
HETATM   29  C   UNL     1     -10.030   1.662 -32.018  1.00  0.00     0.030 A 
HETATM   30  N   UNL     1      -8.065   0.581 -30.884  1.00  0.00    -0.365 N 
HETATM   31  C   UNL     1     -10.508   2.055 -33.271  1.00  0.00     0.002 A 
HETATM   32  C   UNL     1      -9.751   1.851 -34.421  1.00  0.00     0.001 A 
HETATM   33  H   UNL     1      -8.396   0.608 -29.930  1.00  0.00     0.165 HD
HETATM   34  C   UNL     1      -6.863   0.070 -31.291  1.00  0.00     0.097 A 
ENDBRANCH  24  25
BRANCH  24  35
HETATM   35  C   UNL     1      -5.723  -1.658 -34.022  1.00  0.00    -0.007 A 
HETATM   36  S   UNL     1      -4.386  -2.737 -34.043  1.00  0.00    -0.106 SA
HETATM   37  C   UNL     1      -5.337  -4.024 -34.639  1.00  0.00     0.050 A 
HETATM   38  C   UNL     1      -6.649  -3.655 -34.820  1.00  0.00     0.008 A 
HETATM   39  C   UNL     1      -6.872  -2.296 -34.462  1.00  0.00     0.016 A 
ENDBRANCH  24  35
ENDBRANCH  23  24
ENDBRANCH   3  23
TORSDOF 6
ENDMDL
MODEL 6
REMARK VINA RESULT:      -9.4      3.710     10.577
REMARK  6 active torsions:
REMARK  status: ('A' for Active; 'I' for Inactive)
REMARK    1  A    between atoms: C_9  and  C_10 
REMARK       I    between atoms: C_10  and  N_11 
REMARK    2  A    between atoms: N_11  and  N_12 
REMARK       I    between atoms: N_12  and  C_13 
REMARK       I    between atoms: C_13  and  N_14 
REMARK    3  A    between atoms: N_14  and  C_15 
REMARK    4  A    between atoms: C_15  and  C_16 
REMARK    5  A    between atoms: C_16  and  C_17 
REMARK    6  A    between atoms: C_16  and  C_27 
ROOT
HETATM    1  N   UNL     1      -3.775   3.595 -32.716  1.00  0.00    -0.249 N 
HETATM    2  C   UNL     1      -5.036   3.246 -32.292  1.00  0.00     0.334 C 
HETATM    3  N   UNL     1      -5.852   2.930 -33.349  1.00  0.00    -0.341 N 
HETATM    4  O   UNL     1      -5.384   3.242 -31.117  1.00  0.00    -0.246 OA
HETATM    5  H   UNL     1      -3.432   3.252 -33.607  1.00  0.00     0.192 HD
HETATM    6  H   UNL     1      -5.630   3.411 -34.210  1.00  0.00     0.164 HD
ENDROOT
BRANCH   1   7
HETATM    7  N   UNL     1      -2.800   3.893 -31.754  1.00  0.00    -0.261 N 
HETATM    8  C   UNL     1      -1.760   4.718 -32.134  1.00  0.00     0.291 C 
HETATM    9  O   UNL     1      -1.498   5.000 -33.294  1.00  0.00    -0.264 OA
HETATM   10  H   UNL     1      -3.105   3.899 -30.776  1.00  0.00     0.190 HD
BRANCH   8  11
HETATM   11  C   UNL     1      -0.974   5.296 -30.951  1.00  0.00     0.157 A 
HETATM   12  C   UNL     1      -1.223   6.666 -30.444  1.00  0.00     0.016 A 
HETATM   13  C   UNL     1      -2.096   7.584 -31.041  1.00  0.00     0.015 A 
HETATM   14  C   UNL     1      -0.533   7.047 -29.292  1.00  0.00     0.046 A 
HETATM   15  C   UNL     1      -2.297   8.845 -30.468  1.00  0.00     0.001 A 
HETATM   16  C   UNL     1      -1.625   9.205 -29.303  1.00  0.00     0.001 A 
HETATM   17  C   UNL     1      -0.735   8.308 -28.715  1.00  0.00     0.018 A 
HETATM   18  C   UNL     1       0.437   6.118 -28.689  1.00  0.00     0.272 A 
HETATM   19  O   UNL     1       1.067   6.413 -27.680  1.00  0.00    -0.266 OA
HETATM   20  N   UNL     1       0.602   4.916 -29.333  1.00  0.00    -0.242 N 
HETATM   21  N   UNL     1      -0.096   4.488 -30.419  1.00  0.00    -0.166 NA
HETATM   22  H   UNL     1       1.266   4.262 -28.927  1.00  0.00     0.192 HD
ENDBRANCH   8  11
ENDBRANCH   1   7
BRANCH   3  23
HETATM   23  C   UNL     1      -7.263   2.646 -33.133  1.00  0.00     0.139 C 
BRANCH  23  24
HETATM   24  C   UNL     1      -7.855   1.513 -34.004  1.00  0.00     0.079 C 
BRANCH  24  25
HETATM   25  C   UNL     1      -9.333   1.277 -33.772  1.00  0.00    -0.020 A 
HETATM   26  C   UNL     1     -10.405   2.131 -34.211  1.00  0.00    -0.001 A 
HETATM   27  C   UNL     1     -11.604   1.556 -33.789  1.00  0.00     0.042 A 
HETATM   28  C   UNL     1     -10.466   3.343 -34.932  1.00  0.00     0.014 A 
HETATM   29  C   UNL     1     -12.856   2.127 -34.047  1.00  0.00     0.030 A 
HETATM   30  N   UNL     1     -11.285   0.399 -33.121  1.00  0.00    -0.365 N 
HETATM   31  C   UNL     1     -12.886   3.327 -34.762  1.00  0.00     0.002 A 
HETATM   32  C   UNL     1     -11.709   3.929 -35.200  1.00  0.00     0.001 A 
HETATM   33  H   UNL     1     -11.961  -0.226 -32.705  1.00  0.00     0.165 HD
HETATM   34  C   UNL     1      -9.929   0.222 -33.103  1.00  0.00     0.097 A 
ENDBRANCH  24  25
BRANCH  24  35
HETATM   35  C   UNL     1      -7.045   0.219 -34.007  1.00  0.00    -0.007 A 
HETATM   36  S   UNL     1      -6.235  -0.378 -32.615  1.00  0.00    -0.106 SA
HETATM   37  C   UNL     1      -5.651  -1.749 -33.449  1.00  0.00     0.050 A 
HETATM   38  C   UNL     1      -6.061  -1.767 -34.762  1.00  0.00     0.008 A 
HETATM   39  C   UNL     1      -6.865  -0.637 -35.082  1.00  0.00     0.016 A 
ENDBRANCH  24  35
ENDBRANCH  23  24
ENDBRANCH   3  23
TORSDOF 6
ENDMDL
MODEL 7
REMARK VINA RESULT:      -9.4      7.086     10.125
REMARK  6 active torsions:
REMARK  status: ('A' for Active; 'I' for Inactive)
REMARK    1  A    between atoms: C_9  and  C_10 
REMARK       I    between atoms: C_10  and  N_11 
REMARK    2  A    between atoms: N_11  and  N_12 
REMARK       I    between atoms: N_12  and  C_13 
REMARK       I    between atoms: C_13  and  N_14 
REMARK    3  A    between atoms: N_14  and  C_15 
REMARK    4  A    between atoms: C_15  and  C_16 
REMARK    5  A    between atoms: C_16  and  C_17 
REMARK    6  A    between atoms: C_16  and  C_27 
ROOT
HETATM    1  N   UNL     1      -9.631   1.654 -30.875  1.00  0.00    -0.249 N 
HETATM    2  C   UNL     1      -9.639   3.017 -31.063  1.00  0.00     0.334 C 
HETATM    3  N   UNL     1     -10.867   3.557 -30.773  1.00  0.00    -0.341 N 
HETATM    4  O   UNL     1      -8.672   3.657 -31.458  1.00  0.00    -0.246 OA
HETATM    5  H   UNL     1     -10.292   1.232 -30.233  1.00  0.00     0.192 HD
HETATM    6  H   UNL     1     -11.648   2.934 -30.930  1.00  0.00     0.164 HD
ENDROOT
BRANCH   1   7
HETATM    7  N   UNL     1      -8.432   0.955 -31.075  1.00  0.00    -0.261 N 
HETATM    8  C   UNL     1      -8.158   0.513 -32.354  1.00  0.00     0.291 C 
HETATM    9  O   UNL     1      -8.981   0.471 -33.256  1.00  0.00    -0.264 OA
HETATM   10  H   UNL     1      -7.653   1.190 -30.453  1.00  0.00     0.190 HD
BRANCH   8  11
HETATM   11  C   UNL     1      -6.691   0.115 -32.561  1.00  0.00     0.157 A 
HETATM   12  C   UNL     1      -6.311  -1.064 -33.375  1.00  0.00     0.016 A 
HETATM   13  C   UNL     1      -7.223  -1.969 -33.931  1.00  0.00     0.015 A 
HETATM   14  C   UNL     1      -4.947  -1.267 -33.592  1.00  0.00     0.046 A 
HETATM   15  C   UNL     1      -6.773  -3.034 -34.719  1.00  0.00     0.001 A 
HETATM   16  C   UNL     1      -5.411  -3.211 -34.953  1.00  0.00     0.001 A 
HETATM   17  C   UNL     1      -4.494  -2.331 -34.384  1.00  0.00     0.018 A 
HETATM   18  C   UNL     1      -3.972  -0.363 -32.961  1.00  0.00     0.272 A 
HETATM   19  O   UNL     1      -2.765  -0.505 -33.123  1.00  0.00    -0.266 OA
HETATM   20  N   UNL     1      -4.494   0.635 -32.174  1.00  0.00    -0.242 N 
HETATM   21  N   UNL     1      -5.816   0.899 -31.991  1.00  0.00    -0.166 NA
HETATM   22  H   UNL     1      -3.834   1.270 -31.734  1.00  0.00     0.192 HD
ENDBRANCH   8  11
ENDBRANCH   1   7
BRANCH   3  23
HETATM   23  C   UNL     1     -11.128   4.968 -31.016  1.00  0.00     0.139 C 
BRANCH  23  24
HETATM   24  C   UNL     1     -12.262   5.272 -32.023  1.00  0.00     0.079 C 
BRANCH  24  25
HETATM   25  C   UNL     1     -13.270   4.150 -32.161  1.00  0.00    -0.020 A 
HETATM   26  C   UNL     1     -13.133   2.988 -32.998  1.00  0.00    -0.001 A 
HETATM   27  C   UNL     1     -14.281   2.211 -32.836  1.00  0.00     0.042 A 
HETATM   28  C   UNL     1     -12.136   2.523 -33.883  1.00  0.00     0.014 A 
HETATM   29  C   UNL     1     -14.484   1.001 -33.509  1.00  0.00     0.030 A 
HETATM   30  N   UNL     1     -15.088   2.866 -31.937  1.00  0.00    -0.365 N 
HETATM   31  C   UNL     1     -13.479   0.566 -34.378  1.00  0.00     0.002 A 
HETATM   32  C   UNL     1     -12.321   1.314 -34.564  1.00  0.00     0.001 A 
HETATM   33  H   UNL     1     -15.990   2.530 -31.629  1.00  0.00     0.165 HD
HETATM   34  C   UNL     1     -14.494   4.027 -31.527  1.00  0.00     0.097 A 
ENDBRANCH  24  25
BRANCH  24  35
HETATM   35  C   UNL     1     -11.790   5.808 -33.372  1.00  0.00    -0.007 A 
HETATM   36  S   UNL     1     -12.855   6.515 -34.520  1.00  0.00    -0.106 SA
HETATM   37  C   UNL     1     -11.587   6.816 -35.624  1.00  0.00     0.050 A 
HETATM   38  C   UNL     1     -10.371   6.395 -35.140  1.00  0.00     0.008 A 
HETATM   39  C   UNL     1     -10.487   5.819 -33.843  1.00  0.00     0.016 A 
ENDBRANCH  24  35
ENDBRANCH  23  24
ENDBRANCH   3  23
TORSDOF 6
ENDMDL
MODEL 8
REMARK VINA RESULT:      -9.3      4.493      5.842
REMARK  6 active torsions:
REMARK  status: ('A' for Active; 'I' for Inactive)
REMARK    1  A    between atoms: C_9  and  C_10 
REMARK       I    between atoms: C_10  and  N_11 
REMARK    2  A    between atoms: N_11  and  N_12 
REMARK       I    between atoms: N_12  and  C_13 
REMARK       I    between atoms: C_13  and  N_14 
REMARK    3  A    between atoms: N_14  and  C_15 
REMARK    4  A    between atoms: C_15  and  C_16 
REMARK    5  A    between atoms: C_16  and  C_17 
REMARK    6  A    between atoms: C_16  and  C_27 
ROOT
HETATM    1  N   UNL     1      -8.247   0.900 -33.268  1.00  0.00    -0.249 N 
HETATM    2  C   UNL     1      -7.645   1.630 -32.268  1.00  0.00     0.334 C 
HETATM    3  N   UNL     1      -8.220   2.868 -32.134  1.00  0.00    -0.341 N 
HETATM    4  O   UNL     1      -6.701   1.223 -31.602  1.00  0.00    -0.246 OA
HETATM    5  H   UNL     1      -9.205   1.106 -33.533  1.00  0.00     0.192 HD
HETATM    6  H   UNL     1      -8.612   3.245 -32.986  1.00  0.00     0.164 HD
ENDROOT
BRANCH   1   7
HETATM    7  N   UNL     1      -7.813  -0.412 -33.497  1.00  0.00    -0.261 N 
HETATM    8  C   UNL     1      -7.022  -0.637 -34.607  1.00  0.00     0.291 C 
HETATM    9  O   UNL     1      -6.881   0.162 -35.521  1.00  0.00    -0.264 OA
HETATM   10  H   UNL     1      -7.692  -1.008 -32.673  1.00  0.00     0.190 HD
BRANCH   8  11
HETATM   11  C   UNL     1      -6.287  -1.983 -34.571  1.00  0.00     0.157 A 
HETATM   12  C   UNL     1      -5.117  -2.208 -33.688  1.00  0.00     0.016 A 
HETATM   13  C   UNL     1      -4.515  -1.218 -32.904  1.00  0.00     0.015 A 
HETATM   14  C   UNL     1      -4.598  -3.504 -33.651  1.00  0.00     0.046 A 
HETATM   15  C   UNL     1      -3.435  -1.533 -32.071  1.00  0.00     0.001 A 
HETATM   16  C   UNL     1      -2.942  -2.835 -32.019  1.00  0.00     0.001 A 
HETATM   17  C   UNL     1      -3.518  -3.822 -32.815  1.00  0.00     0.018 A 
HETATM   18  C   UNL     1      -5.177  -4.542 -34.518  1.00  0.00     0.272 A 
HETATM   19  O   UNL     1      -4.750  -5.691 -34.519  1.00  0.00    -0.266 OA
HETATM   20  N   UNL     1      -6.209  -4.141 -35.332  1.00  0.00    -0.242 N 
HETATM   21  N   UNL     1      -6.781  -2.907 -35.350  1.00  0.00    -0.166 NA
HETATM   22  H   UNL     1      -6.623  -4.848 -35.934  1.00  0.00     0.192 HD
ENDBRANCH   8  11
ENDBRANCH   1   7
BRANCH   3  23
HETATM   23  C   UNL     1      -7.660   3.846 -31.213  1.00  0.00     0.139 C 
BRANCH  23  24
HETATM   24  C   UNL     1      -6.807   4.961 -31.863  1.00  0.00     0.079 C 
BRANCH  24  25
HETATM   25  C   UNL     1      -5.317   4.689 -31.823  1.00  0.00    -0.020 A 
HETATM   26  C   UNL     1      -4.399   4.851 -32.919  1.00  0.00    -0.001 A 
HETATM   27  C   UNL     1      -3.130   4.490 -32.464  1.00  0.00     0.042 A 
HETATM   28  C   UNL     1      -4.530   5.271 -34.260  1.00  0.00     0.014 A 
HETATM   29  C   UNL     1      -1.990   4.527 -33.277  1.00  0.00     0.030 A 
HETATM   30  N   UNL     1      -3.261   4.125 -31.146  1.00  0.00    -0.365 N 
HETATM   31  C   UNL     1      -2.150   4.948 -34.599  1.00  0.00     0.002 A 
HETATM   32  C   UNL     1      -3.401   5.316 -35.087  1.00  0.00     0.001 A 
HETATM   33  H   UNL     1      -2.498   3.816 -30.560  1.00  0.00     0.165 HD
HETATM   34  C   UNL     1      -4.566   4.238 -30.752  1.00  0.00     0.097 A 
ENDBRANCH  24  25
BRANCH  24  35
HETATM   35  C   UNL     1      -7.159   6.377 -31.416  1.00  0.00    -0.007 A 
HETATM   36  S   UNL     1      -8.063   6.709 -29.993  1.00  0.00    -0.106 SA
HETATM   37  C   UNL     1      -7.981   8.396 -30.243  1.00  0.00     0.050 A 
HETATM   38  C   UNL     1      -7.280   8.715 -31.382  1.00  0.00     0.008 A 
HETATM   39  C   UNL     1      -6.804   7.554 -32.055  1.00  0.00     0.016 A 
ENDBRANCH  24  35
ENDBRANCH  23  24
ENDBRANCH   3  23
TORSDOF 6
ENDMDL
MODEL 9
REMARK VINA RESULT:      -9.3      2.544     10.204
REMARK  6 active torsions:
REMARK  status: ('A' for Active; 'I' for Inactive)
REMARK    1  A    between atoms: C_9  and  C_10 
REMARK       I    between atoms: C_10  and  N_11 
REMARK    2  A    between atoms: N_11  and  N_12 
REMARK       I    between atoms: N_12  and  C_13 
REMARK       I    between atoms: C_13  and  N_14 
REMARK    3  A    between atoms: N_14  and  C_15 
REMARK    4  A    between atoms: C_15  and  C_16 
REMARK    5  A    between atoms: C_16  and  C_17 
REMARK    6  A    between atoms: C_16  and  C_27 
ROOT
HETATM    1  N   UNL     1      -3.524   5.269 -30.858  1.00  0.00    -0.249 N 
HETATM    2  C   UNL     1      -3.487   4.049 -31.494  1.00  0.00     0.334 C 
HETATM    3  N   UNL     1      -4.606   3.849 -32.262  1.00  0.00    -0.341 N 
HETATM    4  O   UNL     1      -2.574   3.242 -31.368  1.00  0.00    -0.246 OA
HETATM    5  H   UNL     1      -4.078   6.023 -31.250  1.00  0.00     0.192 HD
HETATM    6  H   UNL     1      -5.438   4.313 -31.922  1.00  0.00     0.164 HD
ENDROOT
BRANCH   1   7
HETATM    7  N   UNL     1      -2.426   5.653 -30.076  1.00  0.00    -0.261 N 
HETATM    8  C   UNL     1      -1.683   6.734 -30.508  1.00  0.00     0.291 C 
HETATM    9  O   UNL     1      -1.761   7.216 -31.628  1.00  0.00    -0.264 OA
HETATM   10  H   UNL     1      -2.487   5.462 -29.072  1.00  0.00     0.190 HD
BRANCH   8  11
HETATM   11  C   UNL     1      -0.765   7.316 -29.425  1.00  0.00     0.157 A 
HETATM   12  C   UNL     1      -0.989   8.668 -28.859  1.00  0.00     0.016 A 
HETATM   13  C   UNL     1      -1.960   9.566 -29.315  1.00  0.00     0.015 A 
HETATM   14  C   UNL     1      -0.164   9.050 -27.800  1.00  0.00     0.046 A 
HETATM   15  C   UNL     1      -2.123  10.809 -28.692  1.00  0.00     0.001 A 
HETATM   16  C   UNL     1      -1.314  11.170 -27.618  1.00  0.00     0.001 A 
HETATM   17  C   UNL     1      -0.327  10.294 -27.173  1.00  0.00     0.018 A 
HETATM   18  C   UNL     1       0.906   8.145 -27.351  1.00  0.00     0.272 A 
HETATM   19  O   UNL     1       1.654   8.442 -26.426  1.00  0.00    -0.266 OA
HETATM   20  N   UNL     1       1.022   6.961 -28.038  1.00  0.00    -0.242 N 
HETATM   21  N   UNL     1       0.199   6.529 -29.031  1.00  0.00    -0.166 NA
HETATM   22  H   UNL     1       1.754   6.322 -27.738  1.00  0.00     0.192 HD
ENDBRANCH   8  11
ENDBRANCH   1   7
BRANCH   3  23
HETATM   23  C   UNL     1      -4.825   2.574 -32.928  1.00  0.00     0.139 C 
BRANCH  23  24
HETATM   24  C   UNL     1      -5.435   1.458 -32.047  1.00  0.00     0.079 C 
BRANCH  24  25
HETATM   25  C   UNL     1      -4.644   0.166 -32.067  1.00  0.00    -0.020 A 
HETATM   26  C   UNL     1      -4.841  -0.931 -32.977  1.00  0.00    -0.001 A 
HETATM   27  C   UNL     1      -3.913  -1.921 -32.654  1.00  0.00     0.042 A 
HETATM   28  C   UNL     1      -5.727  -1.175 -34.049  1.00  0.00     0.014 A 
HETATM   29  C   UNL     1      -3.824  -3.137 -33.342  1.00  0.00     0.030 A 
HETATM   30  N   UNL     1      -3.175  -1.453 -31.593  1.00  0.00    -0.365 N 
HETATM   31  C   UNL     1      -4.713  -3.350 -34.399  1.00  0.00     0.002 A 
HETATM   32  C   UNL     1      -5.652  -2.385 -34.749  1.00  0.00     0.001 A 
HETATM   33  H   UNL     1      -2.426  -1.964 -31.148  1.00  0.00     0.165 HD
HETATM   34  C   UNL     1      -3.604  -0.205 -31.233  1.00  0.00     0.097 A 
ENDBRANCH  24  25
BRANCH  24  35
HETATM   35  C   UNL     1      -6.932   1.235 -32.244  1.00  0.00    -0.007 A 
HETATM   36  S   UNL     1      -7.803   1.871 -33.581  1.00  0.00    -0.106 SA
HETATM   37  C   UNL     1      -9.273   1.183 -33.048  1.00  0.00     0.050 A 
HETATM   38  C   UNL     1      -9.117   0.477 -31.879  1.00  0.00     0.008 A 
HETATM   39  C   UNL     1      -7.771   0.504 -31.417  1.00  0.00     0.016 A 
ENDBRANCH  24  35
ENDBRANCH  23  24
ENDBRANCH   3  23
TORSDOF 6
ENDMDL
MODEL 10
REMARK VINA RESULT:      -9.3      2.792      4.767
REMARK  6 active torsions:
REMARK  status: ('A' for Active; 'I' for Inactive)
REMARK    1  A    between atoms: C_9  and  C_10 
REMARK       I    between atoms: C_10  and  N_11 
REMARK    2  A    between atoms: N_11  and  N_12 
REMARK       I    between atoms: N_12  and  C_13 
REMARK       I    between atoms: C_13  and  N_14 
REMARK    3  A    between atoms: N_14  and  C_15 
REMARK    4  A    between atoms: C_15  and  C_16 
REMARK    5  A    between atoms: C_16  and  C_17 
REMARK    6  A    between atoms: C_16  and  C_27 
ROOT
HETATM    1  N   UNL     1      -4.980   4.699 -29.308  1.00  0.00    -0.249 N 
HETATM    2  C   UNL     1      -4.440   5.904 -29.696  1.00  0.00     0.334 C 
HETATM    3  N   UNL     1      -3.525   6.361 -28.782  1.00  0.00    -0.341 N 
HETATM    4  O   UNL     1      -4.758   6.495 -30.721  1.00  0.00    -0.246 OA
HETATM    5  H   UNL     1      -4.459   4.093 -28.684  1.00  0.00     0.192 HD
HETATM    6  H   UNL     1      -3.701   6.072 -27.829  1.00  0.00     0.164 HD
ENDROOT
BRANCH   1   7
HETATM    7  N   UNL     1      -5.894   4.066 -30.161  1.00  0.00    -0.261 N 
HETATM    8  C   UNL     1      -5.593   2.785 -30.580  1.00  0.00     0.291 C 
HETATM    9  O   UNL     1      -4.493   2.267 -30.465  1.00  0.00    -0.264 OA
HETATM   10  H   UNL     1      -6.877   4.340 -30.068  1.00  0.00     0.190 HD
BRANCH   8  11
HETATM   11  C   UNL     1      -6.795   2.039 -31.175  1.00  0.00     0.157 A 
HETATM   12  C   UNL     1      -6.629   1.011 -32.229  1.00  0.00     0.016 A 
HETATM   13  C   UNL     1      -5.413   0.703 -32.850  1.00  0.00     0.015 A 
HETATM   14  C   UNL     1      -7.776   0.314 -32.615  1.00  0.00     0.046 A 
HETATM   15  C   UNL     1      -5.346  -0.312 -33.812  1.00  0.00     0.001 A 
HETATM   16  C   UNL     1      -6.490  -1.021 -34.169  1.00  0.00     0.001 A 
HETATM   17  C   UNL     1      -7.710  -0.705 -33.576  1.00  0.00     0.018 A 
HETATM   18  C   UNL     1      -9.074   0.670 -32.020  1.00  0.00     0.272 A 
HETATM   19  O   UNL     1     -10.106   0.086 -32.331  1.00  0.00    -0.266 OA
HETATM   20  N   UNL     1      -9.059   1.701 -31.112  1.00  0.00    -0.242 N 
HETATM   21  N   UNL     1      -7.955   2.359 -30.668  1.00  0.00    -0.166 NA
HETATM   22  H   UNL     1      -9.947   1.957 -30.689  1.00  0.00     0.192 HD
ENDBRANCH   8  11
ENDBRANCH   1   7
BRANCH   3  23
HETATM   23  C   UNL     1      -2.919   7.675 -28.940  1.00  0.00     0.139 C 
BRANCH  23  24
HETATM   24  C   UNL     1      -1.437   7.677 -29.384  1.00  0.00     0.079 C 
BRANCH  24  25
HETATM   25  C   UNL     1      -1.100   6.587 -30.380  1.00  0.00    -0.020 A 
HETATM   26  C   UNL     1      -1.408   6.602 -31.786  1.00  0.00    -0.001 A 
HETATM   27  C   UNL     1      -0.931   5.413 -32.336  1.00  0.00     0.042 A 
HETATM   28  C   UNL     1      -2.051   7.520 -32.644  1.00  0.00     0.014 A 
HETATM   29  C   UNL     1      -1.063   5.093 -33.693  1.00  0.00     0.030 A 
HETATM   30  N   UNL     1      -0.352   4.698 -31.315  1.00  0.00    -0.365 N 
HETATM   31  C   UNL     1      -1.704   6.021 -34.518  1.00  0.00     0.002 A 
HETATM   32  C   UNL     1      -2.192   7.218 -34.003  1.00  0.00     0.001 A 
HETATM   33  H   UNL     1       0.079   3.791 -31.425  1.00  0.00     0.165 HD
HETATM   34  C   UNL     1      -0.448   5.390 -30.140  1.00  0.00     0.097 A 
ENDBRANCH  24  25
BRANCH  24  35
HETATM   35  C   UNL     1      -0.429   7.764 -28.242  1.00  0.00    -0.007 A 
HETATM   36  S   UNL     1      -0.751   7.168 -26.663  1.00  0.00    -0.106 SA
HETATM   37  C   UNL     1       0.790   7.630 -26.091  1.00  0.00     0.050 A 
HETATM   38  C   UNL     1       1.548   8.225 -27.073  1.00  0.00     0.008 A 
HETATM   39  C   UNL     1       0.848   8.298 -28.311  1.00  0.00     0.016 A 
ENDBRANCH  24  35
ENDBRANCH  23  24
ENDBRANCH   3  23
TORSDOF 6
ENDMDL
