MODEL 1
REMARK VINA RESULT:     -11.5      0.000      0.000
REMARK  5 active torsions:
REMARK  status: ('A' for Active; 'I' for Inactive)
REMARK    1  A    between atoms: C_4  and  N_5 
REMARK       I    between atoms: N_5  and  C_6 
REMARK    2  A    between atoms: C_6  and  C_7 
REMARK    3  A    between atoms: C_8  and  N_9 
REMARK    4  A    between atoms: N_10  and  N_11 
REMARK    5  A    between atoms: C_12  and  C_13 
ROOT
HETATM    1  C   UNL     1      -5.272   2.033 -32.542  1.00  0.00     0.110 A 
HETATM    2  C   UNL     1      -6.499   2.654 -32.416  1.00  0.00     0.143 A 
HETATM    3  N   UNL     1      -7.503   1.747 -32.739  1.00  0.00    -0.197 N 
HETATM    4  C   UNL     1      -6.899   0.575 -33.176  1.00  0.00     0.183 A 
HETATM    5  C   UNL     1      -5.519   0.740 -33.049  1.00  0.00     0.125 A 
HETATM    6  N   UNL     1      -4.654  -0.261 -33.345  1.00  0.00    -0.242 NA
HETATM    7  C   UNL     1      -5.227  -1.380 -33.815  1.00  0.00     0.086 A 
HETATM    8  C   UNL     1      -6.632  -1.524 -33.951  1.00  0.00     0.088 A 
HETATM    9  N   UNL     1      -7.502  -0.553 -33.623  1.00  0.00    -0.225 NA
HETATM   10  C   UNL     1      -4.402  -2.440 -34.176  1.00  0.00     0.034 A 
HETATM   11  C   UNL     1      -4.925  -3.637 -34.667  1.00  0.00     0.002 A 
HETATM   12  C   UNL     1      -6.299  -3.782 -34.795  1.00  0.00     0.002 A 
HETATM   13  C   UNL     1      -7.137  -2.725 -34.436  1.00  0.00     0.034 A 
ENDROOT
BRANCH   1  14
HETATM   14  C   UNL     1      -4.029   2.626 -32.099  1.00  0.00     0.262 C 
HETATM   15  N   UNL     1      -3.986   3.960 -32.456  1.00  0.00    -0.322 N 
HETATM   16  H   UNL     1      -4.867   4.343 -32.770  1.00  0.00     0.169 HD
HETATM   17  O   UNL     1      -3.140   1.958 -31.592  1.00  0.00    -0.267 OA
BRANCH  15  18
HETATM   18  C   UNL     1      -2.853   4.772 -32.674  1.00  0.00     0.041 A 
HETATM   19  C   UNL     1      -1.848   4.930 -31.713  1.00  0.00     0.037 A 
HETATM   20  C   UNL     1      -0.672   5.638 -32.002  1.00  0.00    -0.060 A 
HETATM   21  C   UNL     1       0.420   5.726 -30.976  1.00  0.00     0.048 C 
HETATM   22  C   UNL     1      -0.504   6.195 -33.271  1.00  0.00     0.007 A 
HETATM   23  C   UNL     1      -1.507   6.068 -34.229  1.00  0.00     0.009 A 
HETATM   24  C   UNL     1      -2.689   5.364 -33.946  1.00  0.00    -0.035 A 
HETATM   25  C   UNL     1      -3.723   5.239 -35.034  1.00  0.00     0.050 C 
ENDBRANCH  15  18
ENDBRANCH   1  14
BRANCH   2  26
HETATM   26  N   UNL     1      -6.812   3.900 -31.971  1.00  0.00    -0.383 N 
HETATM   27  H   UNL     1      -7.770   4.242 -32.024  1.00  0.00     0.157 HD
HETATM   28  H   UNL     1      -6.293   4.261 -31.167  1.00  0.00     0.157 HD
ENDBRANCH   2  26
BRANCH   3  29
HETATM   29  N   UNL     1      -8.814   2.094 -32.551  1.00  0.00    -0.176 NA
HETATM   30  C   UNL     1      -9.450   2.605 -33.548  1.00  0.00     0.153 C 
BRANCH  30  31
HETATM   31  C   UNL     1     -10.873   2.838 -33.373  1.00  0.00     0.011 A 
HETATM   32  C   UNL     1     -11.938   1.886 -33.469  1.00  0.00     0.004 A 
HETATM   33  C   UNL     1     -13.123   2.550 -33.142  1.00  0.00     0.043 A 
HETATM   34  C   UNL     1     -12.006   0.511 -33.779  1.00  0.00     0.014 A 
HETATM   35  C   UNL     1     -14.367   1.911 -33.103  1.00  0.00     0.030 A 
HETATM   36  N   UNL     1     -12.796   3.859 -32.880  1.00  0.00    -0.364 N 
HETATM   37  C   UNL     1     -14.406   0.549 -33.414  1.00  0.00     0.002 A 
HETATM   38  C   UNL     1     -13.245  -0.142 -33.749  1.00  0.00     0.001 A 
HETATM   39  H   UNL     1     -13.459   4.574 -32.609  1.00  0.00     0.165 HD
HETATM   40  C   UNL     1     -11.450   4.045 -33.014  1.00  0.00     0.102 A 
ENDBRANCH  30  31
ENDBRANCH   3  29
TORSDOF 5
ENDMDL
MODEL 2
REMARK VINA RESULT:     -11.4      1.738      8.437
REMARK  5 active torsions:
REMARK  status: ('A' for Active; 'I' for Inactive)
REMARK    1  A    between atoms: C_4  and  N_5 
REMARK       I    between atoms: N_5  and  C_6 
REMARK    2  A    between atoms: C_6  and  C_7 
REMARK    3  A    between atoms: C_8  and  N_9 
REMARK    4  A    between atoms: N_10  and  N_11 
REMARK    5  A    between atoms: C_12  and  C_13 
ROOT
HETATM    1  C   UNL     1      -7.780   1.120 -32.024  1.00  0.00     0.110 A 
HETATM    2  C   UNL     1      -6.828   1.951 -31.468  1.00  0.00     0.143 A 
HETATM    3  N   UNL     1      -5.562   1.492 -31.818  1.00  0.00    -0.197 N 
HETATM    4  C   UNL     1      -5.716   0.300 -32.514  1.00  0.00     0.183 A 
HETATM    5  C   UNL     1      -7.084   0.067 -32.653  1.00  0.00     0.125 A 
HETATM    6  N   UNL     1      -7.556  -1.002 -33.343  1.00  0.00    -0.242 NA
HETATM    7  C   UNL     1      -6.610  -1.826 -33.820  1.00  0.00     0.086 A 
HETATM    8  C   UNL     1      -5.222  -1.580 -33.655  1.00  0.00     0.088 A 
HETATM    9  N   UNL     1      -4.743  -0.504 -33.006  1.00  0.00    -0.225 NA
HETATM   10  C   UNL     1      -7.016  -2.965 -34.507  1.00  0.00     0.034 A 
HETATM   11  C   UNL     1      -6.092  -3.866 -35.037  1.00  0.00     0.002 A 
HETATM   12  C   UNL     1      -4.735  -3.624 -34.881  1.00  0.00     0.002 A 
HETATM   13  C   UNL     1      -4.315  -2.485 -34.192  1.00  0.00     0.034 A 
ENDROOT
BRANCH   1  14
HETATM   14  C   UNL     1      -9.196   1.416 -32.021  1.00  0.00     0.262 C 
HETATM   15  N   UNL     1      -9.778   0.962 -33.190  1.00  0.00    -0.322 N 
HETATM   16  H   UNL     1      -9.196   0.346 -33.740  1.00  0.00     0.169 HD
HETATM   17  O   UNL     1      -9.716   2.077 -31.134  1.00  0.00    -0.267 OA
BRANCH  15  18
HETATM   18  C   UNL     1     -10.947   1.430 -33.824  1.00  0.00     0.041 A 
HETATM   19  C   UNL     1     -12.159   0.732 -33.773  1.00  0.00     0.037 A 
HETATM   20  C   UNL     1     -13.336   1.280 -34.303  1.00  0.00    -0.060 A 
HETATM   21  C   UNL     1     -14.635   0.541 -34.165  1.00  0.00     0.048 C 
HETATM   22  C   UNL     1     -13.296   2.545 -34.893  1.00  0.00     0.007 A 
HETATM   23  C   UNL     1     -12.092   3.241 -34.974  1.00  0.00     0.009 A 
HETATM   24  C   UNL     1     -10.909   2.697 -34.450  1.00  0.00    -0.035 A 
HETATM   25  C   UNL     1      -9.645   3.511 -34.544  1.00  0.00     0.050 C 
ENDBRANCH  15  18
ENDBRANCH   1  14
BRANCH   2  26
HETATM   26  N   UNL     1      -6.972   3.103 -30.760  1.00  0.00    -0.383 N 
HETATM   27  H   UNL     1      -6.158   3.661 -30.509  1.00  0.00     0.157 HD
HETATM   28  H   UNL     1      -7.813   3.660 -30.926  1.00  0.00     0.157 HD
ENDBRANCH   2  26
BRANCH   3  29
HETATM   29  N   UNL     1      -4.459   2.237 -31.498  1.00  0.00    -0.176 NA
HETATM   30  C   UNL     1      -3.902   2.922 -32.436  1.00  0.00     0.153 C 
BRANCH  30  31
HETATM   31  C   UNL     1      -2.821   3.812 -32.051  1.00  0.00     0.011 A 
HETATM   32  C   UNL     1      -2.400   5.016 -32.702  1.00  0.00     0.004 A 
HETATM   33  C   UNL     1      -1.381   5.575 -31.926  1.00  0.00     0.043 A 
HETATM   34  C   UNL     1      -2.805   5.700 -33.867  1.00  0.00     0.014 A 
HETATM   35  C   UNL     1      -0.753   6.782 -32.252  1.00  0.00     0.030 A 
HETATM   36  N   UNL     1      -1.174   4.734 -30.858  1.00  0.00    -0.364 N 
HETATM   37  C   UNL     1      -1.175   7.440 -33.411  1.00  0.00     0.002 A 
HETATM   38  C   UNL     1      -2.183   6.908 -34.209  1.00  0.00     0.001 A 
HETATM   39  H   UNL     1      -0.496   4.893 -30.125  1.00  0.00     0.165 HD
HETATM   40  C   UNL     1      -2.032   3.674 -30.921  1.00  0.00     0.102 A 
ENDBRANCH  30  31
ENDBRANCH   3  29
TORSDOF 5
ENDMDL
MODEL 3
REMARK VINA RESULT:     -11.3      1.696      6.309
REMARK  5 active torsions:
REMARK  status: ('A' for Active; 'I' for Inactive)
REMARK    1  A    between atoms: C_4  and  N_5 
REMARK       I    between atoms: N_5  and  C_6 
REMARK    2  A    between atoms: C_6  and  C_7 
REMARK    3  A    between atoms: C_8  and  N_9 
REMARK    4  A    between atoms: N_10  and  N_11 
REMARK    5  A    between atoms: C_12  and  C_13 
ROOT
HETATM    1  C   UNL     1      -5.018   1.474 -31.773  1.00  0.00     0.110 A 
HETATM    2  C   UNL     1      -6.264   1.722 -31.233  1.00  0.00     0.143 A 
HETATM    3  N   UNL     1      -6.504   3.092 -31.249  1.00  0.00    -0.197 N 
HETATM    4  C   UNL     1      -5.354   3.723 -31.706  1.00  0.00     0.183 A 
HETATM    5  C   UNL     1      -4.434   2.729 -32.040  1.00  0.00     0.125 A 
HETATM    6  N   UNL     1      -3.224   3.032 -32.575  1.00  0.00    -0.242 NA
HETATM    7  C   UNL     1      -2.976   4.346 -32.697  1.00  0.00     0.086 A 
HETATM    8  C   UNL     1      -3.920   5.343 -32.336  1.00  0.00     0.088 A 
HETATM    9  N   UNL     1      -5.136   5.053 -31.842  1.00  0.00    -0.225 NA
HETATM   10  C   UNL     1      -1.741   4.737 -33.202  1.00  0.00     0.034 A 
HETATM   11  C   UNL     1      -1.412   6.084 -33.363  1.00  0.00     0.002 A 
HETATM   12  C   UNL     1      -2.336   7.059 -33.017  1.00  0.00     0.002 A 
HETATM   13  C   UNL     1      -3.578   6.679 -32.508  1.00  0.00     0.034 A 
ENDROOT
BRANCH   1  14
HETATM   14  C   UNL     1      -4.534   0.147 -32.085  1.00  0.00     0.262 C 
HETATM   15  N   UNL     1      -4.933  -0.216 -33.358  1.00  0.00    -0.322 N 
HETATM   16  H   UNL     1      -5.303   0.540 -33.917  1.00  0.00     0.169 HD
HETATM   17  O   UNL     1      -3.961  -0.543 -31.255  1.00  0.00    -0.267 OA
BRANCH  15  18
HETATM   18  C   UNL     1      -5.122  -1.513 -33.879  1.00  0.00     0.041 A 
HETATM   19  C   UNL     1      -4.162  -2.524 -33.740  1.00  0.00     0.037 A 
HETATM   20  C   UNL     1      -4.427  -3.838 -34.154  1.00  0.00    -0.060 A 
HETATM   21  C   UNL     1      -3.408  -4.915 -33.923  1.00  0.00     0.048 C 
HETATM   22  C   UNL     1      -5.669  -4.140 -34.715  1.00  0.00     0.007 A 
HETATM   23  C   UNL     1      -6.623  -3.139 -34.883  1.00  0.00     0.009 A 
HETATM   24  C   UNL     1      -6.364  -1.821 -34.476  1.00  0.00    -0.035 A 
HETATM   25  C   UNL     1      -7.448  -0.791 -34.659  1.00  0.00     0.050 C 
ENDBRANCH  15  18
ENDBRANCH   1  14
BRANCH   2  26
HETATM   26  N   UNL     1      -7.227   0.859 -30.810  1.00  0.00    -0.383 N 
HETATM   27  H   UNL     1      -7.782   1.068 -29.982  1.00  0.00     0.157 HD
HETATM   28  H   UNL     1      -7.738   0.333 -31.522  1.00  0.00     0.157 HD
ENDBRANCH   2  26
BRANCH   3  29
HETATM   29  N   UNL     1      -7.737   3.568 -30.891  1.00  0.00    -0.176 NA
HETATM   30  C   UNL     1      -8.543   3.918 -31.833  1.00  0.00     0.153 C 
BRANCH  30  31
HETATM   31  C   UNL     1      -9.892   4.288 -31.443  1.00  0.00     0.011 A 
HETATM   32  C   UNL     1     -11.127   3.776 -31.955  1.00  0.00     0.004 A 
HETATM   33  C   UNL     1     -12.160   4.366 -31.222  1.00  0.00     0.043 A 
HETATM   34  C   UNL     1     -11.467   2.844 -32.958  1.00  0.00     0.014 A 
HETATM   35  C   UNL     1     -13.510   4.069 -31.436  1.00  0.00     0.030 A 
HETATM   36  N   UNL     1     -11.579   5.221 -30.316  1.00  0.00    -0.364 N 
HETATM   37  C   UNL     1     -13.819   3.142 -32.435  1.00  0.00     0.002 A 
HETATM   38  C   UNL     1     -12.815   2.539 -33.188  1.00  0.00     0.001 A 
HETATM   39  H   UNL     1     -12.089   5.780 -29.645  1.00  0.00     0.165 HD
HETATM   40  C   UNL     1     -10.219   5.182 -30.437  1.00  0.00     0.102 A 
ENDBRANCH  30  31
ENDBRANCH   3  29
TORSDOF 5
ENDMDL
MODEL 4
REMARK VINA RESULT:     -11.1      2.132      6.574
REMARK  5 active torsions:
REMARK  status: ('A' for Active; 'I' for Inactive)
REMARK    1  A    between atoms: C_4  and  N_5 
REMARK       I    between atoms: N_5  and  C_6 
REMARK    2  A    between atoms: C_6  and  C_7 
REMARK    3  A    between atoms: C_8  and  N_9 
REMARK    4  A    between atoms: N_10  and  N_11 
REMARK    5  A    between atoms: C_12  and  C_13 
ROOT
HETATM    1  C   UNL     1      -6.441   1.256 -32.197  1.00  0.00     0.110 A 
HETATM    2  C   UNL     1      -7.761   1.642 -32.307  1.00  0.00     0.143 A 
HETATM    3  N   UNL     1      -7.817   2.946 -32.789  1.00  0.00    -0.197 N 
HETATM    4  C   UNL     1      -6.516   3.423 -32.882  1.00  0.00     0.183 A 
HETATM    5  C   UNL     1      -5.658   2.382 -32.527  1.00  0.00     0.125 A 
HETATM    6  N   UNL     1      -4.310   2.524 -32.575  1.00  0.00    -0.242 NA
HETATM    7  C   UNL     1      -3.885   3.746 -32.932  1.00  0.00     0.086 A 
HETATM    8  C   UNL     1      -4.774   4.798 -33.277  1.00  0.00     0.088 A 
HETATM    9  N   UNL     1      -6.111   4.657 -33.270  1.00  0.00    -0.225 NA
HETATM   10  C   UNL     1      -2.516   3.982 -32.969  1.00  0.00     0.034 A 
HETATM   11  C   UNL     1      -1.998   5.225 -33.337  1.00  0.00     0.002 A 
HETATM   12  C   UNL     1      -2.865   6.252 -33.679  1.00  0.00     0.002 A 
HETATM   13  C   UNL     1      -4.242   6.028 -33.645  1.00  0.00     0.034 A 
ENDROOT
BRANCH   1  14
HETATM   14  C   UNL     1      -6.027  -0.101 -31.911  1.00  0.00     0.262 C 
HETATM   15  N   UNL     1      -5.260  -0.591 -32.950  1.00  0.00    -0.322 N 
HETATM   16  H   UNL     1      -4.952   0.105 -33.614  1.00  0.00     0.169 HD
HETATM   17  O   UNL     1      -6.431  -0.706 -30.929  1.00  0.00    -0.267 OA
BRANCH  15  18
HETATM   18  C   UNL     1      -5.064  -1.934 -33.336  1.00  0.00     0.041 A 
HETATM   19  C   UNL     1      -5.921  -2.590 -34.228  1.00  0.00     0.037 A 
HETATM   20  C   UNL     1      -5.633  -3.882 -34.694  1.00  0.00    -0.060 A 
HETATM   21  C   UNL     1      -6.531  -4.529 -35.708  1.00  0.00     0.048 C 
HETATM   22  C   UNL     1      -4.473  -4.523 -34.257  1.00  0.00     0.007 A 
HETATM   23  C   UNL     1      -3.624  -3.892 -33.350  1.00  0.00     0.009 A 
HETATM   24  C   UNL     1      -3.908  -2.601 -32.876  1.00  0.00    -0.035 A 
HETATM   25  C   UNL     1      -2.936  -1.963 -31.917  1.00  0.00     0.050 C 
ENDBRANCH  15  18
ENDBRANCH   1  14
BRANCH   2  26
HETATM   26  N   UNL     1      -8.905   0.934 -32.103  1.00  0.00    -0.383 N 
HETATM   27  H   UNL     1      -9.716   1.078 -32.701  1.00  0.00     0.157 HD
HETATM   28  H   UNL     1      -8.814  -0.026 -31.761  1.00  0.00     0.157 HD
ENDBRANCH   2  26
BRANCH   3  29
HETATM   29  N   UNL     1      -9.027   3.497 -33.114  1.00  0.00    -0.176 NA
HETATM   30  C   UNL     1      -9.388   3.469 -34.350  1.00  0.00     0.153 C 
BRANCH  30  31
HETATM   31  C   UNL     1     -10.730   3.931 -34.656  1.00  0.00     0.011 A 
HETATM   32  C   UNL     1     -11.128   5.220 -35.139  1.00  0.00     0.004 A 
HETATM   33  C   UNL     1     -12.505   5.173 -35.367  1.00  0.00     0.043 A 
HETATM   34  C   UNL     1     -10.441   6.417 -35.431  1.00  0.00     0.014 A 
HETATM   35  C   UNL     1     -13.229   6.258 -35.874  1.00  0.00     0.030 A 
HETATM   36  N   UNL     1     -12.934   3.916 -35.014  1.00  0.00    -0.364 N 
HETATM   37  C   UNL     1     -12.524   7.432 -36.155  1.00  0.00     0.002 A 
HETATM   38  C   UNL     1     -11.153   7.514 -35.936  1.00  0.00     0.001 A 
HETATM   39  H   UNL     1     -13.891   3.595 -35.082  1.00  0.00     0.165 HD
HETATM   40  C   UNL     1     -11.879   3.161 -34.588  1.00  0.00     0.102 A 
ENDBRANCH  30  31
ENDBRANCH   3  29
TORSDOF 5
ENDMDL
MODEL 5
REMARK VINA RESULT:     -11.1      2.380      8.855
REMARK  5 active torsions:
REMARK  status: ('A' for Active; 'I' for Inactive)
REMARK    1  A    between atoms: C_4  and  N_5 
REMARK       I    between atoms: N_5  and  C_6 
REMARK    2  A    between atoms: C_6  and  C_7 
REMARK    3  A    between atoms: C_8  and  N_9 
REMARK    4  A    between atoms: N_10  and  N_11 
REMARK    5  A    between atoms: C_12  and  C_13 
ROOT
HETATM    1  C   UNL     1      -5.671   1.587 -32.737  1.00  0.00     0.110 A 
HETATM    2  C   UNL     1      -4.635   2.441 -32.416  1.00  0.00     0.143 A 
HETATM    3  N   UNL     1      -5.070   3.756 -32.550  1.00  0.00    -0.197 N 
HETATM    4  C   UNL     1      -6.361   3.729 -33.062  1.00  0.00     0.183 A 
HETATM    5  C   UNL     1      -6.743   2.392 -33.173  1.00  0.00     0.125 A 
HETATM    6  N   UNL     1      -7.984   2.041 -33.594  1.00  0.00    -0.242 NA
HETATM    7  C   UNL     1      -8.773   3.069 -33.941  1.00  0.00     0.086 A 
HETATM    8  C   UNL     1      -8.361   4.423 -33.835  1.00  0.00     0.088 A 
HETATM    9  N   UNL     1      -7.148   4.785 -33.383  1.00  0.00    -0.225 NA
HETATM   10  C   UNL     1     -10.048   2.788 -34.419  1.00  0.00     0.034 A 
HETATM   11  C   UNL     1     -10.928   3.804 -34.794  1.00  0.00     0.002 A 
HETATM   12  C   UNL     1     -10.529   5.128 -34.686  1.00  0.00     0.002 A 
HETATM   13  C   UNL     1      -9.251   5.423 -34.208  1.00  0.00     0.034 A 
ENDROOT
BRANCH   1  14
HETATM   14  C   UNL     1      -5.622   0.157 -32.520  1.00  0.00     0.262 C 
HETATM   15  N   UNL     1      -5.034  -0.468 -33.603  1.00  0.00    -0.322 N 
HETATM   16  H   UNL     1      -4.569   0.155 -34.249  1.00  0.00     0.169 HD
HETATM   17  O   UNL     1      -6.149  -0.367 -31.550  1.00  0.00    -0.267 OA
BRANCH  15  18
HETATM   18  C   UNL     1      -5.207  -1.795 -34.048  1.00  0.00     0.041 A 
HETATM   19  C   UNL     1      -4.262  -2.798 -33.799  1.00  0.00     0.037 A 
HETATM   20  C   UNL     1      -4.516  -4.135 -34.140  1.00  0.00    -0.060 A 
HETATM   21  C   UNL     1      -3.517  -5.199 -33.791  1.00  0.00     0.048 C 
HETATM   22  C   UNL     1      -5.732  -4.468 -34.740  1.00  0.00     0.007 A 
HETATM   23  C   UNL     1      -6.670  -3.477 -35.017  1.00  0.00     0.009 A 
HETATM   24  C   UNL     1      -6.421  -2.136 -34.683  1.00  0.00    -0.035 A 
HETATM   25  C   UNL     1      -7.488  -1.115 -34.984  1.00  0.00     0.050 C 
ENDBRANCH  15  18
ENDBRANCH   1  14
BRANCH   2  26
HETATM   26  N   UNL     1      -3.388   2.173 -31.946  1.00  0.00    -0.383 N 
HETATM   27  H   UNL     1      -3.080   1.211 -31.812  1.00  0.00     0.157 HD
HETATM   28  H   UNL     1      -2.633   2.809 -32.212  1.00  0.00     0.157 HD
ENDBRANCH   2  26
BRANCH   3  29
HETATM   29  N   UNL     1      -4.258   4.782 -32.149  1.00  0.00    -0.176 NA
HETATM   30  C   UNL     1      -4.426   5.254 -30.963  1.00  0.00     0.153 C 
BRANCH  30  31
HETATM   31  C   UNL     1      -3.467   6.245 -30.505  1.00  0.00     0.011 A 
HETATM   32  C   UNL     1      -2.038   6.185 -30.576  1.00  0.00     0.004 A 
HETATM   33  C   UNL     1      -1.545   7.398 -30.092  1.00  0.00     0.043 A 
HETATM   34  C   UNL     1      -1.114   5.220 -31.030  1.00  0.00     0.014 A 
HETATM   35  C   UNL     1      -0.179   7.699 -30.043  1.00  0.00     0.030 A 
HETATM   36  N   UNL     1      -2.628   8.159 -29.719  1.00  0.00    -0.364 N 
HETATM   37  C   UNL     1       0.715   6.726 -30.500  1.00  0.00     0.002 A 
HETATM   38  C   UNL     1       0.257   5.504 -30.984  1.00  0.00     0.001 A 
HETATM   39  H   UNL     1      -2.569   9.094 -29.338  1.00  0.00     0.165 HD
HETATM   40  C   UNL     1      -3.786   7.479 -29.964  1.00  0.00     0.102 A 
ENDBRANCH  30  31
ENDBRANCH   3  29
TORSDOF 5
ENDMDL
MODEL 6
REMARK VINA RESULT:     -10.9      1.490      2.318
REMARK  5 active torsions:
REMARK  status: ('A' for Active; 'I' for Inactive)
REMARK    1  A    between atoms: C_4  and  N_5 
REMARK       I    between atoms: N_5  and  C_6 
REMARK    2  A    between atoms: C_6  and  C_7 
REMARK    3  A    between atoms: C_8  and  N_9 
REMARK    4  A    between atoms: N_10  and  N_11 
REMARK    5  A    between atoms: C_12  and  C_13 
ROOT
HETATM    1  C   UNL     1      -6.603   2.013 -32.239  1.00  0.00     0.110 A 
HETATM    2  C   UNL     1      -7.960   2.253 -32.160  1.00  0.00     0.143 A 
HETATM    3  N   UNL     1      -8.647   1.135 -32.623  1.00  0.00    -0.197 N 
HETATM    4  C   UNL     1      -7.713   0.224 -33.098  1.00  0.00     0.183 A 
HETATM    5  C   UNL     1      -6.446   0.755 -32.856  1.00  0.00     0.125 A 
HETATM    6  N   UNL     1      -5.317   0.067 -33.160  1.00  0.00    -0.242 NA
HETATM    7  C   UNL     1      -5.523  -1.120 -33.752  1.00  0.00     0.086 A 
HETATM    8  C   UNL     1      -6.821  -1.637 -34.003  1.00  0.00     0.088 A 
HETATM    9  N   UNL     1      -7.946  -0.981 -33.672  1.00  0.00    -0.225 NA
HETATM   10  C   UNL     1      -4.414  -1.869 -34.128  1.00  0.00     0.034 A 
HETATM   11  C   UNL     1      -4.548  -3.115 -34.743  1.00  0.00     0.002 A 
HETATM   12  C   UNL     1      -5.816  -3.624 -34.984  1.00  0.00     0.002 A 
HETATM   13  C   UNL     1      -6.937  -2.881 -34.613  1.00  0.00     0.034 A 
ENDROOT
BRANCH   1  14
HETATM   14  C   UNL     1      -5.604   2.886 -31.661  1.00  0.00     0.262 C 
HETATM   15  N   UNL     1      -5.473   4.030 -32.426  1.00  0.00    -0.322 N 
HETATM   16  H   UNL     1      -6.201   4.163 -33.115  1.00  0.00     0.169 HD
HETATM   17  O   UNL     1      -4.929   2.548 -30.700  1.00  0.00    -0.267 OA
BRANCH  15  18
HETATM   18  C   UNL     1      -4.355   4.881 -32.543  1.00  0.00     0.041 A 
HETATM   19  C   UNL     1      -3.368   4.693 -33.519  1.00  0.00     0.037 A 
HETATM   20  C   UNL     1      -2.335   5.625 -33.696  1.00  0.00    -0.060 A 
HETATM   21  C   UNL     1      -1.336   5.435 -34.800  1.00  0.00     0.048 C 
HETATM   22  C   UNL     1      -2.292   6.759 -32.883  1.00  0.00     0.007 A 
HETATM   23  C   UNL     1      -3.252   6.947 -31.891  1.00  0.00     0.009 A 
HETATM   24  C   UNL     1      -4.286   6.016 -31.705  1.00  0.00    -0.035 A 
HETATM   25  C   UNL     1      -5.309   6.290 -30.634  1.00  0.00     0.050 C 
ENDBRANCH  15  18
ENDBRANCH   1  14
BRANCH   2  26
HETATM   26  N   UNL     1      -8.638   3.315 -31.649  1.00  0.00    -0.383 N 
HETATM   27  H   UNL     1      -8.148   4.038 -31.125  1.00  0.00     0.157 HD
HETATM   28  H   UNL     1      -9.438   3.667 -32.180  1.00  0.00     0.157 HD
ENDBRANCH   2  26
BRANCH   3  29
HETATM   29  N   UNL     1     -10.010   1.083 -32.510  1.00  0.00    -0.176 NA
HETATM   30  C   UNL     1     -10.704   1.050 -33.594  1.00  0.00     0.153 C 
BRANCH  30  31
HETATM   31  C   UNL     1     -12.137   0.856 -33.456  1.00  0.00     0.011 A 
HETATM   32  C   UNL     1     -13.121   1.821 -33.067  1.00  0.00     0.004 A 
HETATM   33  C   UNL     1     -14.370   1.202 -33.156  1.00  0.00     0.043 A 
HETATM   34  C   UNL     1     -13.072   3.174 -32.670  1.00  0.00     0.014 A 
HETATM   35  C   UNL     1     -15.569   1.866 -32.875  1.00  0.00     0.030 A 
HETATM   36  N   UNL     1     -14.154  -0.094 -33.561  1.00  0.00    -0.364 N 
HETATM   37  C   UNL     1     -15.492   3.206 -32.485  1.00  0.00     0.002 A 
HETATM   38  C   UNL     1     -14.263   3.852 -32.381  1.00  0.00     0.001 A 
HETATM   39  H   UNL     1     -14.885  -0.776 -33.717  1.00  0.00     0.165 HD
HETATM   40  C   UNL     1     -12.820  -0.313 -33.746  1.00  0.00     0.102 A 
ENDBRANCH  30  31
ENDBRANCH   3  29
TORSDOF 5
ENDMDL
MODEL 7
REMARK VINA RESULT:     -10.9      3.582      9.558
REMARK  5 active torsions:
REMARK  status: ('A' for Active; 'I' for Inactive)
REMARK    1  A    between atoms: C_4  and  N_5 
REMARK       I    between atoms: N_5  and  C_6 
REMARK    2  A    between atoms: C_6  and  C_7 
REMARK    3  A    between atoms: C_8  and  N_9 
REMARK    4  A    between atoms: N_10  and  N_11 
REMARK    5  A    between atoms: C_12  and  C_13 
ROOT
HETATM    1  C   UNL     1     -10.199   2.989 -32.883  1.00  0.00     0.110 A 
HETATM    2  C   UNL     1      -9.471   1.919 -33.365  1.00  0.00     0.143 A 
HETATM    3  N   UNL     1      -8.324   1.764 -32.594  1.00  0.00    -0.197 N 
HETATM    4  C   UNL     1      -8.275   2.812 -31.683  1.00  0.00     0.183 A 
HETATM    5  C   UNL     1      -9.434   3.569 -31.850  1.00  0.00     0.125 A 
HETATM    6  N   UNL     1      -9.705   4.637 -31.059  1.00  0.00    -0.242 NA
HETATM    7  C   UNL     1      -8.751   4.927 -30.160  1.00  0.00     0.086 A 
HETATM    8  C   UNL     1      -7.571   4.153 -30.016  1.00  0.00     0.088 A 
HETATM    9  N   UNL     1      -7.310   3.070 -30.768  1.00  0.00    -0.225 NA
HETATM   10  C   UNL     1      -8.938   6.032 -29.337  1.00  0.00     0.034 A 
HETATM   11  C   UNL     1      -7.995   6.394 -28.374  1.00  0.00     0.002 A 
HETATM   12  C   UNL     1      -6.842   5.635 -28.228  1.00  0.00     0.002 A 
HETATM   13  C   UNL     1      -6.643   4.524 -29.049  1.00  0.00     0.034 A 
ENDROOT
BRANCH   1  14
HETATM   14  C   UNL     1     -11.537   3.308 -33.329  1.00  0.00     0.262 C 
HETATM   15  N   UNL     1     -12.432   3.166 -32.285  1.00  0.00    -0.322 N 
HETATM   16  H   UNL     1     -12.006   3.067 -31.374  1.00  0.00     0.169 HD
HETATM   17  O   UNL     1     -11.788   3.548 -34.501  1.00  0.00    -0.267 OA
BRANCH  15  18
HETATM   18  C   UNL     1     -13.814   2.894 -32.348  1.00  0.00     0.041 A 
HETATM   19  C   UNL     1     -14.778   3.799 -31.887  1.00  0.00     0.037 A 
HETATM   20  C   UNL     1     -16.147   3.561 -32.077  1.00  0.00    -0.060 A 
HETATM   21  C   UNL     1     -17.153   4.586 -31.639  1.00  0.00     0.048 C 
HETATM   22  C   UNL     1     -16.554   2.400 -32.736  1.00  0.00     0.007 A 
HETATM   23  C   UNL     1     -15.608   1.478 -33.177  1.00  0.00     0.009 A 
HETATM   24  C   UNL     1     -14.236   1.707 -32.987  1.00  0.00    -0.035 A 
HETATM   25  C   UNL     1     -13.261   0.684 -33.512  1.00  0.00     0.050 C 
ENDBRANCH  15  18
ENDBRANCH   1  14
BRANCH   2  26
HETATM   26  N   UNL     1      -9.762   1.032 -34.354  1.00  0.00    -0.383 N 
HETATM   27  H   UNL     1      -9.652   0.031 -34.200  1.00  0.00     0.157 HD
HETATM   28  H   UNL     1     -10.527   1.265 -34.991  1.00  0.00     0.157 HD
ENDBRANCH   2  26
BRANCH   3  29
HETATM   29  N   UNL     1      -7.515   0.678 -32.795  1.00  0.00    -0.176 NA
HETATM   30  C   UNL     1      -6.361   0.878 -33.331  1.00  0.00     0.153 C 
BRANCH  30  31
HETATM   31  C   UNL     1      -5.463  -0.261 -33.410  1.00  0.00     0.011 A 
HETATM   32  C   UNL     1      -5.747  -1.571 -33.913  1.00  0.00     0.004 A 
HETATM   33  C   UNL     1      -4.558  -2.303 -33.866  1.00  0.00     0.043 A 
HETATM   34  C   UNL     1      -6.899  -2.200 -34.430  1.00  0.00     0.014 A 
HETATM   35  C   UNL     1      -4.461  -3.625 -34.313  1.00  0.00     0.030 A 
HETATM   36  N   UNL     1      -3.594  -1.480 -33.334  1.00  0.00    -0.364 N 
HETATM   37  C   UNL     1      -5.617  -4.224 -34.821  1.00  0.00     0.002 A 
HETATM   38  C   UNL     1      -6.820  -3.525 -34.878  1.00  0.00     0.001 A 
HETATM   39  H   UNL     1      -2.629  -1.745 -33.189  1.00  0.00     0.165 HD
HETATM   40  C   UNL     1      -4.124  -0.252 -33.058  1.00  0.00     0.102 A 
ENDBRANCH  30  31
ENDBRANCH   3  29
TORSDOF 5
ENDMDL
MODEL 8
REMARK VINA RESULT:     -10.8      2.012      8.397
REMARK  5 active torsions:
REMARK  status: ('A' for Active; 'I' for Inactive)
REMARK    1  A    between atoms: C_4  and  N_5 
REMARK       I    between atoms: N_5  and  C_6 
REMARK    2  A    between atoms: C_6  and  C_7 
REMARK    3  A    between atoms: C_8  and  N_9 
REMARK    4  A    between atoms: N_10  and  N_11 
REMARK    5  A    between atoms: C_12  and  C_13 
ROOT
HETATM    1  C   UNL     1      -7.617   1.894 -31.869  1.00  0.00     0.110 A 
HETATM    2  C   UNL     1      -6.658   2.753 -31.370  1.00  0.00     0.143 A 
HETATM    3  N   UNL     1      -5.397   2.288 -31.733  1.00  0.00    -0.197 N 
HETATM    4  C   UNL     1      -5.560   1.068 -32.377  1.00  0.00     0.183 A 
HETATM    5  C   UNL     1      -6.929   0.821 -32.472  1.00  0.00     0.125 A 
HETATM    6  N   UNL     1      -7.411  -0.277 -33.107  1.00  0.00    -0.242 NA
HETATM    7  C   UNL     1      -6.471  -1.114 -33.574  1.00  0.00     0.086 A 
HETATM    8  C   UNL     1      -5.081  -0.852 -33.454  1.00  0.00     0.088 A 
HETATM    9  N   UNL     1      -4.594   0.251 -32.861  1.00  0.00    -0.225 NA
HETATM   10  C   UNL     1      -6.886  -2.282 -34.205  1.00  0.00     0.034 A 
HETATM   11  C   UNL     1      -5.968  -3.198 -34.721  1.00  0.00     0.002 A 
HETATM   12  C   UNL     1      -4.610  -2.941 -34.610  1.00  0.00     0.002 A 
HETATM   13  C   UNL     1      -4.181  -1.773 -33.978  1.00  0.00     0.034 A 
ENDROOT
BRANCH   1  14
HETATM   14  C   UNL     1      -9.035   2.181 -31.842  1.00  0.00     0.262 C 
HETATM   15  N   UNL     1      -9.647   1.652 -32.962  1.00  0.00    -0.322 N 
HETATM   16  H   UNL     1      -9.077   1.007 -33.491  1.00  0.00     0.169 HD
HETATM   17  O   UNL     1      -9.534   2.893 -30.982  1.00  0.00    -0.267 OA
BRANCH  15  18
HETATM   18  C   UNL     1     -10.838   2.073 -33.589  1.00  0.00     0.041 A 
HETATM   19  C   UNL     1     -10.997   3.365 -34.107  1.00  0.00     0.037 A 
HETATM   20  C   UNL     1     -12.141   3.719 -34.837  1.00  0.00    -0.060 A 
HETATM   21  C   UNL     1     -12.248   5.087 -35.444  1.00  0.00     0.048 C 
HETATM   22  C   UNL     1     -13.138   2.765 -35.050  1.00  0.00     0.007 A 
HETATM   23  C   UNL     1     -13.005   1.484 -34.519  1.00  0.00     0.009 A 
HETATM   24  C   UNL     1     -11.866   1.124 -33.783  1.00  0.00    -0.035 A 
HETATM   25  C   UNL     1     -11.770  -0.286 -33.260  1.00  0.00     0.050 C 
ENDBRANCH  15  18
ENDBRANCH   1  14
BRANCH   2  26
HETATM   26  N   UNL     1      -6.792   3.932 -30.706  1.00  0.00    -0.383 N 
HETATM   27  H   UNL     1      -7.650   4.475 -30.783  1.00  0.00     0.157 HD
HETATM   28  H   UNL     1      -6.336   4.018 -29.794  1.00  0.00     0.157 HD
ENDBRANCH   2  26
BRANCH   3  29
HETATM   29  N   UNL     1      -4.293   3.053 -31.471  1.00  0.00    -0.176 NA
HETATM   30  C   UNL     1      -3.889   3.861 -32.388  1.00  0.00     0.153 C 
BRANCH  30  31
HETATM   31  C   UNL     1      -2.803   4.762 -32.043  1.00  0.00     0.011 A 
HETATM   32  C   UNL     1      -2.808   5.814 -31.072  1.00  0.00     0.004 A 
HETATM   33  C   UNL     1      -1.519   6.350 -31.030  1.00  0.00     0.043 A 
HETATM   34  C   UNL     1      -3.782   6.347 -30.201  1.00  0.00     0.014 A 
HETATM   35  C   UNL     1      -1.153   7.385 -30.163  1.00  0.00     0.030 A 
HETATM   36  N   UNL     1      -0.764   5.668 -31.956  1.00  0.00    -0.364 N 
HETATM   37  C   UNL     1      -2.137   7.894 -29.311  1.00  0.00     0.002 A 
HETATM   38  C   UNL     1      -3.433   7.387 -29.330  1.00  0.00     0.001 A 
HETATM   39  H   UNL     1       0.216   5.842 -32.138  1.00  0.00     0.165 HD
HETATM   40  C   UNL     1      -1.522   4.712 -32.569  1.00  0.00     0.102 A 
ENDBRANCH  30  31
ENDBRANCH   3  29
TORSDOF 5
ENDMDL
MODEL 9
REMARK VINA RESULT:     -10.7      1.488      6.100
REMARK  5 active torsions:
REMARK  status: ('A' for Active; 'I' for Inactive)
REMARK    1  A    between atoms: C_4  and  N_5 
REMARK       I    between atoms: N_5  and  C_6 
REMARK    2  A    between atoms: C_6  and  C_7 
REMARK    3  A    between atoms: C_8  and  N_9 
REMARK    4  A    between atoms: N_10  and  N_11 
REMARK    5  A    between atoms: C_12  and  C_13 
ROOT
HETATM    1  C   UNL     1      -6.123   0.951 -31.763  1.00  0.00     0.110 A 
HETATM    2  C   UNL     1      -7.465   1.239 -31.613  1.00  0.00     0.143 A 
HETATM    3  N   UNL     1      -7.698   2.549 -32.020  1.00  0.00    -0.197 N 
HETATM    4  C   UNL     1      -6.473   3.126 -32.329  1.00  0.00     0.183 A 
HETATM    5  C   UNL     1      -5.495   2.142 -32.182  1.00  0.00     0.125 A 
HETATM    6  N   UNL     1      -4.192   2.387 -32.469  1.00  0.00    -0.242 NA
HETATM    7  C   UNL     1      -3.926   3.648 -32.845  1.00  0.00     0.086 A 
HETATM    8  C   UNL     1      -4.934   4.639 -32.975  1.00  0.00     0.088 A 
HETATM    9  N   UNL     1      -6.233   4.397 -32.730  1.00  0.00    -0.225 NA
HETATM   10  C   UNL     1      -2.607   3.987 -33.121  1.00  0.00     0.034 A 
HETATM   11  C   UNL     1      -2.253   5.276 -33.523  1.00  0.00     0.002 A 
HETATM   12  C   UNL     1      -3.237   6.245 -33.656  1.00  0.00     0.002 A 
HETATM   13  C   UNL     1      -4.566   5.916 -33.381  1.00  0.00     0.034 A 
ENDROOT
BRANCH   1  14
HETATM   14  C   UNL     1      -5.572  -0.379 -31.617  1.00  0.00     0.262 C 
HETATM   15  N   UNL     1      -5.088  -0.828 -32.831  1.00  0.00    -0.322 N 
HETATM   16  H   UNL     1      -5.012  -0.117 -33.545  1.00  0.00     0.169 HD
HETATM   17  O   UNL     1      -5.660  -1.003 -30.570  1.00  0.00    -0.267 OA
BRANCH  15  18
HETATM   18  C   UNL     1      -4.929  -2.158 -33.272  1.00  0.00     0.041 A 
HETATM   19  C   UNL     1      -5.804  -2.754 -34.188  1.00  0.00     0.037 A 
HETATM   20  C   UNL     1      -5.551  -4.033 -34.707  1.00  0.00    -0.060 A 
HETATM   21  C   UNL     1      -6.467  -4.614 -35.744  1.00  0.00     0.048 C 
HETATM   22  C   UNL     1      -4.407  -4.722 -34.300  1.00  0.00     0.007 A 
HETATM   23  C   UNL     1      -3.541  -4.152 -33.369  1.00  0.00     0.009 A 
HETATM   24  C   UNL     1      -3.790  -2.874 -32.842  1.00  0.00    -0.035 A 
HETATM   25  C   UNL     1      -2.800  -2.302 -31.861  1.00  0.00     0.050 C 
ENDBRANCH  15  18
ENDBRANCH   1  14
BRANCH   2  26
HETATM   26  N   UNL     1      -8.499   0.441 -31.234  1.00  0.00    -0.383 N 
HETATM   27  H   UNL     1      -9.018  -0.097 -31.926  1.00  0.00     0.157 HD
HETATM   28  H   UNL     1      -8.434  -0.020 -30.324  1.00  0.00     0.157 HD
ENDBRANCH   2  26
BRANCH   3  29
HETATM   29  N   UNL     1      -8.983   3.016 -32.094  1.00  0.00    -0.176 NA
HETATM   30  C   UNL     1      -9.628   2.830 -33.193  1.00  0.00     0.153 C 
BRANCH  30  31
HETATM   31  C   UNL     1     -11.031   3.207 -33.207  1.00  0.00     0.011 A 
HETATM   32  C   UNL     1     -12.169   2.353 -33.360  1.00  0.00     0.004 A 
HETATM   33  C   UNL     1     -13.310   3.148 -33.225  1.00  0.00     0.043 A 
HETATM   34  C   UNL     1     -12.341   0.969 -33.576  1.00  0.00     0.014 A 
HETATM   35  C   UNL     1     -14.608   2.632 -33.290  1.00  0.00     0.030 A 
HETATM   36  N   UNL     1     -12.883   4.439 -33.022  1.00  0.00    -0.364 N 
HETATM   37  C   UNL     1     -14.750   1.258 -33.503  1.00  0.00     0.002 A 
HETATM   38  C   UNL     1     -13.636   0.437 -33.647  1.00  0.00     0.001 A 
HETATM   39  H   UNL     1     -13.497   5.232 -32.885  1.00  0.00     0.165 HD
HETATM   40  C   UNL     1     -11.519   4.488 -33.007  1.00  0.00     0.102 A 
ENDBRANCH  30  31
ENDBRANCH   3  29
TORSDOF 5
ENDMDL
MODEL 10
REMARK VINA RESULT:     -10.5      3.453      7.584
REMARK  5 active torsions:
REMARK  status: ('A' for Active; 'I' for Inactive)
REMARK    1  A    between atoms: C_4  and  N_5 
REMARK       I    between atoms: N_5  and  C_6 
REMARK    2  A    between atoms: C_6  and  C_7 
REMARK    3  A    between atoms: C_8  and  N_9 
REMARK    4  A    between atoms: N_10  and  N_11 
REMARK    5  A    between atoms: C_12  and  C_13 
ROOT
HETATM    1  C   UNL     1      -8.540   1.863 -33.994  1.00  0.00     0.110 A 
HETATM    2  C   UNL     1      -8.025   2.937 -33.296  1.00  0.00     0.143 A 
HETATM    3  N   UNL     1      -9.051   3.557 -32.590  1.00  0.00    -0.197 N 
HETATM    4  C   UNL     1     -10.244   2.931 -32.930  1.00  0.00     0.183 A 
HETATM    5  C   UNL     1      -9.936   1.878 -33.791  1.00  0.00     0.125 A 
HETATM    6  N   UNL     1     -10.893   1.037 -34.256  1.00  0.00    -0.242 NA
HETATM    7  C   UNL     1     -12.142   1.337 -33.868  1.00  0.00     0.086 A 
HETATM    8  C   UNL     1     -12.438   2.423 -33.003  1.00  0.00     0.088 A 
HETATM    9  N   UNL     1     -11.493   3.239 -32.505  1.00  0.00    -0.225 NA
HETATM   10  C   UNL     1     -13.185   0.544 -34.334  1.00  0.00     0.034 A 
HETATM   11  C   UNL     1     -14.509   0.790 -33.970  1.00  0.00     0.002 A 
HETATM   12  C   UNL     1     -14.799   1.847 -33.120  1.00  0.00     0.002 A 
HETATM   13  C   UNL     1     -13.762   2.652 -32.646  1.00  0.00     0.034 A 
ENDROOT
BRANCH   1  14
HETATM   14  C   UNL     1      -7.718   0.887 -34.676  1.00  0.00     0.262 C 
HETATM   15  N   UNL     1      -7.731  -0.310 -33.985  1.00  0.00    -0.322 N 
HETATM   16  H   UNL     1      -8.438  -0.375 -33.265  1.00  0.00     0.169 HD
HETATM   17  O   UNL     1      -7.044   1.180 -35.652  1.00  0.00    -0.267 OA
BRANCH  15  18
HETATM   18  C   UNL     1      -6.756  -1.328 -33.980  1.00  0.00     0.041 A 
HETATM   19  C   UNL     1      -6.949  -2.555 -34.625  1.00  0.00     0.037 A 
HETATM   20  C   UNL     1      -5.916  -3.500 -34.714  1.00  0.00    -0.060 A 
HETATM   21  C   UNL     1      -6.130  -4.774 -35.478  1.00  0.00     0.048 C 
HETATM   22  C   UNL     1      -4.674  -3.209 -34.146  1.00  0.00     0.007 A 
HETATM   23  C   UNL     1      -4.475  -2.003 -33.479  1.00  0.00     0.009 A 
HETATM   24  C   UNL     1      -5.505  -1.054 -33.382  1.00  0.00    -0.035 A 
HETATM   25  C   UNL     1      -5.218   0.242 -32.671  1.00  0.00     0.050 C 
ENDBRANCH  15  18
ENDBRANCH   1  14
BRANCH   2  26
HETATM   26  N   UNL     1      -6.741   3.365 -33.161  1.00  0.00    -0.383 N 
HETATM   27  H   UNL     1      -6.173   3.057 -32.374  1.00  0.00     0.157 HD
HETATM   28  H   UNL     1      -6.202   3.525 -34.016  1.00  0.00     0.157 HD
ENDBRANCH   2  26
BRANCH   3  29
HETATM   29  N   UNL     1      -8.756   4.564 -31.711  1.00  0.00    -0.176 NA
HETATM   30  C   UNL     1      -8.750   4.283 -30.454  1.00  0.00     0.153 C 
BRANCH  30  31
HETATM   31  C   UNL     1      -8.302   5.325 -29.547  1.00  0.00     0.011 A 
HETATM   32  C   UNL     1      -8.957   6.559 -29.233  1.00  0.00     0.004 A 
HETATM   33  C   UNL     1      -8.195   7.198 -28.251  1.00  0.00     0.043 A 
HETATM   34  C   UNL     1     -10.143   7.185 -29.672  1.00  0.00     0.014 A 
HETATM   35  C   UNL     1      -8.560   8.424 -27.684  1.00  0.00     0.030 A 
HETATM   36  N   UNL     1      -7.108   6.397 -27.995  1.00  0.00    -0.364 N 
HETATM   37  C   UNL     1      -9.739   9.022 -28.137  1.00  0.00     0.002 A 
HETATM   38  C   UNL     1     -10.519   8.415 -29.117  1.00  0.00     0.001 A 
HETATM   39  H   UNL     1      -6.386   6.608 -27.318  1.00  0.00     0.165 HD
HETATM   40  C   UNL     1      -7.161   5.270 -28.764  1.00  0.00     0.102 A 
ENDBRANCH  30  31
ENDBRANCH   3  29
TORSDOF 5
ENDMDL
