MODEL 1
REMARK VINA RESULT:      -8.6      0.000      0.000
REMARK  8 active torsions:
REMARK  status: ('A' for Active; 'I' for Inactive)
REMARK    1  A    between atoms: O_2  and  C_3 
REMARK    2  A    between atoms: C_6  and  C_7 
REMARK    3  A    between atoms: C_7  and  N_8 
REMARK    4  A    between atoms: C_7  and  C_27 
REMARK    5  A    between atoms: N_8  and  C_11 
REMARK    6  A    between atoms: C_11  and  C_12 
REMARK       I    between atoms: C_12  and  N_13 
REMARK    7  A    between atoms: N_13  and  C_14 
REMARK    8  A    between atoms: C_17  and  N_18 
ROOT
HETATM    1  N   UNL     1      -2.960   6.662 -28.384  1.00  0.00    -0.055 N 
HETATM    2  H   UNL     1      -2.867   5.774 -28.903  1.00  0.00     0.278 HD
HETATM    3  H   UNL     1      -2.761   6.462 -27.403  1.00  0.00     0.278 HD
ENDROOT
BRANCH   1   4
HETATM    4  C   UNL     1      -1.913   7.581 -28.959  1.00  0.00     0.252 C 
BRANCH   4   5
HETATM    5  C   UNL     1      -1.618   7.282 -30.420  1.00  0.00    -0.023 A 
HETATM    6  C   UNL     1      -1.062   6.036 -30.768  1.00  0.00     0.012 A 
HETATM    7  C   UNL     1      -0.834   5.692 -32.105  1.00  0.00     0.037 A 
HETATM    8  C   UNL     1      -1.164   6.582 -33.122  1.00  0.00     0.068 A 
HETATM    9  C   UNL     1      -1.687   7.831 -32.789  1.00  0.00     0.037 A 
HETATM   10  C   UNL     1      -1.922   8.180 -31.455  1.00  0.00     0.012 A 
BRANCH   8  11
HETATM   11  O   UNL     1      -1.014   6.359 -34.460  1.00  0.00    -0.356 OA
HETATM   12  C   UNL     1      -1.615   5.175 -34.976  1.00  0.00     0.210 C 
ENDBRANCH   8  11
ENDBRANCH   4   5
BRANCH   4  13
HETATM   13  C   UNL     1      -0.659   7.649 -28.103  1.00  0.00    -0.023 A 
HETATM   14  C   UNL     1       0.421   8.450 -28.519  1.00  0.00     0.009 A 
HETATM   15  C   UNL     1       1.580   8.541 -27.746  1.00  0.00     0.001 A 
HETATM   16  C   UNL     1       1.679   7.836 -26.550  1.00  0.00     0.000 A 
HETATM   17  C   UNL     1       0.622   7.034 -26.126  1.00  0.00     0.001 A 
HETATM   18  C   UNL     1      -0.539   6.938 -26.895  1.00  0.00     0.009 A 
ENDBRANCH   4  13
ENDBRANCH   1   4
BRANCH   1  19
HETATM   19  C   UNL     1      -4.393   7.116 -28.561  1.00  0.00     0.336 C 
BRANCH  19  20
HETATM   20  C   UNL     1      -5.062   6.334 -29.690  1.00  0.00     0.248 C 
HETATM   21  N   UNL     1      -4.527   5.084 -29.922  1.00  0.00    -0.326 N 
HETATM   22  H   UNL     1      -3.727   4.782 -29.376  1.00  0.00     0.169 HD
HETATM   23  O   UNL     1      -6.074   6.822 -30.190  1.00  0.00    -0.271 OA
BRANCH  21  24
HETATM   24  C   UNL     1      -5.061   4.095 -30.779  1.00  0.00     0.034 A 
HETATM   25  C   UNL     1      -6.219   3.373 -30.509  1.00  0.00     0.032 A 
HETATM   26  C   UNL     1      -6.648   2.357 -31.377  1.00  0.00     0.032 A 
HETATM   27  C   UNL     1      -5.930   2.023 -32.529  1.00  0.00     0.037 A 
HETATM   28  C   UNL     1      -4.790   2.787 -32.814  1.00  0.00     0.032 A 
HETATM   29  C   UNL     1      -4.365   3.813 -31.956  1.00  0.00     0.032 A 
BRANCH  27  30
HETATM   30  N   UNL     1      -6.320   0.945 -33.373  1.00  0.00    -0.318 N 
HETATM   31  C   UNL     1      -6.116  -0.423 -33.119  1.00  0.00     0.224 C 
HETATM   32  O   UNL     1      -5.647  -0.964 -32.129  1.00  0.00    -0.273 OA
HETATM   33  C   UNL     1      -6.506  -1.190 -34.360  1.00  0.00     0.105 C 
HETATM   34  C   UNL     1      -7.366  -0.206 -35.125  1.00  0.00     0.029 C 
HETATM   35  C   UNL     1      -6.810   1.142 -34.718  1.00  0.00     0.133 C 
ENDBRANCH  27  30
ENDBRANCH  21  24
ENDBRANCH  19  20
ENDBRANCH   1  19
TORSDOF 8
ENDMDL
MODEL 2
REMARK VINA RESULT:      -8.4      2.786     10.121
REMARK  8 active torsions:
REMARK  status: ('A' for Active; 'I' for Inactive)
REMARK    1  A    between atoms: O_2  and  C_3 
REMARK    2  A    between atoms: C_6  and  C_7 
REMARK    3  A    between atoms: C_7  and  N_8 
REMARK    4  A    between atoms: C_7  and  C_27 
REMARK    5  A    between atoms: N_8  and  C_11 
REMARK    6  A    between atoms: C_11  and  C_12 
REMARK       I    between atoms: C_12  and  N_13 
REMARK    7  A    between atoms: N_13  and  C_14 
REMARK    8  A    between atoms: C_17  and  N_18 
ROOT
HETATM    1  N   UNL     1      -5.655   1.671 -32.568  1.00  0.00    -0.055 N 
HETATM    2  H   UNL     1      -6.403   1.876 -31.887  1.00  0.00     0.278 HD
HETATM    3  H   UNL     1      -4.976   1.069 -32.100  1.00  0.00     0.278 HD
ENDROOT
BRANCH   1   4
HETATM    4  C   UNL     1      -6.324   0.934 -33.698  1.00  0.00     0.252 C 
BRANCH   4   5
HETATM    5  C   UNL     1      -7.840   0.941 -33.579  1.00  0.00    -0.023 A 
HETATM    6  C   UNL     1      -8.590   1.796 -34.408  1.00  0.00     0.012 A 
HETATM    7  C   UNL     1      -9.990   1.789 -34.380  1.00  0.00     0.037 A 
HETATM    8  C   UNL     1     -10.668   0.924 -33.526  1.00  0.00     0.068 A 
HETATM    9  C   UNL     1      -9.936   0.094 -32.678  1.00  0.00     0.037 A 
HETATM   10  C   UNL     1      -8.537   0.092 -32.705  1.00  0.00     0.012 A 
BRANCH   8  11
HETATM   11  O   UNL     1     -12.023   0.805 -33.420  1.00  0.00    -0.356 OA
HETATM   12  C   UNL     1     -12.771   2.016 -33.456  1.00  0.00     0.210 C 
ENDBRANCH   8  11
ENDBRANCH   4   5
BRANCH   4  13
HETATM   13  C   UNL     1      -5.753  -0.459 -33.911  1.00  0.00    -0.023 A 
HETATM   14  C   UNL     1      -4.652  -0.880 -33.142  1.00  0.00     0.009 A 
HETATM   15  C   UNL     1      -4.116  -2.158 -33.308  1.00  0.00     0.001 A 
HETATM   16  C   UNL     1      -4.667  -3.032 -34.241  1.00  0.00     0.000 A 
HETATM   17  C   UNL     1      -5.753  -2.629 -35.014  1.00  0.00     0.001 A 
HETATM   18  C   UNL     1      -6.293  -1.352 -34.854  1.00  0.00     0.009 A 
ENDBRANCH   4  13
ENDBRANCH   1   4
BRANCH   1  19
HETATM   19  C   UNL     1      -5.031   3.000 -32.935  1.00  0.00     0.336 C 
BRANCH  19  20
HETATM   20  C   UNL     1      -3.908   3.347 -31.959  1.00  0.00     0.248 C 
HETATM   21  N   UNL     1      -3.388   4.617 -32.104  1.00  0.00    -0.326 N 
HETATM   22  H   UNL     1      -3.743   5.212 -32.845  1.00  0.00     0.169 HD
HETATM   23  O   UNL     1      -3.663   2.532 -31.071  1.00  0.00    -0.271 OA
BRANCH  21  24
HETATM   24  C   UNL     1      -2.475   5.248 -31.230  1.00  0.00     0.034 A 
HETATM   25  C   UNL     1      -1.131   4.905 -31.127  1.00  0.00     0.032 A 
HETATM   26  C   UNL     1      -0.302   5.532 -30.183  1.00  0.00     0.032 A 
HETATM   27  C   UNL     1      -0.791   6.508 -29.309  1.00  0.00     0.037 A 
HETATM   28  C   UNL     1      -2.136   6.877 -29.453  1.00  0.00     0.032 A 
HETATM   29  C   UNL     1      -2.965   6.262 -30.404  1.00  0.00     0.032 A 
BRANCH  27  30
HETATM   30  N   UNL     1       0.026   7.094 -28.301  1.00  0.00    -0.318 N 
HETATM   31  C   UNL     1       0.054   6.733 -26.942  1.00  0.00     0.224 C 
HETATM   32  O   UNL     1      -0.535   5.829 -26.371  1.00  0.00    -0.273 OA
HETATM   33  C   UNL     1       0.912   7.739 -26.212  1.00  0.00     0.105 C 
HETATM   34  C   UNL     1       1.718   8.384 -27.321  1.00  0.00     0.029 C 
HETATM   35  C   UNL     1       0.803   8.292 -28.524  1.00  0.00     0.133 C 
ENDBRANCH  27  30
ENDBRANCH  21  24
ENDBRANCH  19  20
ENDBRANCH   1  19
TORSDOF 8
ENDMDL
MODEL 3
REMARK VINA RESULT:      -8.4      3.566      9.811
REMARK  8 active torsions:
REMARK  status: ('A' for Active; 'I' for Inactive)
REMARK    1  A    between atoms: O_2  and  C_3 
REMARK    2  A    between atoms: C_6  and  C_7 
REMARK    3  A    between atoms: C_7  and  N_8 
REMARK    4  A    between atoms: C_7  and  C_27 
REMARK    5  A    between atoms: N_8  and  C_11 
REMARK    6  A    between atoms: C_11  and  C_12 
REMARK       I    between atoms: C_12  and  N_13 
REMARK    7  A    between atoms: N_13  and  C_14 
REMARK    8  A    between atoms: C_17  and  N_18 
ROOT
HETATM    1  N   UNL     1      -9.223   1.445 -31.234  1.00  0.00    -0.055 N 
HETATM    2  H   UNL     1     -10.034   0.834 -31.044  1.00  0.00     0.278 HD
HETATM    3  H   UNL     1      -8.400   0.985 -30.844  1.00  0.00     0.278 HD
ENDROOT
BRANCH   1   4
HETATM    4  C   UNL     1      -9.120   1.528 -32.735  1.00  0.00     0.252 C 
BRANCH   4   5
HETATM    5  C   UNL     1     -10.473   1.398 -33.417  1.00  0.00    -0.023 A 
HETATM    6  C   UNL     1     -11.263   0.261 -33.164  1.00  0.00     0.012 A 
HETATM    7  C   UNL     1     -12.542   0.129 -33.717  1.00  0.00     0.037 A 
HETATM    8  C   UNL     1     -13.059   1.132 -34.530  1.00  0.00     0.068 A 
HETATM    9  C   UNL     1     -12.274   2.250 -34.814  1.00  0.00     0.037 A 
HETATM   10  C   UNL     1     -10.997   2.390 -34.259  1.00  0.00     0.012 A 
BRANCH   8  11
HETATM   11  O   UNL     1     -14.295   1.135 -35.109  1.00  0.00    -0.356 OA
HETATM   12  C   UNL     1     -15.380   0.711 -34.290  1.00  0.00     0.210 C 
ENDBRANCH   8  11
ENDBRANCH   4   5
BRANCH   4  13
HETATM   13  C   UNL     1      -8.075   0.583 -33.305  1.00  0.00    -0.023 A 
HETATM   14  C   UNL     1      -7.189  -0.076 -32.434  1.00  0.00     0.009 A 
HETATM   15  C   UNL     1      -6.228  -0.959 -32.929  1.00  0.00     0.001 A 
HETATM   16  C   UNL     1      -6.137  -1.196 -34.298  1.00  0.00     0.000 A 
HETATM   17  C   UNL     1      -7.002  -0.548 -35.175  1.00  0.00     0.001 A 
HETATM   18  C   UNL     1      -7.965   0.337 -34.686  1.00  0.00     0.009 A 
ENDBRANCH   4  13
ENDBRANCH   1   4
BRANCH   1  19
HETATM   19  C   UNL     1      -9.494   2.755 -30.526  1.00  0.00     0.336 C 
BRANCH  19  20
HETATM   20  C   UNL     1      -8.400   3.770 -30.852  1.00  0.00     0.248 C 
HETATM   21  N   UNL     1      -7.113   3.317 -30.650  1.00  0.00    -0.326 N 
HETATM   22  H   UNL     1      -6.972   2.384 -30.277  1.00  0.00     0.169 HD
HETATM   23  O   UNL     1      -8.751   4.827 -31.375  1.00  0.00    -0.271 OA
BRANCH  21  24
HETATM   24  C   UNL     1      -5.926   3.981 -31.035  1.00  0.00     0.034 A 
HETATM   25  C   UNL     1      -5.181   3.655 -32.163  1.00  0.00     0.032 A 
HETATM   26  C   UNL     1      -3.974   4.316 -32.440  1.00  0.00     0.032 A 
HETATM   27  C   UNL     1      -3.470   5.310 -31.596  1.00  0.00     0.037 A 
HETATM   28  C   UNL     1      -4.252   5.661 -30.487  1.00  0.00     0.032 A 
HETATM   29  C   UNL     1      -5.466   5.013 -30.213  1.00  0.00     0.032 A 
BRANCH  27  30
HETATM   30  N   UNL     1      -2.211   5.931 -31.832  1.00  0.00    -0.318 N 
HETATM   31  C   UNL     1      -0.965   5.491 -31.349  1.00  0.00     0.224 C 
HETATM   32  O   UNL     1      -0.695   4.485 -30.713  1.00  0.00    -0.273 OA
HETATM   33  C   UNL     1       0.060   6.552 -31.675  1.00  0.00     0.105 C 
HETATM   34  C   UNL     1      -0.610   7.365 -32.764  1.00  0.00     0.029 C 
HETATM   35  C   UNL     1      -2.084   7.232 -32.449  1.00  0.00     0.133 C 
ENDBRANCH  27  30
ENDBRANCH  21  24
ENDBRANCH  19  20
ENDBRANCH   1  19
TORSDOF 8
ENDMDL
MODEL 4
REMARK VINA RESULT:      -8.4      2.894     10.142
REMARK  8 active torsions:
REMARK  status: ('A' for Active; 'I' for Inactive)
REMARK    1  A    between atoms: O_2  and  C_3 
REMARK    2  A    between atoms: C_6  and  C_7 
REMARK    3  A    between atoms: C_7  and  N_8 
REMARK    4  A    between atoms: C_7  and  C_27 
REMARK    5  A    between atoms: N_8  and  C_11 
REMARK    6  A    between atoms: C_11  and  C_12 
REMARK       I    between atoms: C_12  and  N_13 
REMARK    7  A    between atoms: N_13  and  C_14 
REMARK    8  A    between atoms: C_17  and  N_18 
ROOT
HETATM    1  N   UNL     1      -4.637  -0.419 -32.641  1.00  0.00    -0.055 N 
HETATM    2  H   UNL     1      -5.248   0.075 -31.972  1.00  0.00     0.278 HD
HETATM    3  H   UNL     1      -4.322  -1.277 -32.185  1.00  0.00     0.278 HD
ENDROOT
BRANCH   1   4
HETATM    4  C   UNL     1      -5.508  -0.741 -33.827  1.00  0.00     0.252 C 
BRANCH   4   5
HETATM    5  C   UNL     1      -6.907  -0.159 -33.694  1.00  0.00    -0.023 A 
HETATM    6  C   UNL     1      -7.556   0.335 -34.842  1.00  0.00     0.012 A 
HETATM    7  C   UNL     1      -8.868   0.820 -34.780  1.00  0.00     0.037 A 
HETATM    8  C   UNL     1      -9.559   0.815 -33.573  1.00  0.00     0.068 A 
HETATM    9  C   UNL     1      -8.916   0.355 -32.423  1.00  0.00     0.037 A 
HETATM   10  C   UNL     1      -7.608  -0.135 -32.479  1.00  0.00     0.012 A 
BRANCH   8  11
HETATM   11  O   UNL     1     -10.844   1.236 -33.384  1.00  0.00    -0.356 OA
HETATM   12  C   UNL     1     -11.613   1.467 -34.560  1.00  0.00     0.210 C 
ENDBRANCH   8  11
ENDBRANCH   4   5
BRANCH   4  13
HETATM   13  C   UNL     1      -5.513  -2.223 -34.167  1.00  0.00    -0.023 A 
HETATM   14  C   UNL     1      -4.356  -2.990 -33.938  1.00  0.00     0.009 A 
HETATM   15  C   UNL     1      -4.336  -4.355 -34.229  1.00  0.00     0.001 A 
HETATM   16  C   UNL     1      -5.467  -4.973 -34.754  1.00  0.00     0.000 A 
HETATM   17  C   UNL     1      -6.619  -4.228 -34.992  1.00  0.00     0.001 A 
HETATM   18  C   UNL     1      -6.645  -2.863 -34.704  1.00  0.00     0.009 A 
ENDBRANCH   4  13
ENDBRANCH   1   4
BRANCH   1  19
HETATM   19  C   UNL     1      -3.469   0.502 -32.921  1.00  0.00     0.336 C 
BRANCH  19  20
HETATM   20  C   UNL     1      -3.490   1.691 -31.962  1.00  0.00     0.248 C 
HETATM   21  N   UNL     1      -3.017   2.872 -32.497  1.00  0.00    -0.326 N 
HETATM   22  H   UNL     1      -2.663   2.874 -33.448  1.00  0.00     0.169 HD
HETATM   23  O   UNL     1      -4.032   1.525 -30.871  1.00  0.00    -0.271 OA
BRANCH  21  24
HETATM   24  C   UNL     1      -3.089   4.148 -31.893  1.00  0.00     0.034 A 
HETATM   25  C   UNL     1      -4.260   4.887 -31.770  1.00  0.00     0.032 A 
HETATM   26  C   UNL     1      -4.237   6.178 -31.220  1.00  0.00     0.032 A 
HETATM   27  C   UNL     1      -3.048   6.773 -30.789  1.00  0.00     0.037 A 
HETATM   28  C   UNL     1      -1.881   6.001 -30.878  1.00  0.00     0.032 A 
HETATM   29  C   UNL     1      -1.901   4.705 -31.414  1.00  0.00     0.032 A 
BRANCH  27  30
HETATM   30  N   UNL     1      -3.008   8.109 -30.300  1.00  0.00    -0.318 N 
HETATM   31  C   UNL     1      -2.452   9.219 -30.961  1.00  0.00     0.224 C 
HETATM   32  O   UNL     1      -1.971   9.290 -32.081  1.00  0.00    -0.273 OA
HETATM   33  C   UNL     1      -2.454  10.382 -29.998  1.00  0.00     0.105 C 
HETATM   34  C   UNL     1      -3.462   9.966 -28.947  1.00  0.00     0.029 C 
HETATM   35  C   UNL     1      -3.369   8.456 -28.944  1.00  0.00     0.133 C 
ENDBRANCH  27  30
ENDBRANCH  21  24
ENDBRANCH  19  20
ENDBRANCH   1  19
TORSDOF 8
ENDMDL
MODEL 5
REMARK VINA RESULT:      -8.2      3.223     10.079
REMARK  8 active torsions:
REMARK  status: ('A' for Active; 'I' for Inactive)
REMARK    1  A    between atoms: O_2  and  C_3 
REMARK    2  A    between atoms: C_6  and  C_7 
REMARK    3  A    between atoms: C_7  and  N_8 
REMARK    4  A    between atoms: C_7  and  C_27 
REMARK    5  A    between atoms: N_8  and  C_11 
REMARK    6  A    between atoms: C_11  and  C_12 
REMARK       I    between atoms: C_12  and  N_13 
REMARK    7  A    between atoms: N_13  and  C_14 
REMARK    8  A    between atoms: C_17  and  N_18 
ROOT
HETATM    1  N   UNL     1      -9.305   3.050 -34.777  1.00  0.00    -0.055 N 
HETATM    2  H   UNL     1      -8.283   3.025 -34.916  1.00  0.00     0.278 HD
HETATM    3  H   UNL     1      -9.738   2.859 -35.682  1.00  0.00     0.278 HD
ENDROOT
BRANCH   1   4
HETATM    4  C   UNL     1      -9.612   1.944 -33.801  1.00  0.00     0.252 C 
BRANCH   4   5
HETATM    5  C   UNL     1      -8.534   0.872 -33.784  1.00  0.00    -0.023 A 
HETATM    6  C   UNL     1      -8.144   0.270 -34.995  1.00  0.00     0.012 A 
HETATM    7  C   UNL     1      -7.111  -0.674 -35.037  1.00  0.00     0.037 A 
HETATM    8  C   UNL     1      -6.444  -1.031 -33.870  1.00  0.00     0.068 A 
HETATM    9  C   UNL     1      -6.841  -0.465 -32.659  1.00  0.00     0.037 A 
HETATM   10  C   UNL     1      -7.869   0.483 -32.611  1.00  0.00     0.012 A 
BRANCH   8  11
HETATM   11  O   UNL     1      -5.409  -1.917 -33.779  1.00  0.00    -0.356 OA
HETATM   12  C   UNL     1      -5.351  -2.928 -34.781  1.00  0.00     0.210 C 
ENDBRANCH   8  11
ENDBRANCH   4   5
BRANCH   4  13
HETATM   13  C   UNL     1     -11.010   1.376 -33.977  1.00  0.00    -0.023 A 
HETATM   14  C   UNL     1     -11.912   2.013 -34.850  1.00  0.00     0.009 A 
HETATM   15  C   UNL     1     -13.198   1.506 -35.041  1.00  0.00     0.001 A 
HETATM   16  C   UNL     1     -13.604   0.359 -34.364  1.00  0.00     0.000 A 
HETATM   17  C   UNL     1     -12.727  -0.280 -33.492  1.00  0.00     0.001 A 
HETATM   18  C   UNL     1     -11.439   0.223 -33.296  1.00  0.00     0.009 A 
ENDBRANCH   4  13
ENDBRANCH   1   4
BRANCH   1  19
HETATM   19  C   UNL     1      -9.642   4.449 -34.305  1.00  0.00     0.336 C 
BRANCH  19  20
HETATM   20  C   UNL     1      -8.417   5.101 -33.664  1.00  0.00     0.248 C 
HETATM   21  N   UNL     1      -7.237   4.408 -33.838  1.00  0.00    -0.326 N 
HETATM   22  H   UNL     1      -7.255   3.521 -34.332  1.00  0.00     0.169 HD
HETATM   23  O   UNL     1      -8.566   6.219 -33.176  1.00  0.00    -0.271 OA
BRANCH  21  24
HETATM   24  C   UNL     1      -5.943   4.869 -33.505  1.00  0.00     0.034 A 
HETATM   25  C   UNL     1      -4.911   5.025 -34.424  1.00  0.00     0.032 A 
HETATM   26  C   UNL     1      -3.632   5.421 -34.002  1.00  0.00     0.032 A 
HETATM   27  C   UNL     1      -3.342   5.662 -32.656  1.00  0.00     0.037 A 
HETATM   28  C   UNL     1      -4.402   5.545 -31.746  1.00  0.00     0.032 A 
HETATM   29  C   UNL     1      -5.686   5.162 -32.164  1.00  0.00     0.032 A 
BRANCH  27  30
HETATM   30  N   UNL     1      -2.030   5.993 -32.215  1.00  0.00    -0.318 N 
HETATM   31  C   UNL     1      -1.392   7.236 -32.370  1.00  0.00     0.224 C 
HETATM   32  O   UNL     1      -1.831   8.278 -32.830  1.00  0.00    -0.273 OA
HETATM   33  C   UNL     1       0.046   7.077 -31.936  1.00  0.00     0.105 C 
HETATM   34  C   UNL     1       0.024   5.812 -31.104  1.00  0.00     0.029 C 
HETATM   35  C   UNL     1      -1.101   5.004 -31.716  1.00  0.00     0.133 C 
ENDBRANCH  27  30
ENDBRANCH  21  24
ENDBRANCH  19  20
ENDBRANCH   1  19
TORSDOF 8
ENDMDL
MODEL 6
REMARK VINA RESULT:      -8.1      2.000      4.348
REMARK  8 active torsions:
REMARK  status: ('A' for Active; 'I' for Inactive)
REMARK    1  A    between atoms: O_2  and  C_3 
REMARK    2  A    between atoms: C_6  and  C_7 
REMARK    3  A    between atoms: C_7  and  N_8 
REMARK    4  A    between atoms: C_7  and  C_27 
REMARK    5  A    between atoms: N_8  and  C_11 
REMARK    6  A    between atoms: C_11  and  C_12 
REMARK       I    between atoms: C_12  and  N_13 
REMARK    7  A    between atoms: N_13  and  C_14 
REMARK    8  A    between atoms: C_17  and  N_18 
ROOT
HETATM    1  N   UNL     1      -3.984   6.906 -29.893  1.00  0.00    -0.055 N 
HETATM    2  H   UNL     1      -3.871   7.658 -29.195  1.00  0.00     0.278 HD
HETATM    3  H   UNL     1      -4.356   7.333 -30.742  1.00  0.00     0.278 HD
ENDROOT
BRANCH   1   4
HETATM    4  C   UNL     1      -2.598   6.367 -30.137  1.00  0.00     0.252 C 
BRANCH   4   5
HETATM    5  C   UNL     1      -1.541   7.093 -29.320  1.00  0.00    -0.023 A 
HETATM    6  C   UNL     1      -0.227   6.587 -29.292  1.00  0.00     0.012 A 
HETATM    7  C   UNL     1       0.793   7.257 -28.607  1.00  0.00     0.037 A 
HETATM    8  C   UNL     1       0.523   8.449 -27.943  1.00  0.00     0.068 A 
HETATM    9  C   UNL     1      -0.780   8.945 -27.938  1.00  0.00     0.037 A 
HETATM   10  C   UNL     1      -1.804   8.283 -28.624  1.00  0.00     0.012 A 
BRANCH   8  11
HETATM   11  O   UNL     1       1.430   9.208 -27.261  1.00  0.00    -0.356 OA
HETATM   12  C   UNL     1       2.058   8.591 -26.141  1.00  0.00     0.210 C 
ENDBRANCH   8  11
ENDBRANCH   4   5
BRANCH   4  13
HETATM   13  C   UNL     1      -2.252   6.285 -31.615  1.00  0.00    -0.023 A 
HETATM   14  C   UNL     1      -2.097   5.024 -32.221  1.00  0.00     0.009 A 
HETATM   15  C   UNL     1      -1.792   4.919 -33.579  1.00  0.00     0.001 A 
HETATM   16  C   UNL     1      -1.636   6.068 -34.350  1.00  0.00     0.000 A 
HETATM   17  C   UNL     1      -1.780   7.323 -33.766  1.00  0.00     0.001 A 
HETATM   18  C   UNL     1      -2.084   7.434 -32.408  1.00  0.00     0.009 A 
ENDBRANCH   4  13
ENDBRANCH   1   4
BRANCH   1  19
HETATM   19  C   UNL     1      -4.973   5.920 -29.309  1.00  0.00     0.336 C 
BRANCH  19  20
HETATM   20  C   UNL     1      -5.403   4.909 -30.371  1.00  0.00     0.248 C 
HETATM   21  N   UNL     1      -4.843   3.655 -30.233  1.00  0.00    -0.326 N 
HETATM   22  H   UNL     1      -4.176   3.493 -29.485  1.00  0.00     0.169 HD
HETATM   23  O   UNL     1      -6.285   5.255 -31.154  1.00  0.00    -0.271 OA
BRANCH  21  24
HETATM   24  C   UNL     1      -5.199   2.499 -30.964  1.00  0.00     0.034 A 
HETATM   25  C   UNL     1      -5.896   1.422 -30.427  1.00  0.00     0.032 A 
HETATM   26  C   UNL     1      -6.151   0.278 -31.199  1.00  0.00     0.032 A 
HETATM   27  C   UNL     1      -5.709   0.169 -32.521  1.00  0.00     0.037 A 
HETATM   28  C   UNL     1      -5.047   1.279 -33.065  1.00  0.00     0.032 A 
HETATM   29  C   UNL     1      -4.801   2.430 -32.301  1.00  0.00     0.032 A 
BRANCH  27  30
HETATM   30  N   UNL     1      -5.901  -1.017 -33.284  1.00  0.00    -0.318 N 
HETATM   31  C   UNL     1      -4.920  -1.980 -33.581  1.00  0.00     0.224 C 
HETATM   32  O   UNL     1      -3.760  -2.043 -33.204  1.00  0.00    -0.273 OA
HETATM   33  C   UNL     1      -5.511  -2.955 -34.571  1.00  0.00     0.105 C 
HETATM   34  C   UNL     1      -7.003  -2.736 -34.432  1.00  0.00     0.029 C 
HETATM   35  C   UNL     1      -7.112  -1.281 -34.029  1.00  0.00     0.133 C 
ENDBRANCH  27  30
ENDBRANCH  21  24
ENDBRANCH  19  20
ENDBRANCH   1  19
TORSDOF 8
ENDMDL
MODEL 7
REMARK VINA RESULT:      -8.0      3.532      8.952
REMARK  8 active torsions:
REMARK  status: ('A' for Active; 'I' for Inactive)
REMARK    1  A    between atoms: O_2  and  C_3 
REMARK    2  A    between atoms: C_6  and  C_7 
REMARK    3  A    between atoms: C_7  and  N_8 
REMARK    4  A    between atoms: C_7  and  C_27 
REMARK    5  A    between atoms: N_8  and  C_11 
REMARK    6  A    between atoms: C_11  and  C_12 
REMARK       I    between atoms: C_12  and  N_13 
REMARK    7  A    between atoms: N_13  and  C_14 
REMARK    8  A    between atoms: C_17  and  N_18 
ROOT
HETATM    1  N   UNL     1      -7.799   0.218 -33.098  1.00  0.00    -0.055 N 
HETATM    2  H   UNL     1      -7.505   1.128 -33.488  1.00  0.00     0.278 HD
HETATM    3  H   UNL     1      -8.227  -0.313 -33.858  1.00  0.00     0.278 HD
ENDROOT
BRANCH   1   4
HETATM    4  C   UNL     1      -6.534  -0.453 -32.632  1.00  0.00     0.252 C 
BRANCH   4   5
HETATM    5  C   UNL     1      -5.406   0.538 -32.390  1.00  0.00    -0.023 A 
HETATM    6  C   UNL     1      -5.397   1.753 -33.101  1.00  0.00     0.012 A 
HETATM    7  C   UNL     1      -4.416   2.724 -32.864  1.00  0.00     0.037 A 
HETATM    8  C   UNL     1      -3.429   2.502 -31.909  1.00  0.00     0.068 A 
HETATM    9  C   UNL     1      -3.410   1.289 -31.220  1.00  0.00     0.037 A 
HETATM   10  C   UNL     1      -4.390   0.317 -31.448  1.00  0.00     0.012 A 
BRANCH   8  11
HETATM   11  O   UNL     1      -2.435   3.373 -31.568  1.00  0.00    -0.356 OA
HETATM   12  C   UNL     1      -2.208   4.456 -32.464  1.00  0.00     0.210 C 
ENDBRANCH   8  11
ENDBRANCH   4   5
BRANCH   4  13
HETATM   13  C   UNL     1      -6.122  -1.614 -33.523  1.00  0.00    -0.023 A 
HETATM   14  C   UNL     1      -7.114  -2.400 -34.138  1.00  0.00     0.009 A 
HETATM   15  C   UNL     1      -6.764  -3.464 -34.971  1.00  0.00     0.001 A 
HETATM   16  C   UNL     1      -5.424  -3.759 -35.202  1.00  0.00     0.000 A 
HETATM   17  C   UNL     1      -4.430  -2.995 -34.597  1.00  0.00     0.001 A 
HETATM   18  C   UNL     1      -4.773  -1.930 -33.762  1.00  0.00     0.009 A 
ENDBRANCH   4  13
ENDBRANCH   1   4
BRANCH   1  19
HETATM   19  C   UNL     1      -8.814   0.521 -32.016  1.00  0.00     0.336 C 
BRANCH  19  20
HETATM   20  C   UNL     1      -8.696   1.977 -31.571  1.00  0.00     0.248 C 
HETATM   21  N   UNL     1      -7.888   2.181 -30.471  1.00  0.00    -0.326 N 
HETATM   22  H   UNL     1      -7.464   1.379 -30.017  1.00  0.00     0.169 HD
HETATM   23  O   UNL     1      -9.214   2.830 -32.291  1.00  0.00    -0.271 OA
BRANCH  21  24
HETATM   24  C   UNL     1      -7.471   3.432 -29.964  1.00  0.00     0.034 A 
HETATM   25  C   UNL     1      -8.336   4.479 -29.665  1.00  0.00     0.032 A 
HETATM   26  C   UNL     1      -7.838   5.718 -29.231  1.00  0.00     0.032 A 
HETATM   27  C   UNL     1      -6.466   5.952 -29.095  1.00  0.00     0.037 A 
HETATM   28  C   UNL     1      -5.607   4.876 -29.357  1.00  0.00     0.032 A 
HETATM   29  C   UNL     1      -6.101   3.631 -29.778  1.00  0.00     0.032 A 
BRANCH  27  30
HETATM   30  N   UNL     1      -5.953   7.227 -28.726  1.00  0.00    -0.318 N 
HETATM   31  C   UNL     1      -5.429   7.579 -27.469  1.00  0.00     0.224 C 
HETATM   32  O   UNL     1      -5.240   6.878 -26.487  1.00  0.00    -0.273 OA
HETATM   33  C   UNL     1      -5.190   9.070 -27.466  1.00  0.00     0.105 C 
HETATM   34  C   UNL     1      -5.173   9.426 -28.939  1.00  0.00     0.029 C 
HETATM   35  C   UNL     1      -6.093   8.398 -29.562  1.00  0.00     0.133 C 
ENDBRANCH  27  30
ENDBRANCH  21  24
ENDBRANCH  19  20
ENDBRANCH   1  19
TORSDOF 8
ENDMDL
MODEL 8
REMARK VINA RESULT:      -8.0      2.624      9.396
REMARK  8 active torsions:
REMARK  status: ('A' for Active; 'I' for Inactive)
REMARK    1  A    between atoms: O_2  and  C_3 
REMARK    2  A    between atoms: C_6  and  C_7 
REMARK    3  A    between atoms: C_7  and  N_8 
REMARK    4  A    between atoms: C_7  and  C_27 
REMARK    5  A    between atoms: N_8  and  C_11 
REMARK    6  A    between atoms: C_11  and  C_12 
REMARK       I    between atoms: C_12  and  N_13 
REMARK    7  A    between atoms: N_13  and  C_14 
REMARK    8  A    between atoms: C_17  and  N_18 
ROOT
HETATM    1  N   UNL     1      -9.129   1.184 -30.893  1.00  0.00    -0.055 N 
HETATM    2  H   UNL     1      -9.966   0.949 -30.336  1.00  0.00     0.278 HD
HETATM    3  H   UNL     1      -8.320   0.813 -30.393  1.00  0.00     0.278 HD
ENDROOT
BRANCH   1   4
HETATM    4  C   UNL     1      -9.305   0.476 -32.211  1.00  0.00     0.252 C 
BRANCH   4   5
HETATM    5  C   UNL     1      -7.991  -0.044 -32.771  1.00  0.00    -0.023 A 
HETATM    6  C   UNL     1      -6.858  -0.085 -31.936  1.00  0.00     0.012 A 
HETATM    7  C   UNL     1      -5.644  -0.617 -32.387  1.00  0.00     0.037 A 
HETATM    8  C   UNL     1      -5.539  -1.123 -33.679  1.00  0.00     0.068 A 
HETATM    9  C   UNL     1      -6.646  -1.060 -34.525  1.00  0.00     0.037 A 
HETATM   10  C   UNL     1      -7.864  -0.535 -34.079  1.00  0.00     0.012 A 
BRANCH   8  11
HETATM   11  O   UNL     1      -4.425  -1.686 -34.230  1.00  0.00    -0.356 OA
HETATM   12  C   UNL     1      -4.533  -3.051 -34.624  1.00  0.00     0.210 C 
ENDBRANCH   8  11
ENDBRANCH   4   5
BRANCH   4  13
HETATM   13  C   UNL     1     -10.095   1.297 -33.217  1.00  0.00    -0.023 A 
HETATM   14  C   UNL     1      -9.494   2.417 -33.820  1.00  0.00     0.009 A 
HETATM   15  C   UNL     1     -10.191   3.181 -34.758  1.00  0.00     0.001 A 
HETATM   16  C   UNL     1     -11.495   2.841 -35.105  1.00  0.00     0.000 A 
HETATM   17  C   UNL     1     -12.107   1.739 -34.514  1.00  0.00     0.001 A 
HETATM   18  C   UNL     1     -11.416   0.971 -33.575  1.00  0.00     0.009 A 
ENDBRANCH   4  13
ENDBRANCH   1   4
BRANCH   1  19
HETATM   19  C   UNL     1      -9.069   2.694 -30.966  1.00  0.00     0.336 C 
BRANCH  19  20
HETATM   20  C   UNL     1      -7.674   3.189 -30.588  1.00  0.00     0.248 C 
HETATM   21  N   UNL     1      -6.803   3.328 -31.649  1.00  0.00    -0.326 N 
HETATM   22  H   UNL     1      -7.115   3.070 -32.579  1.00  0.00     0.169 HD
HETATM   23  O   UNL     1      -7.496   3.533 -29.421  1.00  0.00    -0.271 OA
BRANCH  21  24
HETATM   24  C   UNL     1      -5.523   3.927 -31.604  1.00  0.00     0.034 A 
HETATM   25  C   UNL     1      -4.329   3.214 -31.619  1.00  0.00     0.032 A 
HETATM   26  C   UNL     1      -3.098   3.878 -31.500  1.00  0.00     0.032 A 
HETATM   27  C   UNL     1      -3.022   5.266 -31.351  1.00  0.00     0.037 A 
HETATM   28  C   UNL     1      -4.230   5.977 -31.382  1.00  0.00     0.032 A 
HETATM   29  C   UNL     1      -5.463   5.319 -31.514  1.00  0.00     0.032 A 
BRANCH  27  30
HETATM   30  N   UNL     1      -1.782   5.936 -31.156  1.00  0.00    -0.318 N 
HETATM   31  C   UNL     1      -0.881   6.323 -32.165  1.00  0.00     0.224 C 
HETATM   32  O   UNL     1      -0.996   6.239 -33.377  1.00  0.00    -0.273 OA
HETATM   33  C   UNL     1       0.379   6.819 -31.496  1.00  0.00     0.105 C 
HETATM   34  C   UNL     1      -0.067   7.114 -30.079  1.00  0.00     0.029 C 
HETATM   35  C   UNL     1      -1.194   6.129 -29.850  1.00  0.00     0.133 C 
ENDBRANCH  27  30
ENDBRANCH  21  24
ENDBRANCH  19  20
ENDBRANCH   1  19
TORSDOF 8
ENDMDL
MODEL 9
REMARK VINA RESULT:      -7.9      4.926      9.546
REMARK  8 active torsions:
REMARK  status: ('A' for Active; 'I' for Inactive)
REMARK    1  A    between atoms: O_2  and  C_3 
REMARK    2  A    between atoms: C_6  and  C_7 
REMARK    3  A    between atoms: C_7  and  N_8 
REMARK    4  A    between atoms: C_7  and  C_27 
REMARK    5  A    between atoms: N_8  and  C_11 
REMARK    6  A    between atoms: C_11  and  C_12 
REMARK       I    between atoms: C_12  and  N_13 
REMARK    7  A    between atoms: N_13  and  C_14 
REMARK    8  A    between atoms: C_17  and  N_18 
ROOT
HETATM    1  N   UNL     1      -4.505  -0.701 -32.472  1.00  0.00    -0.055 N 
HETATM    2  H   UNL     1      -5.181  -0.204 -31.870  1.00  0.00     0.278 HD
HETATM    3  H   UNL     1      -4.258  -1.570 -31.996  1.00  0.00     0.278 HD
ENDROOT
BRANCH   1   4
HETATM    4  C   UNL     1      -5.238  -0.991 -33.755  1.00  0.00     0.252 C 
BRANCH   4   5
HETATM    5  C   UNL     1      -6.623  -0.366 -33.786  1.00  0.00    -0.023 A 
HETATM    6  C   UNL     1      -7.370  -0.293 -32.594  1.00  0.00     0.012 A 
HETATM    7  C   UNL     1      -8.622   0.332 -32.560  1.00  0.00     0.037 A 
HETATM    8  C   UNL     1      -9.150   0.901 -33.714  1.00  0.00     0.068 A 
HETATM    9  C   UNL     1      -8.434   0.809 -34.907  1.00  0.00     0.037 A 
HETATM   10  C   UNL     1      -7.180   0.191 -34.947  1.00  0.00     0.012 A 
BRANCH   8  11
HETATM   11  O   UNL     1     -10.344   1.557 -33.809  1.00  0.00    -0.356 OA
HETATM   12  C   UNL     1     -10.327   2.811 -34.484  1.00  0.00     0.210 C 
ENDBRANCH   8  11
ENDBRANCH   4   5
BRANCH   4  13
HETATM   13  C   UNL     1      -5.246  -2.470 -34.105  1.00  0.00    -0.023 A 
HETATM   14  C   UNL     1      -4.123  -3.261 -33.800  1.00  0.00     0.009 A 
HETATM   15  C   UNL     1      -4.109  -4.624 -34.098  1.00  0.00     0.001 A 
HETATM   16  C   UNL     1      -5.212  -5.217 -34.706  1.00  0.00     0.000 A 
HETATM   17  C   UNL     1      -6.330  -4.449 -35.020  1.00  0.00     0.001 A 
HETATM   18  C   UNL     1      -6.349  -3.085 -34.725  1.00  0.00     0.009 A 
ENDBRANCH   4  13
ENDBRANCH   1   4
BRANCH   1  19
HETATM   19  C   UNL     1      -3.297   0.202 -32.600  1.00  0.00     0.336 C 
BRANCH  19  20
HETATM   20  C   UNL     1      -3.653   1.627 -32.179  1.00  0.00     0.248 C 
HETATM   21  N   UNL     1      -4.719   2.180 -32.858  1.00  0.00    -0.326 N 
HETATM   22  H   UNL     1      -5.166   1.643 -33.594  1.00  0.00     0.169 HD
HETATM   23  O   UNL     1      -3.057   2.093 -31.209  1.00  0.00    -0.271 OA
BRANCH  21  24
HETATM   24  C   UNL     1      -5.361   3.401 -32.549  1.00  0.00     0.034 A 
HETATM   25  C   UNL     1      -6.300   3.553 -31.535  1.00  0.00     0.032 A 
HETATM   26  C   UNL     1      -6.945   4.783 -31.335  1.00  0.00     0.032 A 
HETATM   27  C   UNL     1      -6.683   5.892 -32.146  1.00  0.00     0.037 A 
HETATM   28  C   UNL     1      -5.702   5.738 -33.136  1.00  0.00     0.032 A 
HETATM   29  C   UNL     1      -5.044   4.514 -33.331  1.00  0.00     0.032 A 
BRANCH  27  30
HETATM   30  N   UNL     1      -7.388   7.119 -31.995  1.00  0.00    -0.318 N 
HETATM   31  C   UNL     1      -8.693   7.386 -32.444  1.00  0.00     0.224 C 
HETATM   32  O   UNL     1      -9.498   6.634 -32.972  1.00  0.00    -0.273 OA
HETATM   33  C   UNL     1      -8.959   8.860 -32.249  1.00  0.00     0.105 C 
HETATM   34  C   UNL     1      -7.904   9.277 -31.245  1.00  0.00     0.029 C 
HETATM   35  C   UNL     1      -6.756   8.330 -31.524  1.00  0.00     0.133 C 
ENDBRANCH  27  30
ENDBRANCH  21  24
ENDBRANCH  19  20
ENDBRANCH   1  19
TORSDOF 8
ENDMDL
MODEL 10
REMARK VINA RESULT:      -7.9      3.707     10.357
REMARK  8 active torsions:
REMARK  status: ('A' for Active; 'I' for Inactive)
REMARK    1  A    between atoms: O_2  and  C_3 
REMARK    2  A    between atoms: C_6  and  C_7 
REMARK    3  A    between atoms: C_7  and  N_8 
REMARK    4  A    between atoms: C_7  and  C_27 
REMARK    5  A    between atoms: N_8  and  C_11 
REMARK    6  A    between atoms: C_11  and  C_12 
REMARK       I    between atoms: C_12  and  N_13 
REMARK    7  A    between atoms: N_13  and  C_14 
REMARK    8  A    between atoms: C_17  and  N_18 
ROOT
HETATM    1  N   UNL     1      -8.573   3.350 -33.218  1.00  0.00    -0.055 N 
HETATM    2  H   UNL     1      -9.472   3.761 -32.921  1.00  0.00     0.278 HD
HETATM    3  H   UNL     1      -8.141   2.936 -32.392  1.00  0.00     0.278 HD
ENDROOT
BRANCH   1   4
HETATM    4  C   UNL     1      -8.925   2.282 -34.221  1.00  0.00     0.252 C 
BRANCH   4   5
HETATM    5  C   UNL     1     -10.418   1.998 -34.265  1.00  0.00    -0.023 A 
HETATM    6  C   UNL     1     -11.258   2.850 -35.008  1.00  0.00     0.012 A 
HETATM    7  C   UNL     1     -12.628   2.591 -35.131  1.00  0.00     0.037 A 
HETATM    8  C   UNL     1     -13.185   1.472 -34.520  1.00  0.00     0.068 A 
HETATM    9  C   UNL     1     -12.370   0.637 -33.756  1.00  0.00     0.037 A 
HETATM   10  C   UNL     1     -10.999   0.888 -33.634  1.00  0.00     0.012 A 
BRANCH   8  11
HETATM   11  O   UNL     1     -14.496   1.096 -34.582  1.00  0.00    -0.356 OA
HETATM   12  C   UNL     1     -15.311   1.455 -33.471  1.00  0.00     0.210 C 
ENDBRANCH   8  11
ENDBRANCH   4   5
BRANCH   4  13
HETATM   13  C   UNL     1      -8.087   1.025 -34.059  1.00  0.00    -0.023 A 
HETATM   14  C   UNL     1      -7.670   0.631 -32.774  1.00  0.00     0.009 A 
HETATM   15  C   UNL     1      -6.910  -0.526 -32.594  1.00  0.00     0.001 A 
HETATM   16  C   UNL     1      -6.555  -1.304 -33.692  1.00  0.00     0.000 A 
HETATM   17  C   UNL     1      -6.953  -0.927 -34.971  1.00  0.00     0.001 A 
HETATM   18  C   UNL     1      -7.712   0.230 -35.157  1.00  0.00     0.009 A 
ENDBRANCH   4  13
ENDBRANCH   1   4
BRANCH   1  19
HETATM   19  C   UNL     1      -7.732   4.492 -33.749  1.00  0.00     0.336 C 
BRANCH  19  20
HETATM   20  C   UNL     1      -6.360   4.497 -33.078  1.00  0.00     0.248 C 
HETATM   21  N   UNL     1      -5.766   5.739 -32.988  1.00  0.00    -0.326 N 
HETATM   22  H   UNL     1      -6.240   6.542 -33.390  1.00  0.00     0.169 HD
HETATM   23  O   UNL     1      -5.976   3.443 -32.574  1.00  0.00    -0.271 OA
BRANCH  21  24
HETATM   24  C   UNL     1      -4.592   6.051 -32.266  1.00  0.00     0.034 A 
HETATM   25  C   UNL     1      -3.331   6.165 -32.842  1.00  0.00     0.032 A 
HETATM   26  C   UNL     1      -2.200   6.408 -32.046  1.00  0.00     0.032 A 
HETATM   27  C   UNL     1      -2.291   6.533 -30.657  1.00  0.00     0.037 A 
HETATM   28  C   UNL     1      -3.573   6.461 -30.094  1.00  0.00     0.032 A 
HETATM   29  C   UNL     1      -4.709   6.231 -30.886  1.00  0.00     0.032 A 
BRANCH  27  30
HETATM   30  N   UNL     1      -1.140   6.706 -29.839  1.00  0.00    -0.318 N 
HETATM   31  C   UNL     1      -0.761   7.889 -29.179  1.00  0.00     0.224 C 
HETATM   32  O   UNL     1      -1.351   8.956 -29.107  1.00  0.00    -0.273 OA
HETATM   33  C   UNL     1       0.615   7.676 -28.596  1.00  0.00     0.105 C 
HETATM   34  C   UNL     1       0.759   6.168 -28.577  1.00  0.00     0.029 C 
HETATM   35  C   UNL     1      -0.091   5.716 -29.745  1.00  0.00     0.133 C 
ENDBRANCH  27  30
ENDBRANCH  21  24
ENDBRANCH  19  20
ENDBRANCH   1  19
TORSDOF 8
ENDMDL
