MODEL 1
REMARK VINA RESULT:      -8.3      0.000      0.000
REMARK  6 active torsions:
REMARK  status: ('A' for Active; 'I' for Inactive)
REMARK    1  A    between atoms: C_2  and  N_3 
REMARK    2  A    between atoms: C_2  and  C_16 
REMARK    3  A    between atoms: N_3  and  C_6 
REMARK    4  A    between atoms: C_16  and  C_17 
REMARK       I    between atoms: C_17  and  N_18 
REMARK    5  A    between atoms: N_18  and  C_19 
REMARK    6  A    between atoms: C_22  and  O_23 
ROOT
HETATM    1  C   UNL     1      -7.202   0.511 -35.574  1.00  0.00     0.040 C 
HETATM    2  C   UNL     1      -7.985   0.277 -34.285  1.00  0.00     0.191 C 
ENDROOT
BRANCH   2   3
HETATM    3  N   UNL     1      -7.145  -0.511 -33.284  1.00  0.00    -0.063 N 
HETATM    4  H   UNL     1      -7.303  -0.123 -32.348  1.00  0.00     0.278 HD
HETATM    5  H   UNL     1      -7.526  -1.466 -33.250  1.00  0.00     0.278 HD
BRANCH   3   6
HETATM    6  C   UNL     1      -5.636  -0.670 -33.475  1.00  0.00     0.221 C 
HETATM    7  C   UNL     1      -5.183  -2.094 -33.725  1.00  0.00    -0.011 A 
HETATM    8  C   UNL     1      -4.059  -2.647 -33.084  1.00  0.00     0.009 A 
HETATM    9  C   UNL     1      -5.866  -2.891 -34.672  1.00  0.00     0.011 A 
HETATM   10  C   UNL     1      -3.710  -3.986 -33.312  1.00  0.00     0.019 A 
HETATM   11  S   UNL     1      -3.006  -1.734 -31.973  1.00  0.00    -0.129 SA
HETATM   12  C   UNL     1      -4.433  -4.772 -34.205  1.00  0.00     0.001 A 
HETATM   13  C   UNL     1      -5.501  -4.219 -34.898  1.00  0.00     0.001 A 
HETATM   14  C   UNL     1      -3.411  -0.042 -32.463  1.00  0.00     0.082 C 
HETATM   15  C   UNL     1      -4.917   0.127 -32.379  1.00  0.00     0.048 C 
ENDBRANCH   3   6
ENDBRANCH   2   3
BRANCH   2  16
HETATM   16  C   UNL     1      -8.366   1.611 -33.616  1.00  0.00     0.135 C 
BRANCH  16  17
HETATM   17  C   UNL     1      -9.793   1.984 -33.967  1.00  0.00     0.224 C 
HETATM   18  N   UNL     1     -10.723   1.145 -33.386  1.00  0.00    -0.327 N 
HETATM   19  H   UNL     1     -10.391   0.308 -32.923  1.00  0.00     0.169 HD
HETATM   20  O   UNL     1     -10.012   2.931 -34.713  1.00  0.00    -0.273 OA
BRANCH  18  21
HETATM   21  C   UNL     1     -12.124   1.317 -33.374  1.00  0.00     0.034 A 
HETATM   22  C   UNL     1     -12.764   2.475 -32.938  1.00  0.00     0.032 A 
HETATM   23  C   UNL     1     -14.162   2.546 -32.924  1.00  0.00     0.039 A 
HETATM   24  C   UNL     1     -14.940   1.470 -33.351  1.00  0.00     0.068 A 
HETATM   25  C   UNL     1     -14.306   0.309 -33.786  1.00  0.00     0.039 A 
HETATM   26  C   UNL     1     -12.907   0.233 -33.795  1.00  0.00     0.032 A 
BRANCH  24  27
HETATM   27  O   UNL     1     -16.289   1.675 -33.283  1.00  0.00    -0.356 OA
HETATM   28  C   UNL     1     -16.764   2.515 -32.238  1.00  0.00     0.210 C 
ENDBRANCH  24  27
ENDBRANCH  18  21
ENDBRANCH  16  17
ENDBRANCH   2  16
TORSDOF 6
ENDMDL
MODEL 2
REMARK VINA RESULT:      -8.2      5.428      8.642
REMARK  6 active torsions:
REMARK  status: ('A' for Active; 'I' for Inactive)
REMARK    1  A    between atoms: C_2  and  N_3 
REMARK    2  A    between atoms: C_2  and  C_16 
REMARK    3  A    between atoms: N_3  and  C_6 
REMARK    4  A    between atoms: C_16  and  C_17 
REMARK       I    between atoms: C_17  and  N_18 
REMARK    5  A    between atoms: N_18  and  C_19 
REMARK    6  A    between atoms: C_22  and  O_23 
ROOT
HETATM    1  C   UNL     1      -4.989   5.009 -30.097  1.00  0.00     0.040 C 
HETATM    2  C   UNL     1      -4.926   4.099 -31.321  1.00  0.00     0.191 C 
ENDROOT
BRANCH   2   3
HETATM    3  N   UNL     1      -3.516   3.547 -31.506  1.00  0.00    -0.063 N 
HETATM    4  H   UNL     1      -3.048   3.533 -30.593  1.00  0.00     0.278 HD
HETATM    5  H   UNL     1      -3.607   2.559 -31.780  1.00  0.00     0.278 HD
BRANCH   3   6
HETATM    6  C   UNL     1      -2.552   4.172 -32.516  1.00  0.00     0.221 C 
HETATM    7  C   UNL     1      -1.512   5.090 -31.903  1.00  0.00    -0.011 A 
HETATM    8  C   UNL     1      -1.189   6.338 -32.467  1.00  0.00     0.009 A 
HETATM    9  C   UNL     1      -0.794   4.671 -30.761  1.00  0.00     0.011 A 
HETATM   10  C   UNL     1      -0.256   7.171 -31.834  1.00  0.00     0.019 A 
HETATM   11  S   UNL     1      -1.897   6.951 -33.983  1.00  0.00    -0.129 SA
HETATM   12  C   UNL     1       0.398   6.764 -30.675  1.00  0.00     0.001 A 
HETATM   13  C   UNL     1       0.141   5.506 -30.147  1.00  0.00     0.001 A 
HETATM   14  C   UNL     1      -2.478   5.405 -34.716  1.00  0.00     0.082 C 
HETATM   15  C   UNL     1      -3.364   4.704 -33.704  1.00  0.00     0.048 C 
ENDBRANCH   3   6
ENDBRANCH   2   3
BRANCH   2  16
HETATM   16  C   UNL     1      -5.875   2.896 -31.168  1.00  0.00     0.135 C 
BRANCH  16  17
HETATM   17  C   UNL     1      -5.755   1.977 -32.368  1.00  0.00     0.224 C 
HETATM   18  N   UNL     1      -5.553   0.659 -32.014  1.00  0.00    -0.327 N 
HETATM   19  H   UNL     1      -5.360   0.446 -31.043  1.00  0.00     0.169 HD
HETATM   20  O   UNL     1      -5.820   2.440 -33.501  1.00  0.00    -0.273 OA
BRANCH  18  21
HETATM   21  C   UNL     1      -5.568  -0.459 -32.876  1.00  0.00     0.034 A 
HETATM   22  C   UNL     1      -6.718  -0.956 -33.488  1.00  0.00     0.032 A 
HETATM   23  C   UNL     1      -6.649  -2.095 -34.299  1.00  0.00     0.039 A 
HETATM   24  C   UNL     1      -5.436  -2.748 -34.518  1.00  0.00     0.068 A 
HETATM   25  C   UNL     1      -4.285  -2.258 -33.907  1.00  0.00     0.039 A 
HETATM   26  C   UNL     1      -4.352  -1.122 -33.090  1.00  0.00     0.032 A 
BRANCH  24  27
HETATM   27  O   UNL     1      -5.514  -3.845 -35.328  1.00  0.00    -0.356 OA
HETATM   28  C   UNL     1      -6.741  -4.564 -35.327  1.00  0.00     0.210 C 
ENDBRANCH  24  27
ENDBRANCH  18  21
ENDBRANCH  16  17
ENDBRANCH   2  16
TORSDOF 6
ENDMDL
MODEL 3
REMARK VINA RESULT:      -7.6      2.383      3.338
REMARK  6 active torsions:
REMARK  status: ('A' for Active; 'I' for Inactive)
REMARK    1  A    between atoms: C_2  and  N_3 
REMARK    2  A    between atoms: C_2  and  C_16 
REMARK    3  A    between atoms: N_3  and  C_6 
REMARK    4  A    between atoms: C_16  and  C_17 
REMARK       I    between atoms: C_17  and  N_18 
REMARK    5  A    between atoms: N_18  and  C_19 
REMARK    6  A    between atoms: C_22  and  O_23 
ROOT
HETATM    1  C   UNL     1      -5.029   5.145 -33.976  1.00  0.00     0.040 C 
HETATM    2  C   UNL     1      -6.360   4.405 -33.872  1.00  0.00     0.191 C 
ENDROOT
BRANCH   2   3
HETATM    3  N   UNL     1      -6.279   3.302 -32.820  1.00  0.00    -0.063 N 
HETATM    4  H   UNL     1      -6.106   3.735 -31.907  1.00  0.00     0.278 HD
HETATM    5  H   UNL     1      -7.214   2.879 -32.748  1.00  0.00     0.278 HD
BRANCH   3   6
HETATM    6  C   UNL     1      -5.303   2.135 -32.977  1.00  0.00     0.221 C 
HETATM    7  C   UNL     1      -5.913   0.886 -33.582  1.00  0.00    -0.011 A 
HETATM    8  C   UNL     1      -5.663  -0.397 -33.062  1.00  0.00     0.009 A 
HETATM    9  C   UNL     1      -6.718   0.989 -34.739  1.00  0.00     0.011 A 
HETATM   10  C   UNL     1      -6.291  -1.516 -33.627  1.00  0.00     0.019 A 
HETATM   11  S   UNL     1      -4.560  -0.714 -31.699  1.00  0.00    -0.129 SA
HETATM   12  C   UNL     1      -7.127  -1.386 -34.732  1.00  0.00     0.001 A 
HETATM   13  C   UNL     1      -7.328  -0.135 -35.298  1.00  0.00     0.001 A 
HETATM   14  C   UNL     1      -3.565   0.795 -31.731  1.00  0.00     0.082 C 
HETATM   15  C   UNL     1      -4.507   1.984 -31.675  1.00  0.00     0.048 C 
ENDBRANCH   3   6
ENDBRANCH   2   3
BRANCH   2  16
HETATM   16  C   UNL     1      -7.494   5.358 -33.453  1.00  0.00     0.135 C 
BRANCH  16  17
HETATM   17  C   UNL     1      -8.745   4.569 -33.118  1.00  0.00     0.224 C 
HETATM   18  N   UNL     1      -9.295   3.945 -34.219  1.00  0.00    -0.327 N 
HETATM   19  H   UNL     1      -8.927   4.174 -35.135  1.00  0.00     0.169 HD
HETATM   20  O   UNL     1      -9.170   4.557 -31.969  1.00  0.00    -0.273 OA
BRANCH  18  21
HETATM   21  C   UNL     1     -10.351   3.008 -34.220  1.00  0.00     0.034 A 
HETATM   22  C   UNL     1     -11.614   3.258 -34.754  1.00  0.00     0.032 A 
HETATM   23  C   UNL     1     -12.617   2.285 -34.677  1.00  0.00     0.039 A 
HETATM   24  C   UNL     1     -12.375   1.049 -34.077  1.00  0.00     0.068 A 
HETATM   25  C   UNL     1     -11.115   0.795 -33.540  1.00  0.00     0.039 A 
HETATM   26  C   UNL     1     -10.112   1.770 -33.609  1.00  0.00     0.032 A 
BRANCH  24  27
HETATM   27  O   UNL     1     -13.441   0.196 -34.071  1.00  0.00    -0.356 OA
HETATM   28  C   UNL     1     -14.728   0.768 -34.271  1.00  0.00     0.210 C 
ENDBRANCH  24  27
ENDBRANCH  18  21
ENDBRANCH  16  17
ENDBRANCH   2  16
TORSDOF 6
ENDMDL
MODEL 4
REMARK VINA RESULT:      -7.6      5.483      8.518
REMARK  6 active torsions:
REMARK  status: ('A' for Active; 'I' for Inactive)
REMARK    1  A    between atoms: C_2  and  N_3 
REMARK    2  A    between atoms: C_2  and  C_16 
REMARK    3  A    between atoms: N_3  and  C_6 
REMARK    4  A    between atoms: C_16  and  C_17 
REMARK       I    between atoms: C_17  and  N_18 
REMARK    5  A    between atoms: N_18  and  C_19 
REMARK    6  A    between atoms: C_22  and  O_23 
ROOT
HETATM    1  C   UNL     1      -6.674   4.258 -31.256  1.00  0.00     0.040 C 
HETATM    2  C   UNL     1      -5.399   3.420 -31.210  1.00  0.00     0.191 C 
ENDROOT
BRANCH   2   3
HETATM    3  N   UNL     1      -4.198   4.291 -30.851  1.00  0.00    -0.063 N 
HETATM    4  H   UNL     1      -4.153   4.379 -29.830  1.00  0.00     0.278 HD
HETATM    5  H   UNL     1      -3.352   3.770 -31.116  1.00  0.00     0.278 HD
BRANCH   3   6
HETATM    6  C   UNL     1      -4.033   5.688 -31.449  1.00  0.00     0.221 C 
HETATM    7  C   UNL     1      -3.013   5.774 -32.567  1.00  0.00    -0.011 A 
HETATM    8  C   UNL     1      -2.072   6.818 -32.645  1.00  0.00     0.009 A 
HETATM    9  C   UNL     1      -3.027   4.815 -33.604  1.00  0.00     0.011 A 
HETATM   10  C   UNL     1      -1.118   6.825 -33.671  1.00  0.00     0.019 A 
HETATM   11  S   UNL     1      -2.013   8.183 -31.500  1.00  0.00    -0.129 SA
HETATM   12  C   UNL     1      -1.112   5.836 -34.651  1.00  0.00     0.001 A 
HETATM   13  C   UNL     1      -2.078   4.839 -34.627  1.00  0.00     0.001 A 
HETATM   14  C   UNL     1      -3.687   8.108 -30.822  1.00  0.00     0.082 C 
HETATM   15  C   UNL     1      -3.925   6.703 -30.303  1.00  0.00     0.048 C 
ENDBRANCH   3   6
ENDBRANCH   2   3
BRANCH   2  16
HETATM   16  C   UNL     1      -5.500   2.313 -30.144  1.00  0.00     0.135 C 
BRANCH  16  17
HETATM   17  C   UNL     1      -5.816   0.983 -30.798  1.00  0.00     0.224 C 
HETATM   18  N   UNL     1      -5.550   0.976 -32.152  1.00  0.00    -0.327 N 
HETATM   19  H   UNL     1      -5.321   1.854 -32.601  1.00  0.00     0.169 HD
HETATM   20  O   UNL     1      -6.279   0.067 -30.128  1.00  0.00    -0.273 OA
BRANCH  18  21
HETATM   21  C   UNL     1      -5.574  -0.144 -33.012  1.00  0.00     0.034 A 
HETATM   22  C   UNL     1      -6.649  -0.469 -33.838  1.00  0.00     0.032 A 
HETATM   23  C   UNL     1      -6.605  -1.620 -34.632  1.00  0.00     0.039 A 
HETATM   24  C   UNL     1      -5.490  -2.458 -34.621  1.00  0.00     0.068 A 
HETATM   25  C   UNL     1      -4.414  -2.140 -33.796  1.00  0.00     0.039 A 
HETATM   26  C   UNL     1      -4.459  -0.991 -32.995  1.00  0.00     0.032 A 
BRANCH  24  27
HETATM   27  O   UNL     1      -5.582  -3.546 -35.442  1.00  0.00    -0.356 OA
HETATM   28  C   UNL     1      -6.535  -4.542 -35.092  1.00  0.00     0.210 C 
ENDBRANCH  24  27
ENDBRANCH  18  21
ENDBRANCH  16  17
ENDBRANCH   2  16
TORSDOF 6
ENDMDL
MODEL 5
REMARK VINA RESULT:      -7.6      4.152      7.964
REMARK  6 active torsions:
REMARK  status: ('A' for Active; 'I' for Inactive)
REMARK    1  A    between atoms: C_2  and  N_3 
REMARK    2  A    between atoms: C_2  and  C_16 
REMARK    3  A    between atoms: N_3  and  C_6 
REMARK    4  A    between atoms: C_16  and  C_17 
REMARK       I    between atoms: C_17  and  N_18 
REMARK    5  A    between atoms: N_18  and  C_19 
REMARK    6  A    between atoms: C_22  and  O_23 
ROOT
HETATM    1  C   UNL     1      -8.602   1.980 -31.398  1.00  0.00     0.040 C 
HETATM    2  C   UNL     1      -7.130   1.889 -31.791  1.00  0.00     0.191 C 
ENDROOT
BRANCH   2   3
HETATM    3  N   UNL     1      -6.673   0.434 -31.825  1.00  0.00    -0.063 N 
HETATM    4  H   UNL     1      -6.784   0.035 -30.887  1.00  0.00     0.278 HD
HETATM    5  H   UNL     1      -7.336  -0.081 -32.420  1.00  0.00     0.278 HD
BRANCH   3   6
HETATM    6  C   UNL     1      -5.280   0.058 -32.331  1.00  0.00     0.221 C 
HETATM    7  C   UNL     1      -5.248  -1.159 -33.233  1.00  0.00    -0.011 A 
HETATM    8  C   UNL     1      -4.278  -2.169 -33.096  1.00  0.00     0.009 A 
HETATM    9  C   UNL     1      -6.182  -1.274 -34.288  1.00  0.00     0.011 A 
HETATM   10  C   UNL     1      -4.323  -3.300 -33.923  1.00  0.00     0.019 A 
HETATM   11  S   UNL     1      -2.947  -2.107 -31.913  1.00  0.00    -0.129 SA
HETATM   12  C   UNL     1      -5.288  -3.421 -34.919  1.00  0.00     0.001 A 
HETATM   13  C   UNL     1      -6.208  -2.400 -35.113  1.00  0.00     0.001 A 
HETATM   14  C   UNL     1      -2.908  -0.333 -31.565  1.00  0.00     0.082 C 
HETATM   15  C   UNL     1      -4.301   0.099 -31.150  1.00  0.00     0.048 C 
ENDBRANCH   3   6
ENDBRANCH   2   3
BRANCH   2  16
HETATM   16  C   UNL     1      -6.891   2.480 -33.193  1.00  0.00     0.135 C 
BRANCH  16  17
HETATM   17  C   UNL     1      -5.994   3.698 -33.103  1.00  0.00     0.224 C 
HETATM   18  N   UNL     1      -4.755   3.411 -32.567  1.00  0.00    -0.327 N 
HETATM   19  H   UNL     1      -4.608   2.495 -32.160  1.00  0.00     0.169 HD
HETATM   20  O   UNL     1      -6.409   4.792 -33.469  1.00  0.00    -0.273 OA
BRANCH  18  21
HETATM   21  C   UNL     1      -3.641   4.276 -32.503  1.00  0.00     0.034 A 
HETATM   22  C   UNL     1      -2.609   4.289 -33.440  1.00  0.00     0.032 A 
HETATM   23  C   UNL     1      -1.521   5.154 -33.279  1.00  0.00     0.039 A 
HETATM   24  C   UNL     1      -1.449   6.023 -32.190  1.00  0.00     0.068 A 
HETATM   25  C   UNL     1      -2.476   6.013 -31.249  1.00  0.00     0.039 A 
HETATM   26  C   UNL     1      -3.563   5.143 -31.405  1.00  0.00     0.032 A 
BRANCH  24  27
HETATM   27  O   UNL     1      -0.333   6.809 -32.157  1.00  0.00    -0.356 OA
HETATM   28  C   UNL     1       0.440   6.785 -30.963  1.00  0.00     0.210 C 
ENDBRANCH  24  27
ENDBRANCH  18  21
ENDBRANCH  16  17
ENDBRANCH   2  16
TORSDOF 6
ENDMDL
MODEL 6
REMARK VINA RESULT:      -7.5      1.834      2.630
REMARK  6 active torsions:
REMARK  status: ('A' for Active; 'I' for Inactive)
REMARK    1  A    between atoms: C_2  and  N_3 
REMARK    2  A    between atoms: C_2  and  C_16 
REMARK    3  A    between atoms: N_3  and  C_6 
REMARK    4  A    between atoms: C_16  and  C_17 
REMARK       I    between atoms: C_17  and  N_18 
REMARK    5  A    between atoms: N_18  and  C_19 
REMARK    6  A    between atoms: C_22  and  O_23 
ROOT
HETATM    1  C   UNL     1      -6.932   2.475 -29.905  1.00  0.00     0.040 C 
HETATM    2  C   UNL     1      -6.138   2.498 -31.209  1.00  0.00     0.191 C 
ENDROOT
BRANCH   2   3
HETATM    3  N   UNL     1      -6.203   1.139 -31.900  1.00  0.00    -0.063 N 
HETATM    4  H   UNL     1      -6.687   0.481 -31.280  1.00  0.00     0.278 HD
HETATM    5  H   UNL     1      -6.815   1.242 -32.720  1.00  0.00     0.278 HD
BRANCH   3   6
HETATM    6  C   UNL     1      -4.934   0.455 -32.409  1.00  0.00     0.221 C 
HETATM    7  C   UNL     1      -5.184  -0.752 -33.292  1.00  0.00    -0.011 A 
HETATM    8  C   UNL     1      -4.464  -1.951 -33.145  1.00  0.00     0.009 A 
HETATM    9  C   UNL     1      -6.131  -0.670 -34.339  1.00  0.00     0.011 A 
HETATM   10  C   UNL     1      -4.768  -3.055 -33.954  1.00  0.00     0.019 A 
HETATM   11  S   UNL     1      -3.140  -2.171 -31.972  1.00  0.00    -0.129 SA
HETATM   12  C   UNL     1      -5.746  -2.971 -34.941  1.00  0.00     0.001 A 
HETATM   13  C   UNL     1      -6.416  -1.773 -35.145  1.00  0.00     0.001 A 
HETATM   14  C   UNL     1      -2.702  -0.447 -31.653  1.00  0.00     0.082 C 
HETATM   15  C   UNL     1      -3.959   0.292 -31.235  1.00  0.00     0.048 C 
ENDBRANCH   3   6
ENDBRANCH   2   3
BRANCH   2  16
HETATM   16  C   UNL     1      -6.709   3.540 -32.188  1.00  0.00     0.135 C 
BRANCH  16  17
HETATM   17  C   UNL     1      -7.739   2.897 -33.096  1.00  0.00     0.224 C 
HETATM   18  N   UNL     1      -9.003   2.880 -32.543  1.00  0.00    -0.327 N 
HETATM   19  H   UNL     1      -9.105   3.145 -31.571  1.00  0.00     0.169 HD
HETATM   20  O   UNL     1      -7.398   2.445 -34.183  1.00  0.00    -0.273 OA
BRANCH  18  21
HETATM   21  C   UNL     1     -10.203   2.510 -33.189  1.00  0.00     0.034 A 
HETATM   22  C   UNL     1     -11.046   3.408 -33.842  1.00  0.00     0.032 A 
HETATM   23  C   UNL     1     -12.238   2.961 -34.423  1.00  0.00     0.039 A 
HETATM   24  C   UNL     1     -12.602   1.616 -34.370  1.00  0.00     0.068 A 
HETATM   25  C   UNL     1     -11.765   0.715 -33.717  1.00  0.00     0.039 A 
HETATM   26  C   UNL     1     -10.575   1.161 -33.129  1.00  0.00     0.032 A 
BRANCH  24  27
HETATM   27  O   UNL     1     -13.790   1.319 -34.977  1.00  0.00    -0.356 OA
HETATM   28  C   UNL     1     -14.792   0.709 -34.173  1.00  0.00     0.210 C 
ENDBRANCH  24  27
ENDBRANCH  18  21
ENDBRANCH  16  17
ENDBRANCH   2  16
TORSDOF 6
ENDMDL
MODEL 7
REMARK VINA RESULT:      -7.5      3.979      6.926
REMARK  6 active torsions:
REMARK  status: ('A' for Active; 'I' for Inactive)
REMARK    1  A    between atoms: C_2  and  N_3 
REMARK    2  A    between atoms: C_2  and  C_16 
REMARK    3  A    between atoms: N_3  and  C_6 
REMARK    4  A    between atoms: C_16  and  C_17 
REMARK       I    between atoms: C_17  and  N_18 
REMARK    5  A    between atoms: N_18  and  C_19 
REMARK    6  A    between atoms: C_22  and  O_23 
ROOT
HETATM    1  C   UNL     1      -6.976   0.752 -35.153  1.00  0.00     0.040 C 
HETATM    2  C   UNL     1      -7.772   0.383 -33.904  1.00  0.00     0.191 C 
ENDROOT
BRANCH   2   3
HETATM    3  N   UNL     1      -6.925  -0.466 -32.960  1.00  0.00    -0.063 N 
HETATM    4  H   UNL     1      -6.936  -0.031 -32.032  1.00  0.00     0.278 HD
HETATM    5  H   UNL     1      -7.407  -1.368 -32.844  1.00  0.00     0.278 HD
BRANCH   3   6
HETATM    6  C   UNL     1      -5.474  -0.810 -33.299  1.00  0.00     0.221 C 
HETATM    7  C   UNL     1      -5.253  -2.248 -33.722  1.00  0.00    -0.011 A 
HETATM    8  C   UNL     1      -4.177  -3.015 -33.239  1.00  0.00     0.009 A 
HETATM    9  C   UNL     1      -6.114  -2.838 -34.676  1.00  0.00     0.011 A 
HETATM   10  C   UNL     1      -4.046  -4.357 -33.623  1.00  0.00     0.019 A 
HETATM   11  S   UNL     1      -2.922  -2.379 -32.146  1.00  0.00    -0.129 SA
HETATM   12  C   UNL     1      -4.940  -4.937 -34.518  1.00  0.00     0.001 A 
HETATM   13  C   UNL     1      -5.965  -4.172 -35.058  1.00  0.00     0.001 A 
HETATM   14  C   UNL     1      -3.112  -0.605 -32.435  1.00  0.00     0.082 C 
HETATM   15  C   UNL     1      -4.566  -0.240 -32.202  1.00  0.00     0.048 C 
ENDBRANCH   3   6
ENDBRANCH   2   3
BRANCH   2  16
HETATM   16  C   UNL     1      -8.204   1.640 -33.128  1.00  0.00     0.135 C 
BRANCH  16  17
HETATM   17  C   UNL     1      -7.074   2.123 -32.239  1.00  0.00     0.224 C 
HETATM   18  N   UNL     1      -6.172   2.924 -32.909  1.00  0.00    -0.327 N 
HETATM   19  H   UNL     1      -6.250   2.996 -33.917  1.00  0.00     0.169 HD
HETATM   20  O   UNL     1      -7.029   1.774 -31.066  1.00  0.00    -0.273 OA
BRANCH  18  21
HETATM   21  C   UNL     1      -5.112   3.663 -32.339  1.00  0.00     0.034 A 
HETATM   22  C   UNL     1      -5.291   4.734 -31.466  1.00  0.00     0.032 A 
HETATM   23  C   UNL     1      -4.184   5.437 -30.977  1.00  0.00     0.039 A 
HETATM   24  C   UNL     1      -2.887   5.079 -31.343  1.00  0.00     0.068 A 
HETATM   25  C   UNL     1      -2.702   4.010 -32.217  1.00  0.00     0.039 A 
HETATM   26  C   UNL     1      -3.809   3.309 -32.713  1.00  0.00     0.032 A 
BRANCH  24  27
HETATM   27  O   UNL     1      -1.902   5.850 -30.794  1.00  0.00    -0.356 OA
HETATM   28  C   UNL     1      -0.634   5.237 -30.598  1.00  0.00     0.210 C 
ENDBRANCH  24  27
ENDBRANCH  18  21
ENDBRANCH  16  17
ENDBRANCH   2  16
TORSDOF 6
ENDMDL
MODEL 8
REMARK VINA RESULT:      -7.4      4.046      8.120
REMARK  6 active torsions:
REMARK  status: ('A' for Active; 'I' for Inactive)
REMARK    1  A    between atoms: C_2  and  N_3 
REMARK    2  A    between atoms: C_2  and  C_16 
REMARK    3  A    between atoms: N_3  and  C_6 
REMARK    4  A    between atoms: C_16  and  C_17 
REMARK       I    between atoms: C_17  and  N_18 
REMARK    5  A    between atoms: N_18  and  C_19 
REMARK    6  A    between atoms: C_22  and  O_23 
ROOT
HETATM    1  C   UNL     1      -5.589   4.667 -29.715  1.00  0.00     0.040 C 
HETATM    2  C   UNL     1      -6.016   3.332 -30.319  1.00  0.00     0.191 C 
ENDROOT
BRANCH   2   3
HETATM    3  N   UNL     1      -7.032   3.550 -31.436  1.00  0.00    -0.063 N 
HETATM    4  H   UNL     1      -6.811   4.432 -31.910  1.00  0.00     0.278 HD
HETATM    5  H   UNL     1      -6.875   2.816 -32.140  1.00  0.00     0.278 HD
BRANCH   3   6
HETATM    6  C   UNL     1      -8.534   3.538 -31.148  1.00  0.00     0.221 C 
HETATM    7  C   UNL     1      -9.309   2.482 -31.910  1.00  0.00    -0.011 A 
HETATM    8  C   UNL     1     -10.538   2.760 -32.538  1.00  0.00     0.009 A 
HETATM    9  C   UNL     1      -8.825   1.155 -31.957  1.00  0.00     0.011 A 
HETATM   10  C   UNL     1     -11.191   1.761 -33.273  1.00  0.00     0.019 A 
HETATM   11  S   UNL     1     -11.355   4.341 -32.452  1.00  0.00    -0.129 SA
HETATM   12  C   UNL     1     -10.667   0.474 -33.355  1.00  0.00     0.001 A 
HETATM   13  C   UNL     1      -9.491   0.166 -32.684  1.00  0.00     0.001 A 
HETATM   14  C   UNL     1     -10.556   5.039 -30.988  1.00  0.00     0.082 C 
HETATM   15  C   UNL     1      -9.054   4.980 -31.195  1.00  0.00     0.048 C 
ENDBRANCH   3   6
ENDBRANCH   2   3
BRANCH   2  16
HETATM   16  C   UNL     1      -4.814   2.588 -30.929  1.00  0.00     0.135 C 
BRANCH  16  17
HETATM   17  C   UNL     1      -5.209   1.173 -31.306  1.00  0.00     0.224 C 
HETATM   18  N   UNL     1      -5.008   0.900 -32.643  1.00  0.00    -0.327 N 
HETATM   19  H   UNL     1      -4.770   1.668 -33.260  1.00  0.00     0.169 HD
HETATM   20  O   UNL     1      -5.672   0.421 -30.456  1.00  0.00    -0.273 OA
BRANCH  18  21
HETATM   21  C   UNL     1      -5.114  -0.358 -33.274  1.00  0.00     0.034 A 
HETATM   22  C   UNL     1      -6.205  -0.754 -34.046  1.00  0.00     0.032 A 
HETATM   23  C   UNL     1      -6.245  -2.037 -34.604  1.00  0.00     0.039 A 
HETATM   24  C   UNL     1      -5.199  -2.938 -34.409  1.00  0.00     0.068 A 
HETATM   25  C   UNL     1      -4.107  -2.549 -33.637  1.00  0.00     0.039 A 
HETATM   26  C   UNL     1      -4.067  -1.268 -33.072  1.00  0.00     0.032 A 
BRANCH  24  27
HETATM   27  O   UNL     1      -5.370  -4.154 -35.009  1.00  0.00    -0.356 OA
HETATM   28  C   UNL     1      -6.694  -4.508 -35.387  1.00  0.00     0.210 C 
ENDBRANCH  24  27
ENDBRANCH  18  21
ENDBRANCH  16  17
ENDBRANCH   2  16
TORSDOF 6
ENDMDL
MODEL 9
REMARK VINA RESULT:      -7.3      3.838      5.716
REMARK  6 active torsions:
REMARK  status: ('A' for Active; 'I' for Inactive)
REMARK    1  A    between atoms: C_2  and  N_3 
REMARK    2  A    between atoms: C_2  and  C_16 
REMARK    3  A    between atoms: N_3  and  C_6 
REMARK    4  A    between atoms: C_16  and  C_17 
REMARK       I    between atoms: C_17  and  N_18 
REMARK    5  A    between atoms: N_18  and  C_19 
REMARK    6  A    between atoms: C_22  and  O_23 
ROOT
HETATM    1  C   UNL     1     -12.015  -0.095 -33.415  1.00  0.00     0.040 C 
HETATM    2  C   UNL     1     -11.899   1.358 -33.870  1.00  0.00     0.191 C 
ENDROOT
BRANCH   2   3
HETATM    3  N   UNL     1     -10.650   1.554 -34.724  1.00  0.00    -0.063 N 
HETATM    4  H   UNL     1     -10.458   0.681 -35.226  1.00  0.00     0.278 HD
HETATM    5  H   UNL     1     -10.883   2.242 -35.453  1.00  0.00     0.278 HD
BRANCH   3   6
HETATM    6  C   UNL     1      -9.338   2.033 -34.101  1.00  0.00     0.221 C 
HETATM    7  C   UNL     1      -8.287   0.953 -33.945  1.00  0.00    -0.011 A 
HETATM    8  C   UNL     1      -7.527   0.810 -32.770  1.00  0.00     0.009 A 
HETATM    9  C   UNL     1      -8.008   0.085 -35.025  1.00  0.00     0.011 A 
HETATM   10  C   UNL     1      -6.602  -0.238 -32.656  1.00  0.00     0.019 A 
HETATM   11  S   UNL     1      -7.653   1.908 -31.372  1.00  0.00    -0.129 SA
HETATM   12  C   UNL     1      -6.385  -1.118 -33.713  1.00  0.00     0.001 A 
HETATM   13  C   UNL     1      -7.077  -0.947 -34.904  1.00  0.00     0.001 A 
HETATM   14  C   UNL     1      -8.405   3.350 -32.161  1.00  0.00     0.082 C 
HETATM   15  C   UNL     1      -9.664   2.896 -32.875  1.00  0.00     0.048 C 
ENDBRANCH   3   6
ENDBRANCH   2   3
BRANCH   2  16
HETATM   16  C   UNL     1     -13.111   1.770 -34.726  1.00  0.00     0.135 C 
BRANCH  16  17
HETATM   17  C   UNL     1     -12.763   2.971 -35.583  1.00  0.00     0.224 C 
HETATM   18  N   UNL     1     -12.922   4.169 -34.916  1.00  0.00    -0.327 N 
HETATM   19  H   UNL     1     -13.377   4.157 -34.011  1.00  0.00     0.169 HD
HETATM   20  O   UNL     1     -12.407   2.811 -36.745  1.00  0.00    -0.273 OA
BRANCH  18  21
HETATM   21  C   UNL     1     -12.528   5.447 -35.368  1.00  0.00     0.034 A 
HETATM   22  C   UNL     1     -13.391   6.360 -35.973  1.00  0.00     0.032 A 
HETATM   23  C   UNL     1     -12.907   7.592 -36.427  1.00  0.00     0.039 A 
HETATM   24  C   UNL     1     -11.563   7.935 -36.278  1.00  0.00     0.068 A 
HETATM   25  C   UNL     1     -10.697   7.026 -35.677  1.00  0.00     0.039 A 
HETATM   26  C   UNL     1     -11.177   5.790 -35.227  1.00  0.00     0.032 A 
BRANCH  24  27
HETATM   27  O   UNL     1     -11.229   9.166 -36.767  1.00  0.00    -0.356 OA
HETATM   28  C   UNL     1     -10.038   9.253 -37.540  1.00  0.00     0.210 C 
ENDBRANCH  24  27
ENDBRANCH  18  21
ENDBRANCH  16  17
ENDBRANCH   2  16
TORSDOF 6
ENDMDL
MODEL 10
REMARK VINA RESULT:      -7.2      5.656      8.956
REMARK  6 active torsions:
REMARK  status: ('A' for Active; 'I' for Inactive)
REMARK    1  A    between atoms: C_2  and  N_3 
REMARK    2  A    between atoms: C_2  and  C_16 
REMARK    3  A    between atoms: N_3  and  C_6 
REMARK    4  A    between atoms: C_16  and  C_17 
REMARK       I    between atoms: C_17  and  N_18 
REMARK    5  A    between atoms: N_18  and  C_19 
REMARK    6  A    between atoms: C_22  and  O_23 
ROOT
HETATM    1  C   UNL     1      -4.735   4.298 -32.866  1.00  0.00     0.040 C 
HETATM    2  C   UNL     1      -4.548   3.609 -31.517  1.00  0.00     0.191 C 
ENDROOT
BRANCH   2   3
HETATM    3  N   UNL     1      -4.156   4.623 -30.447  1.00  0.00    -0.063 N 
HETATM    4  H   UNL     1      -4.950   4.752 -29.812  1.00  0.00     0.278 HD
HETATM    5  H   UNL     1      -3.416   4.194 -29.875  1.00  0.00     0.278 HD
BRANCH   3   6
HETATM    6  C   UNL     1      -3.635   6.010 -30.830  1.00  0.00     0.221 C 
HETATM    7  C   UNL     1      -2.125   6.139 -30.811  1.00  0.00    -0.011 A 
HETATM    8  C   UNL     1      -1.474   7.249 -30.243  1.00  0.00     0.009 A 
HETATM    9  C   UNL     1      -1.329   5.147 -31.428  1.00  0.00     0.011 A 
HETATM   10  C   UNL     1      -0.074   7.298 -30.206  1.00  0.00     0.019 A 
HETATM   11  S   UNL     1      -2.332   8.651 -29.553  1.00  0.00    -0.129 SA
HETATM   12  C   UNL     1       0.693   6.281 -30.769  1.00  0.00     0.001 A 
HETATM   13  C   UNL     1       0.065   5.213 -31.395  1.00  0.00     0.001 A 
HETATM   14  C   UNL     1      -3.943   8.468 -30.352  1.00  0.00     0.082 C 
HETATM   15  C   UNL     1      -4.452   7.066 -30.075  1.00  0.00     0.048 C 
ENDBRANCH   3   6
ENDBRANCH   2   3
BRANCH   2  16
HETATM   16  C   UNL     1      -5.852   2.933 -31.054  1.00  0.00     0.135 C 
BRANCH  16  17
HETATM   17  C   UNL     1      -5.786   1.439 -31.307  1.00  0.00     0.224 C 
HETATM   18  N   UNL     1      -5.951   1.115 -32.638  1.00  0.00    -0.327 N 
HETATM   19  H   UNL     1      -6.237   1.845 -33.278  1.00  0.00     0.169 HD
HETATM   20  O   UNL     1      -5.623   0.667 -30.369  1.00  0.00    -0.273 OA
BRANCH  18  21
HETATM   21  C   UNL     1      -5.777  -0.158 -33.225  1.00  0.00     0.034 A 
HETATM   22  C   UNL     1      -4.540  -0.779 -33.387  1.00  0.00     0.032 A 
HETATM   23  C   UNL     1      -4.455  -2.027 -34.016  1.00  0.00     0.039 A 
HETATM   24  C   UNL     1      -5.599  -2.675 -34.483  1.00  0.00     0.068 A 
HETATM   25  C   UNL     1      -6.837  -2.057 -34.326  1.00  0.00     0.039 A 
HETATM   26  C   UNL     1      -6.924  -0.806 -33.703  1.00  0.00     0.032 A 
BRANCH  24  27
HETATM   27  O   UNL     1      -5.370  -3.884 -35.077  1.00  0.00    -0.356 OA
HETATM   28  C   UNL     1      -6.510  -4.658 -35.427  1.00  0.00     0.210 C 
ENDBRANCH  24  27
ENDBRANCH  18  21
ENDBRANCH  16  17
ENDBRANCH   2  16
TORSDOF 6
ENDMDL
