MODEL 1
REMARK VINA RESULT:      -9.1      0.000      0.000
REMARK  5 active torsions:
REMARK  status: ('A' for Active; 'I' for Inactive)
REMARK    1  A    between atoms: C_4  and  N_5 
REMARK       I    between atoms: N_5  and  C_6 
REMARK    2  A    between atoms: C_6  and  C_7 
REMARK    3  A    between atoms: N_9  and  C_10 
REMARK    4  A    between atoms: C_10  and  C_11 
REMARK    5  A    between atoms: C_14  and  O_15 
ROOT
HETATM    1  C   UNL     1      -3.747   3.995 -31.776  1.00  0.00     0.105 C 
HETATM    2  C   UNL     1      -2.246   4.227 -31.725  1.00  0.00     0.140 C 
HETATM    3  N   UNL     1      -2.099   5.427 -32.515  1.00  0.00    -0.347 N 
HETATM    4  C   UNL     1      -3.118   5.564 -33.439  1.00  0.00     0.221 C 
HETATM    5  O   UNL     1      -3.209   6.410 -34.312  1.00  0.00    -0.273 OA
HETATM    6  C   UNL     1      -4.122   4.468 -33.182  1.00  0.00     0.118 C 
ENDROOT
BRANCH   1   7
HETATM    7  C   UNL     1      -4.159   2.562 -31.507  1.00  0.00     0.228 C 
HETATM    8  N   UNL     1      -3.887   1.752 -32.589  1.00  0.00    -0.325 N 
HETATM    9  H   UNL     1      -3.484   2.168 -33.429  1.00  0.00     0.169 HD
HETATM   10  O   UNL     1      -4.703   2.225 -30.462  1.00  0.00    -0.273 OA
BRANCH   8  11
HETATM   11  C   UNL     1      -4.176   0.378 -32.775  1.00  0.00     0.065 A 
HETATM   12  C   UNL     1      -3.416  -0.656 -32.221  1.00  0.00     0.038 A 
HETATM   13  C   UNL     1      -3.777  -1.991 -32.434  1.00  0.00    -0.059 A 
HETATM   14  C   UNL     1      -2.945  -3.105 -31.868  1.00  0.00     0.048 C 
HETATM   15  C   UNL     1      -4.892  -2.277 -33.229  1.00  0.00     0.020 A 
HETATM   16  C   UNL     1      -5.657  -1.242 -33.790  1.00  0.00    -0.005 A 
HETATM   17  C   UNL     1      -5.303   0.104 -33.568  1.00  0.00     0.093 A 
HETATM   18  C   UNL     1      -6.786  -1.508 -34.577  1.00  0.00     0.015 A 
HETATM   19  N   UNL     1      -6.022   1.129 -34.091  1.00  0.00    -0.258 NA
HETATM   20  C   UNL     1      -7.104   0.830 -34.843  1.00  0.00     0.117 A 
HETATM   21  C   UNL     1      -7.522  -0.457 -35.112  1.00  0.00     0.020 A 
ENDBRANCH   8  11
ENDBRANCH   1   7
BRANCH   3  22
HETATM   22  C   UNL     1      -0.947   6.300 -32.433  1.00  0.00     0.164 C 
BRANCH  22  23
HETATM   23  C   UNL     1      -0.754   6.942 -31.083  1.00  0.00    -0.040 A 
HETATM   24  C   UNL     1       0.418   6.717 -30.349  1.00  0.00     0.011 A 
HETATM   25  C   UNL     1       0.639   7.390 -29.145  1.00  0.00     0.037 A 
HETATM   26  C   UNL     1      -0.295   8.310 -28.666  1.00  0.00     0.068 A 
HETATM   27  C   UNL     1      -1.485   8.506 -29.367  1.00  0.00     0.037 A 
HETATM   28  C   UNL     1      -1.711   7.826 -30.569  1.00  0.00     0.011 A 
BRANCH  26  29
HETATM   29  O   UNL     1       0.048   8.942 -27.502  1.00  0.00    -0.356 OA
HETATM   30  C   UNL     1       1.428   8.886 -27.158  1.00  0.00     0.210 C 
ENDBRANCH  26  29
ENDBRANCH  22  23
ENDBRANCH   3  22
TORSDOF 5
ENDMDL
MODEL 2
REMARK VINA RESULT:      -8.9      1.500      2.826
REMARK  5 active torsions:
REMARK  status: ('A' for Active; 'I' for Inactive)
REMARK    1  A    between atoms: C_4  and  N_5 
REMARK       I    between atoms: N_5  and  C_6 
REMARK    2  A    between atoms: C_6  and  C_7 
REMARK    3  A    between atoms: N_9  and  C_10 
REMARK    4  A    between atoms: C_10  and  C_11 
REMARK    5  A    between atoms: C_14  and  O_15 
ROOT
HETATM    1  C   UNL     1      -4.202   3.872 -31.125  1.00  0.00     0.105 C 
HETATM    2  C   UNL     1      -2.804   3.552 -31.628  1.00  0.00     0.140 C 
HETATM    3  N   UNL     1      -2.324   4.852 -32.034  1.00  0.00    -0.347 N 
HETATM    4  C   UNL     1      -3.361   5.699 -32.380  1.00  0.00     0.221 C 
HETATM    5  O   UNL     1      -3.267   6.816 -32.861  1.00  0.00    -0.273 OA
HETATM    6  C   UNL     1      -4.656   4.997 -32.057  1.00  0.00     0.118 C 
ENDROOT
BRANCH   1   7
HETATM    7  C   UNL     1      -5.145   2.687 -31.128  1.00  0.00     0.228 C 
HETATM    8  N   UNL     1      -5.540   2.366 -32.411  1.00  0.00    -0.325 N 
HETATM    9  H   UNL     1      -5.206   2.936 -33.187  1.00  0.00     0.169 HD
HETATM   10  O   UNL     1      -5.515   2.144 -30.094  1.00  0.00    -0.273 OA
BRANCH   8  11
HETATM   11  C   UNL     1      -6.460   1.381 -32.845  1.00  0.00     0.065 A 
HETATM   12  C   UNL     1      -7.844   1.574 -32.879  1.00  0.00     0.038 A 
HETATM   13  C   UNL     1      -8.688   0.557 -33.341  1.00  0.00    -0.059 A 
HETATM   14  C   UNL     1     -10.177   0.748 -33.348  1.00  0.00     0.048 C 
HETATM   15  C   UNL     1      -8.131  -0.661 -33.742  1.00  0.00     0.020 A 
HETATM   16  C   UNL     1      -6.741  -0.861 -33.708  1.00  0.00    -0.005 A 
HETATM   17  C   UNL     1      -5.888   0.165 -33.255  1.00  0.00     0.093 A 
HETATM   18  C   UNL     1      -6.163  -2.069 -34.120  1.00  0.00     0.015 A 
HETATM   19  N   UNL     1      -4.541   0.008 -33.212  1.00  0.00    -0.258 NA
HETATM   20  C   UNL     1      -4.023  -1.172 -33.618  1.00  0.00     0.117 A 
HETATM   21  C   UNL     1      -4.784  -2.229 -34.076  1.00  0.00     0.020 A 
ENDBRANCH   8  11
ENDBRANCH   1   7
BRANCH   3  22
HETATM   22  C   UNL     1      -0.920   5.173 -32.186  1.00  0.00     0.164 C 
BRANCH  22  23
HETATM   23  C   UNL     1      -0.275   5.728 -30.942  1.00  0.00    -0.040 A 
HETATM   24  C   UNL     1      -0.298   7.105 -30.683  1.00  0.00     0.011 A 
HETATM   25  C   UNL     1       0.211   7.606 -29.483  1.00  0.00     0.037 A 
HETATM   26  C   UNL     1       0.733   6.743 -28.519  1.00  0.00     0.068 A 
HETATM   27  C   UNL     1       0.801   5.376 -28.788  1.00  0.00     0.037 A 
HETATM   28  C   UNL     1       0.298   4.873 -29.992  1.00  0.00     0.011 A 
BRANCH  26  29
HETATM   29  O   UNL     1       1.161   7.342 -27.365  1.00  0.00    -0.356 OA
HETATM   30  C   UNL     1       1.630   8.678 -27.506  1.00  0.00     0.210 C 
ENDBRANCH  26  29
ENDBRANCH  22  23
ENDBRANCH   3  22
TORSDOF 5
ENDMDL
MODEL 3
REMARK VINA RESULT:      -8.7      2.494      9.587
REMARK  5 active torsions:
REMARK  status: ('A' for Active; 'I' for Inactive)
REMARK    1  A    between atoms: C_4  and  N_5 
REMARK       I    between atoms: N_5  and  C_6 
REMARK    2  A    between atoms: C_6  and  C_7 
REMARK    3  A    between atoms: N_9  and  C_10 
REMARK    4  A    between atoms: C_10  and  C_11 
REMARK    5  A    between atoms: C_14  and  O_15 
ROOT
HETATM    1  C   UNL     1      -5.187   3.873 -33.699  1.00  0.00     0.105 C 
HETATM    2  C   UNL     1      -5.169   3.001 -32.454  1.00  0.00     0.140 C 
HETATM    3  N   UNL     1      -6.363   2.207 -32.624  1.00  0.00    -0.347 N 
HETATM    4  C   UNL     1      -7.307   2.855 -33.398  1.00  0.00     0.221 C 
HETATM    5  O   UNL     1      -8.448   2.488 -33.626  1.00  0.00    -0.273 OA
HETATM    6  C   UNL     1      -6.680   4.122 -33.925  1.00  0.00     0.118 C 
ENDROOT
BRANCH   1   7
HETATM    7  C   UNL     1      -4.390   5.154 -33.567  1.00  0.00     0.228 C 
HETATM    8  N   UNL     1      -4.118   5.439 -32.244  1.00  0.00    -0.325 N 
HETATM    9  H   UNL     1      -4.478   4.817 -31.521  1.00  0.00     0.169 HD
HETATM   10  O   UNL     1      -4.088   5.838 -34.537  1.00  0.00    -0.273 OA
BRANCH   8  11
HETATM   11  C   UNL     1      -3.465   6.565 -31.687  1.00  0.00     0.065 A 
HETATM   12  C   UNL     1      -4.107   7.778 -31.415  1.00  0.00     0.038 A 
HETATM   13  C   UNL     1      -3.398   8.840 -30.844  1.00  0.00    -0.059 A 
HETATM   14  C   UNL     1      -4.075  10.154 -30.582  1.00  0.00     0.048 C 
HETATM   15  C   UNL     1      -2.035   8.682 -30.572  1.00  0.00     0.020 A 
HETATM   16  C   UNL     1      -1.385   7.468 -30.845  1.00  0.00    -0.005 A 
HETATM   17  C   UNL     1      -2.099   6.391 -31.409  1.00  0.00     0.093 A 
HETATM   18  C   UNL     1      -0.024   7.285 -30.566  1.00  0.00     0.015 A 
HETATM   19  N   UNL     1      -1.504   5.203 -31.682  1.00  0.00    -0.258 NA
HETATM   20  C   UNL     1      -0.190   5.068 -31.398  1.00  0.00     0.117 A 
HETATM   21  C   UNL     1       0.585   6.067 -30.846  1.00  0.00     0.020 A 
ENDBRANCH   8  11
ENDBRANCH   1   7
BRANCH   3  22
HETATM   22  C   UNL     1      -6.585   0.946 -31.949  1.00  0.00     0.164 C 
BRANCH  22  23
HETATM   23  C   UNL     1      -6.273  -0.267 -32.787  1.00  0.00    -0.040 A 
HETATM   24  C   UNL     1      -7.272  -0.874 -33.560  1.00  0.00     0.011 A 
HETATM   25  C   UNL     1      -6.958  -1.935 -34.412  1.00  0.00     0.037 A 
HETATM   26  C   UNL     1      -5.645  -2.394 -34.520  1.00  0.00     0.068 A 
HETATM   27  C   UNL     1      -4.653  -1.825 -33.720  1.00  0.00     0.037 A 
HETATM   28  C   UNL     1      -4.967  -0.768 -32.860  1.00  0.00     0.011 A 
BRANCH  26  29
HETATM   29  O   UNL     1      -5.449  -3.407 -35.418  1.00  0.00    -0.356 OA
HETATM   30  C   UNL     1      -6.378  -4.483 -35.341  1.00  0.00     0.210 C 
ENDBRANCH  26  29
ENDBRANCH  22  23
ENDBRANCH   3  22
TORSDOF 5
ENDMDL
MODEL 4
REMARK VINA RESULT:      -8.7      1.561      2.095
REMARK  5 active torsions:
REMARK  status: ('A' for Active; 'I' for Inactive)
REMARK    1  A    between atoms: C_4  and  N_5 
REMARK       I    between atoms: N_5  and  C_6 
REMARK    2  A    between atoms: C_6  and  C_7 
REMARK    3  A    between atoms: N_9  and  C_10 
REMARK    4  A    between atoms: C_10  and  C_11 
REMARK    5  A    between atoms: C_14  and  O_15 
ROOT
HETATM    1  C   UNL     1      -4.021   3.923 -31.943  1.00  0.00     0.105 C 
HETATM    2  C   UNL     1      -2.503   3.850 -31.948  1.00  0.00     0.140 C 
HETATM    3  N   UNL     1      -2.143   5.084 -32.605  1.00  0.00    -0.347 N 
HETATM    4  C   UNL     1      -3.142   5.529 -33.451  1.00  0.00     0.221 C 
HETATM    5  O   UNL     1      -3.088   6.475 -34.218  1.00  0.00    -0.273 OA
HETATM    6  C   UNL     1      -4.337   4.627 -33.265  1.00  0.00     0.118 C 
ENDROOT
BRANCH   1   7
HETATM    7  C   UNL     1      -4.704   2.577 -31.815  1.00  0.00     0.228 C 
HETATM    8  N   UNL     1      -5.225   2.163 -33.023  1.00  0.00    -0.325 N 
HETATM    9  H   UNL     1      -5.133   2.774 -33.835  1.00  0.00     0.169 HD
HETATM   10  O   UNL     1      -4.794   1.991 -30.743  1.00  0.00    -0.273 OA
BRANCH   8  11
HETATM   11  C   UNL     1      -5.990   1.010 -33.321  1.00  0.00     0.065 A 
HETATM   12  C   UNL     1      -5.435  -0.204 -33.738  1.00  0.00     0.038 A 
HETATM   13  C   UNL     1      -6.258  -1.307 -33.994  1.00  0.00    -0.059 A 
HETATM   14  C   UNL     1      -5.669  -2.601 -34.473  1.00  0.00     0.048 C 
HETATM   15  C   UNL     1      -7.643  -1.171 -33.852  1.00  0.00     0.020 A 
HETATM   16  C   UNL     1      -8.206   0.046 -33.436  1.00  0.00    -0.005 A 
HETATM   17  C   UNL     1      -7.379   1.156 -33.166  1.00  0.00     0.093 A 
HETATM   18  C   UNL     1      -9.590   0.197 -33.274  1.00  0.00     0.015 A 
HETATM   19  N   UNL     1      -7.889   2.345 -32.758  1.00  0.00    -0.258 NA
HETATM   20  C   UNL     1      -9.229   2.449 -32.614  1.00  0.00     0.117 A 
HETATM   21  C   UNL     1     -10.111   1.416 -32.856  1.00  0.00     0.020 A 
ENDBRANCH   8  11
ENDBRANCH   1   7
BRANCH   3  22
HETATM   22  C   UNL     1      -0.837   5.699 -32.488  1.00  0.00     0.164 C 
BRANCH  22  23
HETATM   23  C   UNL     1      -0.431   6.020 -31.073  1.00  0.00    -0.040 A 
HETATM   24  C   UNL     1       0.310   5.099 -30.319  1.00  0.00     0.011 A 
HETATM   25  C   UNL     1       0.771   5.438 -29.045  1.00  0.00     0.037 A 
HETATM   26  C   UNL     1       0.517   6.702 -28.512  1.00  0.00     0.068 A 
HETATM   27  C   UNL     1      -0.258   7.608 -29.237  1.00  0.00     0.037 A 
HETATM   28  C   UNL     1      -0.727   7.268 -30.510  1.00  0.00     0.011 A 
BRANCH  26  29
HETATM   29  O   UNL     1       1.056   6.937 -27.277  1.00  0.00    -0.356 OA
HETATM   30  C   UNL     1       1.572   8.248 -27.072  1.00  0.00     0.210 C 
ENDBRANCH  26  29
ENDBRANCH  22  23
ENDBRANCH   3  22
TORSDOF 5
ENDMDL
MODEL 5
REMARK VINA RESULT:      -8.5      2.897      9.285
REMARK  5 active torsions:
REMARK  status: ('A' for Active; 'I' for Inactive)
REMARK    1  A    between atoms: C_4  and  N_5 
REMARK       I    between atoms: N_5  and  C_6 
REMARK    2  A    between atoms: C_6  and  C_7 
REMARK    3  A    between atoms: N_9  and  C_10 
REMARK    4  A    between atoms: C_10  and  C_11 
REMARK    5  A    between atoms: C_14  and  O_15 
ROOT
HETATM    1  C   UNL     1      -6.683   3.337 -31.956  1.00  0.00     0.105 C 
HETATM    2  C   UNL     1      -6.171   2.410 -33.046  1.00  0.00     0.140 C 
HETATM    3  N   UNL     1      -7.129   1.330 -32.999  1.00  0.00    -0.347 N 
HETATM    4  C   UNL     1      -7.708   1.209 -31.749  1.00  0.00     0.221 C 
HETATM    5  O   UNL     1      -8.466   0.331 -31.373  1.00  0.00    -0.273 OA
HETATM    6  C   UNL     1      -7.233   2.368 -30.908  1.00  0.00     0.118 C 
ENDROOT
BRANCH   1   7
HETATM    7  C   UNL     1      -5.631   4.273 -31.398  1.00  0.00     0.228 C 
HETATM    8  N   UNL     1      -5.320   5.270 -32.300  1.00  0.00    -0.325 N 
HETATM    9  H   UNL     1      -5.777   5.271 -33.212  1.00  0.00     0.169 HD
HETATM   10  O   UNL     1      -5.119   4.099 -30.299  1.00  0.00    -0.273 OA
BRANCH   8  11
HETATM   11  C   UNL     1      -4.349   6.296 -32.201  1.00  0.00     0.065 A 
HETATM   12  C   UNL     1      -4.477   7.408 -31.363  1.00  0.00     0.038 A 
HETATM   13  C   UNL     1      -3.464   8.371 -31.305  1.00  0.00    -0.059 A 
HETATM   14  C   UNL     1      -3.613   9.582 -30.432  1.00  0.00     0.048 C 
HETATM   15  C   UNL     1      -2.335   8.221 -32.117  1.00  0.00     0.020 A 
HETATM   16  C   UNL     1      -2.202   7.107 -32.963  1.00  0.00    -0.005 A 
HETATM   17  C   UNL     1      -3.215   6.129 -33.014  1.00  0.00     0.093 A 
HETATM   18  C   UNL     1      -1.071   6.931 -33.772  1.00  0.00     0.015 A 
HETATM   19  N   UNL     1      -3.118   5.039 -33.816  1.00  0.00    -0.258 NA
HETATM   20  C   UNL     1      -2.011   4.907 -34.580  1.00  0.00     0.117 A 
HETATM   21  C   UNL     1      -0.972   5.815 -34.593  1.00  0.00     0.020 A 
ENDBRANCH   8  11
ENDBRANCH   1   7
BRANCH   3  22
HETATM   22  C   UNL     1      -7.348   0.409 -34.094  1.00  0.00     0.164 C 
BRANCH  22  23
HETATM   23  C   UNL     1      -6.417  -0.776 -34.099  1.00  0.00    -0.040 A 
HETATM   24  C   UNL     1      -6.831  -2.004 -34.631  1.00  0.00     0.011 A 
HETATM   25  C   UNL     1      -5.936  -3.072 -34.725  1.00  0.00     0.037 A 
HETATM   26  C   UNL     1      -4.612  -2.926 -34.308  1.00  0.00     0.068 A 
HETATM   27  C   UNL     1      -4.204  -1.721 -33.735  1.00  0.00     0.037 A 
HETATM   28  C   UNL     1      -5.102  -0.653 -33.632  1.00  0.00     0.011 A 
BRANCH  26  29
HETATM   29  O   UNL     1      -3.815  -4.023 -34.490  1.00  0.00    -0.356 OA
HETATM   30  C   UNL     1      -3.792  -4.949 -33.409  1.00  0.00     0.210 C 
ENDBRANCH  26  29
ENDBRANCH  22  23
ENDBRANCH   3  22
TORSDOF 5
ENDMDL
MODEL 6
REMARK VINA RESULT:      -8.5      6.685     10.517
REMARK  5 active torsions:
REMARK  status: ('A' for Active; 'I' for Inactive)
REMARK    1  A    between atoms: C_4  and  N_5 
REMARK       I    between atoms: N_5  and  C_6 
REMARK    2  A    between atoms: C_6  and  C_7 
REMARK    3  A    between atoms: N_9  and  C_10 
REMARK    4  A    between atoms: C_10  and  C_11 
REMARK    5  A    between atoms: C_14  and  O_15 
ROOT
HETATM    1  C   UNL     1     -10.103   0.754 -33.571  1.00  0.00     0.105 C 
HETATM    2  C   UNL     1      -8.886   1.306 -34.294  1.00  0.00     0.140 C 
HETATM    3  N   UNL     1      -7.800   0.813 -33.479  1.00  0.00    -0.347 N 
HETATM    4  C   UNL     1      -8.195   0.598 -32.172  1.00  0.00     0.221 C 
HETATM    5  O   UNL     1      -7.483   0.289 -31.231  1.00  0.00    -0.273 OA
HETATM    6  C   UNL     1      -9.686   0.813 -32.100  1.00  0.00     0.118 C 
ENDROOT
BRANCH   1   7
HETATM    7  C   UNL     1     -11.384   1.513 -33.851  1.00  0.00     0.228 C 
HETATM    8  N   UNL     1     -11.836   2.165 -32.722  1.00  0.00    -0.325 N 
HETATM    9  H   UNL     1     -11.316   2.061 -31.851  1.00  0.00     0.169 HD
HETATM   10  O   UNL     1     -11.934   1.483 -34.945  1.00  0.00    -0.273 OA
BRANCH   8  11
HETATM   11  C   UNL     1     -13.020   2.919 -32.537  1.00  0.00     0.065 A 
HETATM   12  C   UNL     1     -14.293   2.351 -32.427  1.00  0.00     0.038 A 
HETATM   13  C   UNL     1     -15.414   3.163 -32.225  1.00  0.00    -0.059 A 
HETATM   14  C   UNL     1     -16.786   2.560 -32.141  1.00  0.00     0.048 C 
HETATM   15  C   UNL     1     -15.248   4.551 -32.161  1.00  0.00     0.020 A 
HETATM   16  C   UNL     1     -13.972   5.126 -32.272  1.00  0.00    -0.005 A 
HETATM   17  C   UNL     1     -12.839   4.311 -32.464  1.00  0.00     0.093 A 
HETATM   18  C   UNL     1     -13.784   6.513 -32.195  1.00  0.00     0.015 A 
HETATM   19  N   UNL     1     -11.591   4.833 -32.572  1.00  0.00    -0.258 NA
HETATM   20  C   UNL     1     -11.453   6.175 -32.492  1.00  0.00     0.117 A 
HETATM   21  C   UNL     1     -12.506   7.047 -32.306  1.00  0.00     0.020 A 
ENDBRANCH   8  11
ENDBRANCH   1   7
BRANCH   3  22
HETATM   22  C   UNL     1      -6.437   0.695 -33.952  1.00  0.00     0.164 C 
BRANCH  22  23
HETATM   23  C   UNL     1      -5.979  -0.725 -34.165  1.00  0.00    -0.040 A 
HETATM   24  C   UNL     1      -4.707  -1.134 -33.743  1.00  0.00     0.011 A 
HETATM   25  C   UNL     1      -4.323  -2.472 -33.851  1.00  0.00     0.037 A 
HETATM   26  C   UNL     1      -5.205  -3.424 -34.362  1.00  0.00     0.068 A 
HETATM   27  C   UNL     1      -6.457  -3.018 -34.826  1.00  0.00     0.037 A 
HETATM   28  C   UNL     1      -6.840  -1.677 -34.727  1.00  0.00     0.011 A 
BRANCH  26  29
HETATM   29  O   UNL     1      -4.737  -4.710 -34.378  1.00  0.00    -0.356 OA
HETATM   30  C   UNL     1      -3.464  -4.906 -33.772  1.00  0.00     0.210 C 
ENDBRANCH  26  29
ENDBRANCH  22  23
ENDBRANCH   3  22
TORSDOF 5
ENDMDL
MODEL 7
REMARK VINA RESULT:      -8.1      1.615      3.053
REMARK  5 active torsions:
REMARK  status: ('A' for Active; 'I' for Inactive)
REMARK    1  A    between atoms: C_4  and  N_5 
REMARK       I    between atoms: N_5  and  C_6 
REMARK    2  A    between atoms: C_6  and  C_7 
REMARK    3  A    between atoms: N_9  and  C_10 
REMARK    4  A    between atoms: C_10  and  C_11 
REMARK    5  A    between atoms: C_14  and  O_15 
ROOT
HETATM    1  C   UNL     1      -4.433   5.224 -32.271  1.00  0.00     0.105 C 
HETATM    2  C   UNL     1      -3.304   6.040 -32.879  1.00  0.00     0.140 C 
HETATM    3  N   UNL     1      -3.353   7.253 -32.097  1.00  0.00    -0.347 N 
HETATM    4  C   UNL     1      -4.616   7.487 -31.587  1.00  0.00     0.221 C 
HETATM    5  O   UNL     1      -4.993   8.477 -30.983  1.00  0.00    -0.273 OA
HETATM    6  C   UNL     1      -5.472   6.287 -31.910  1.00  0.00     0.118 C 
ENDROOT
BRANCH   1   7
HETATM    7  C   UNL     1      -4.983   4.151 -33.189  1.00  0.00     0.228 C 
HETATM    8  N   UNL     1      -5.015   2.924 -32.559  1.00  0.00    -0.325 N 
HETATM    9  H   UNL     1      -4.664   2.849 -31.604  1.00  0.00     0.169 HD
HETATM   10  O   UNL     1      -5.301   4.384 -34.348  1.00  0.00    -0.273 OA
BRANCH   8  11
HETATM   11  C   UNL     1      -5.389   1.660 -33.078  1.00  0.00     0.065 A 
HETATM   12  C   UNL     1      -6.454   1.470 -33.964  1.00  0.00     0.038 A 
HETATM   13  C   UNL     1      -6.749   0.191 -34.450  1.00  0.00    -0.059 A 
HETATM   14  C   UNL     1      -7.912  -0.023 -35.375  1.00  0.00     0.048 C 
HETATM   15  C   UNL     1      -5.982  -0.896 -34.018  1.00  0.00     0.020 A 
HETATM   16  C   UNL     1      -4.913  -0.710 -33.126  1.00  0.00    -0.005 A 
HETATM   17  C   UNL     1      -4.605   0.578 -32.644  1.00  0.00     0.093 A 
HETATM   18  C   UNL     1      -4.123  -1.785 -32.694  1.00  0.00     0.015 A 
HETATM   19  N   UNL     1      -3.577   0.794 -31.786  1.00  0.00    -0.258 NA
HETATM   20  C   UNL     1      -2.840  -0.268 -31.393  1.00  0.00     0.117 A 
HETATM   21  C   UNL     1      -3.070  -1.562 -31.814  1.00  0.00     0.020 A 
ENDBRANCH   8  11
ENDBRANCH   1   7
BRANCH   3  22
HETATM   22  C   UNL     1      -2.241   8.173 -31.982  1.00  0.00     0.164 C 
BRANCH  22  23
HETATM   23  C   UNL     1      -1.359   7.929 -30.786  1.00  0.00    -0.040 A 
HETATM   24  C   UNL     1      -0.237   7.096 -30.886  1.00  0.00     0.011 A 
HETATM   25  C   UNL     1       0.635   6.951 -29.805  1.00  0.00     0.037 A 
HETATM   26  C   UNL     1       0.412   7.647 -28.616  1.00  0.00     0.068 A 
HETATM   27  C   UNL     1      -0.727   8.442 -28.492  1.00  0.00     0.037 A 
HETATM   28  C   UNL     1      -1.606   8.583 -29.571  1.00  0.00     0.011 A 
BRANCH  26  29
HETATM   29  O   UNL     1       1.355   7.462 -27.642  1.00  0.00    -0.356 OA
HETATM   30  C   UNL     1       1.015   7.967 -26.355  1.00  0.00     0.210 C 
ENDBRANCH  26  29
ENDBRANCH  22  23
ENDBRANCH   3  22
TORSDOF 5
ENDMDL
MODEL 8
REMARK VINA RESULT:      -8.1      2.113      2.813
REMARK  5 active torsions:
REMARK  status: ('A' for Active; 'I' for Inactive)
REMARK    1  A    between atoms: C_4  and  N_5 
REMARK       I    between atoms: N_5  and  C_6 
REMARK    2  A    between atoms: C_6  and  C_7 
REMARK    3  A    between atoms: N_9  and  C_10 
REMARK    4  A    between atoms: C_10  and  C_11 
REMARK    5  A    between atoms: C_14  and  O_15 
ROOT
HETATM    1  C   UNL     1      -2.478   5.216 -31.538  1.00  0.00     0.105 C 
HETATM    2  C   UNL     1      -0.991   5.227 -31.221  1.00  0.00     0.140 C 
HETATM    3  N   UNL     1      -0.700   6.641 -31.188  1.00  0.00    -0.347 N 
HETATM    4  C   UNL     1      -1.578   7.367 -31.971  1.00  0.00     0.221 C 
HETATM    5  O   UNL     1      -1.521   8.558 -32.227  1.00  0.00    -0.273 OA
HETATM    6  C   UNL     1      -2.642   6.420 -32.468  1.00  0.00     0.118 C 
ENDROOT
BRANCH   1   7
HETATM    7  C   UNL     1      -2.968   3.923 -32.156  1.00  0.00     0.228 C 
HETATM    8  N   UNL     1      -3.585   3.123 -31.216  1.00  0.00    -0.325 N 
HETATM    9  H   UNL     1      -3.629   3.441 -30.249  1.00  0.00     0.169 HD
HETATM   10  O   UNL     1      -2.776   3.649 -33.334  1.00  0.00    -0.273 OA
BRANCH   8  11
HETATM   11  C   UNL     1      -4.115   1.818 -31.361  1.00  0.00     0.065 A 
HETATM   12  C   UNL     1      -3.327   0.672 -31.505  1.00  0.00     0.038 A 
HETATM   13  C   UNL     1      -3.926  -0.588 -31.623  1.00  0.00    -0.059 A 
HETATM   14  C   UNL     1      -3.084  -1.816 -31.812  1.00  0.00     0.048 C 
HETATM   15  C   UNL     1      -5.321  -0.682 -31.619  1.00  0.00     0.020 A 
HETATM   16  C   UNL     1      -6.118   0.466 -31.476  1.00  0.00    -0.005 A 
HETATM   17  C   UNL     1      -5.518   1.735 -31.346  1.00  0.00     0.093 A 
HETATM   18  C   UNL     1      -7.517   0.390 -31.455  1.00  0.00     0.015 A 
HETATM   19  N   UNL     1      -6.257   2.864 -31.202  1.00  0.00    -0.258 NA
HETATM   20  C   UNL     1      -7.603   2.747 -31.187  1.00  0.00     0.117 A 
HETATM   21  C   UNL     1      -8.273   1.547 -31.308  1.00  0.00     0.020 A 
ENDBRANCH   8  11
ENDBRANCH   1   7
BRANCH   3  22
HETATM   22  C   UNL     1       0.457   7.201 -30.521  1.00  0.00     0.164 C 
BRANCH  22  23
HETATM   23  C   UNL     1       0.184   7.702 -29.126  1.00  0.00    -0.040 A 
HETATM   24  C   UNL     1      -1.096   7.589 -28.568  1.00  0.00     0.011 A 
HETATM   25  C   UNL     1      -1.324   7.961 -27.241  1.00  0.00     0.037 A 
HETATM   26  C   UNL     1      -0.277   8.433 -26.448  1.00  0.00     0.068 A 
HETATM   27  C   UNL     1       0.990   8.591 -27.009  1.00  0.00     0.037 A 
HETATM   28  C   UNL     1       1.218   8.226 -28.340  1.00  0.00     0.011 A 
BRANCH  26  29
HETATM   29  O   UNL     1      -0.608   8.724 -25.152  1.00  0.00    -0.356 OA
HETATM   30  C   UNL     1      -1.658   9.670 -24.985  1.00  0.00     0.210 C 
ENDBRANCH  26  29
ENDBRANCH  22  23
ENDBRANCH   3  22
TORSDOF 5
ENDMDL
MODEL 9
REMARK VINA RESULT:      -8.1      3.767      6.417
REMARK  5 active torsions:
REMARK  status: ('A' for Active; 'I' for Inactive)
REMARK    1  A    between atoms: C_4  and  N_5 
REMARK       I    between atoms: N_5  and  C_6 
REMARK    2  A    between atoms: C_6  and  C_7 
REMARK    3  A    between atoms: N_9  and  C_10 
REMARK    4  A    between atoms: C_10  and  C_11 
REMARK    5  A    between atoms: C_14  and  O_15 
ROOT
HETATM    1  C   UNL     1      -6.566   1.174 -33.982  1.00  0.00     0.105 C 
HETATM    2  C   UNL     1      -6.531   1.845 -32.619  1.00  0.00     0.140 C 
HETATM    3  N   UNL     1      -5.232   1.455 -32.123  1.00  0.00    -0.347 N 
HETATM    4  C   UNL     1      -4.803   0.265 -32.682  1.00  0.00     0.221 C 
HETATM    5  O   UNL     1      -3.805  -0.369 -32.384  1.00  0.00    -0.273 OA
HETATM    6  C   UNL     1      -5.798  -0.128 -33.746  1.00  0.00     0.118 C 
ENDROOT
BRANCH   1   7
HETATM    7  C   UNL     1      -7.963   0.945 -34.521  1.00  0.00     0.228 C 
HETATM    8  N   UNL     1      -8.886   1.739 -33.871  1.00  0.00    -0.325 N 
HETATM    9  H   UNL     1      -8.569   2.348 -33.118  1.00  0.00     0.169 HD
HETATM   10  O   UNL     1      -8.199   0.117 -35.392  1.00  0.00    -0.273 OA
BRANCH   8  11
HETATM   11  C   UNL     1     -10.293   1.782 -34.021  1.00  0.00     0.065 A 
HETATM   12  C   UNL     1     -11.138   0.708 -33.727  1.00  0.00     0.038 A 
HETATM   13  C   UNL     1     -12.523   0.834 -33.882  1.00  0.00    -0.059 A 
HETATM   14  C   UNL     1     -13.431  -0.328 -33.600  1.00  0.00     0.048 C 
HETATM   15  C   UNL     1     -13.048   2.040 -34.359  1.00  0.00     0.020 A 
HETATM   16  C   UNL     1     -12.204   3.122 -34.657  1.00  0.00    -0.005 A 
HETATM   17  C   UNL     1     -10.809   3.002 -34.491  1.00  0.00     0.093 A 
HETATM   18  C   UNL     1     -12.712   4.343 -35.121  1.00  0.00     0.015 A 
HETATM   19  N   UNL     1      -9.965   4.027 -34.766  1.00  0.00    -0.258 NA
HETATM   20  C   UNL     1     -10.495   5.188 -35.211  1.00  0.00     0.117 A 
HETATM   21  C   UNL     1     -11.846   5.393 -35.403  1.00  0.00     0.020 A 
ENDBRANCH   8  11
ENDBRANCH   1   7
BRANCH   3  22
HETATM   22  C   UNL     1      -4.535   2.160 -31.068  1.00  0.00     0.164 C 
BRANCH  22  23
HETATM   23  C   UNL     1      -3.918   3.465 -31.501  1.00  0.00    -0.040 A 
HETATM   24  C   UNL     1      -4.349   4.676 -30.943  1.00  0.00     0.011 A 
HETATM   25  C   UNL     1      -3.708   5.873 -31.271  1.00  0.00     0.037 A 
HETATM   26  C   UNL     1      -2.619   5.877 -32.144  1.00  0.00     0.068 A 
HETATM   27  C   UNL     1      -2.213   4.683 -32.739  1.00  0.00     0.037 A 
HETATM   28  C   UNL     1      -2.859   3.484 -32.418  1.00  0.00     0.011 A 
BRANCH  26  29
HETATM   29  O   UNL     1      -2.043   7.100 -32.357  1.00  0.00    -0.356 OA
HETATM   30  C   UNL     1      -0.627   7.143 -32.220  1.00  0.00     0.210 C 
ENDBRANCH  26  29
ENDBRANCH  22  23
ENDBRANCH   3  22
TORSDOF 5
ENDMDL
MODEL 10
REMARK VINA RESULT:      -8.0      2.512      9.246
REMARK  5 active torsions:
REMARK  status: ('A' for Active; 'I' for Inactive)
REMARK    1  A    between atoms: C_4  and  N_5 
REMARK       I    between atoms: N_5  and  C_6 
REMARK    2  A    between atoms: C_6  and  C_7 
REMARK    3  A    between atoms: N_9  and  C_10 
REMARK    4  A    between atoms: C_10  and  C_11 
REMARK    5  A    between atoms: C_14  and  O_15 
ROOT
HETATM    1  C   UNL     1      -6.028   3.939 -33.011  1.00  0.00     0.105 C 
HETATM    2  C   UNL     1      -5.952   2.575 -33.677  1.00  0.00     0.140 C 
HETATM    3  N   UNL     1      -6.995   1.846 -32.993  1.00  0.00    -0.347 N 
HETATM    4  C   UNL     1      -7.229   2.348 -31.726  1.00  0.00     0.221 C 
HETATM    5  O   UNL     1      -7.966   1.879 -30.876  1.00  0.00    -0.273 OA
HETATM    6  C   UNL     1      -6.399   3.598 -31.566  1.00  0.00     0.118 C 
ENDROOT
BRANCH   1   7
HETATM    7  C   UNL     1      -4.753   4.749 -33.116  1.00  0.00     0.228 C 
HETATM    8  N   UNL     1      -4.152   4.897 -31.882  1.00  0.00    -0.325 N 
HETATM    9  H   UNL     1      -4.606   4.498 -31.061  1.00  0.00     0.169 HD
HETATM   10  O   UNL     1      -4.369   5.228 -34.176  1.00  0.00    -0.273 OA
BRANCH   8  11
HETATM   11  C   UNL     1      -2.994   5.633 -31.533  1.00  0.00     0.065 A 
HETATM   12  C   UNL     1      -1.710   5.081 -31.480  1.00  0.00     0.038 A 
HETATM   13  C   UNL     1      -0.611   5.880 -31.145  1.00  0.00    -0.059 A 
HETATM   14  C   UNL     1       0.764   5.284 -31.054  1.00  0.00     0.048 C 
HETATM   15  C   UNL     1      -0.816   7.229 -30.839  1.00  0.00     0.020 A 
HETATM   16  C   UNL     1      -2.104   7.788 -30.889  1.00  0.00    -0.005 A 
HETATM   17  C   UNL     1      -3.212   6.990 -31.237  1.00  0.00     0.093 A 
HETATM   18  C   UNL     1      -2.327   9.141 -30.601  1.00  0.00     0.015 A 
HETATM   19  N   UNL     1      -4.468   7.498 -31.299  1.00  0.00    -0.258 NA
HETATM   20  C   UNL     1      -4.641   8.807 -31.014  1.00  0.00     0.117 A 
HETATM   21  C   UNL     1      -3.615   9.661 -30.664  1.00  0.00     0.020 A 
ENDBRANCH   8  11
ENDBRANCH   1   7
BRANCH   3  22
HETATM   22  C   UNL     1      -7.617   0.653 -33.528  1.00  0.00     0.164 C 
BRANCH  22  23
HETATM   23  C   UNL     1      -6.675  -0.511 -33.697  1.00  0.00    -0.040 A 
HETATM   24  C   UNL     1      -6.877  -1.448 -34.719  1.00  0.00     0.011 A 
HETATM   25  C   UNL     1      -5.949  -2.469 -34.936  1.00  0.00     0.037 A 
HETATM   26  C   UNL     1      -4.798  -2.559 -34.151  1.00  0.00     0.068 A 
HETATM   27  C   UNL     1      -4.612  -1.658 -33.103  1.00  0.00     0.037 A 
HETATM   28  C   UNL     1      -5.545  -0.640 -32.879  1.00  0.00     0.011 A 
BRANCH  26  29
HETATM   29  O   UNL     1      -3.939  -3.570 -34.484  1.00  0.00    -0.356 OA
HETATM   30  C   UNL     1      -4.197  -4.824 -33.860  1.00  0.00     0.210 C 
ENDBRANCH  26  29
ENDBRANCH  22  23
ENDBRANCH   3  22
TORSDOF 5
ENDMDL
