MODEL 1
REMARK VINA RESULT:      -8.5      0.000      0.000
REMARK  5 active torsions:
REMARK  status: ('A' for Active; 'I' for Inactive)
REMARK    1  A    between atoms: C_2  and  O_3 
REMARK    2  A    between atoms: C_2  and  C_4 
REMARK    3  A    between atoms: C_4  and  N_5 
REMARK       I    between atoms: N_5  and  C_6 
REMARK    4  A    between atoms: C_6  and  C_7 
REMARK    5  A    between atoms: C_15  and  C_16 
ROOT
HETATM    1  C   UNL     1      -4.027   2.864 -31.973  1.00  0.00     0.046 A 
HETATM    2  C   UNL     1      -5.087   3.284 -31.140  1.00  0.00     0.008 A 
HETATM    3  C   UNL     1      -6.191   2.417 -31.067  1.00  0.00     0.068 A 
HETATM    4  C   UNL     1      -7.265   2.763 -30.257  1.00  0.00     0.032 A 
HETATM    5  C   UNL     1      -7.281   3.944 -29.513  1.00  0.00     0.002 A 
HETATM    6  C   UNL     1      -6.197   4.806 -29.573  1.00  0.00     0.001 A 
HETATM    7  C   UNL     1      -5.106   4.480 -30.377  1.00  0.00     0.015 A 
HETATM    8  N   UNL     1      -6.258   1.256 -31.743  1.00  0.00    -0.248 NA
HETATM    9  C   UNL     1      -5.242   0.883 -32.558  1.00  0.00     0.068 A 
HETATM   10  C   UNL     1      -4.107   1.666 -32.690  1.00  0.00     0.050 A 
ENDROOT
BRANCH   1  11
HETATM   11  C   UNL     1      -2.798   3.678 -32.143  1.00  0.00     0.252 C 
HETATM   12  N   UNL     1      -2.736   4.407 -33.310  1.00  0.00    -0.354 N 
HETATM   13  H   UNL     1      -3.432   4.264 -34.031  1.00  0.00     0.162 HD
HETATM   14  O   UNL     1      -1.920   3.677 -31.291  1.00  0.00    -0.268 OA
BRANCH  12  15
HETATM   15  C   UNL     1      -1.601   5.259 -33.616  1.00  0.00     0.154 C 
BRANCH  15  16
HETATM   16  C   UNL     1      -1.716   6.688 -33.065  1.00  0.00     0.132 C 
HETATM   17  C   UNL     1      -0.620   7.011 -32.058  1.00  0.00     0.041 C 
BRANCH  16  18
HETATM   18  O   UNL     1      -1.604   7.605 -34.157  1.00  0.00    -0.394 OA
HETATM   19  H   UNL     1      -1.736   8.499 -33.795  1.00  0.00     0.210 HD
ENDBRANCH  16  18
ENDBRANCH  15  16
ENDBRANCH  12  15
ENDBRANCH   1  11
BRANCH   9  20
HETATM   20  C   UNL     1      -5.427  -0.402 -33.266  1.00  0.00    -0.007 A 
HETATM   21  C   UNL     1      -4.392  -1.348 -33.394  1.00  0.00     0.015 A 
HETATM   22  C   UNL     1      -4.591  -2.564 -34.059  1.00  0.00     0.024 A 
HETATM   23  C   UNL     1      -5.834  -2.854 -34.615  1.00  0.00     0.034 A 
HETATM   24 CL   UNL     1      -6.078  -4.348 -35.431  1.00  0.00    -0.084 Cl
HETATM   25  C   UNL     1      -6.873  -1.939 -34.517  1.00  0.00     0.024 A 
HETATM   26  C   UNL     1      -6.669  -0.725 -33.850  1.00  0.00     0.015 A 
ENDBRANCH   9  20
TORSDOF 5
ENDMDL
MODEL 2
REMARK VINA RESULT:      -8.3      4.588      6.332
REMARK  5 active torsions:
REMARK  status: ('A' for Active; 'I' for Inactive)
REMARK    1  A    between atoms: C_2  and  O_3 
REMARK    2  A    between atoms: C_2  and  C_4 
REMARK    3  A    between atoms: C_4  and  N_5 
REMARK       I    between atoms: N_5  and  C_6 
REMARK    4  A    between atoms: C_6  and  C_7 
REMARK    5  A    between atoms: C_15  and  C_16 
ROOT
HETATM    1  C   UNL     1      -8.527   1.644 -33.744  1.00  0.00     0.046 A 
HETATM    2  C   UNL     1      -7.756   2.828 -33.716  1.00  0.00     0.008 A 
HETATM    3  C   UNL     1      -6.362   2.654 -33.763  1.00  0.00     0.068 A 
HETATM    4  C   UNL     1      -5.545   3.777 -33.750  1.00  0.00     0.032 A 
HETATM    5  C   UNL     1      -6.064   5.071 -33.695  1.00  0.00     0.002 A 
HETATM    6  C   UNL     1      -7.438   5.257 -33.652  1.00  0.00     0.001 A 
HETATM    7  C   UNL     1      -8.280   4.146 -33.665  1.00  0.00     0.015 A 
HETATM    8  N   UNL     1      -5.776   1.446 -33.825  1.00  0.00    -0.248 NA
HETATM    9  C   UNL     1      -6.531   0.321 -33.824  1.00  0.00     0.068 A 
HETATM   10  C   UNL     1      -7.913   0.388 -33.790  1.00  0.00     0.050 A 
ENDROOT
BRANCH   1  11
HETATM   11  C   UNL     1     -10.010   1.677 -33.704  1.00  0.00     0.252 C 
HETATM   12  N   UNL     1     -10.628   1.639 -34.935  1.00  0.00    -0.354 N 
HETATM   13  H   UNL     1     -10.077   1.721 -35.779  1.00  0.00     0.162 HD
HETATM   14  O   UNL     1     -10.610   1.738 -32.640  1.00  0.00    -0.268 OA
BRANCH  12  15
HETATM   15  C   UNL     1     -12.075   1.657 -35.060  1.00  0.00     0.154 C 
BRANCH  15  16
HETATM   16  C   UNL     1     -12.620   2.796 -35.936  1.00  0.00     0.132 C 
HETATM   17  C   UNL     1     -12.082   4.158 -35.514  1.00  0.00     0.041 C 
BRANCH  16  18
HETATM   18  O   UNL     1     -12.222   2.557 -37.288  1.00  0.00    -0.394 OA
HETATM   19  H   UNL     1     -12.937   2.888 -37.859  1.00  0.00     0.210 HD
ENDBRANCH  16  18
ENDBRANCH  15  16
ENDBRANCH  12  15
ENDBRANCH   1  11
BRANCH   9  20
HETATM   20  C   UNL     1      -5.782  -0.953 -33.879  1.00  0.00    -0.007 A 
HETATM   21  C   UNL     1      -6.168  -2.019 -34.714  1.00  0.00     0.015 A 
HETATM   22  C   UNL     1      -5.439  -3.214 -34.758  1.00  0.00     0.024 A 
HETATM   23  C   UNL     1      -4.309  -3.366 -33.960  1.00  0.00     0.034 A 
HETATM   24 CL   UNL     1      -3.414  -4.834 -34.015  1.00  0.00    -0.084 Cl
HETATM   25  C   UNL     1      -3.907  -2.339 -33.116  1.00  0.00     0.024 A 
HETATM   26  C   UNL     1      -4.639  -1.147 -33.077  1.00  0.00     0.015 A 
ENDBRANCH   9  20
TORSDOF 5
ENDMDL
MODEL 3
REMARK VINA RESULT:      -8.2      5.118      7.324
REMARK  5 active torsions:
REMARK  status: ('A' for Active; 'I' for Inactive)
REMARK    1  A    between atoms: C_2  and  O_3 
REMARK    2  A    between atoms: C_2  and  C_4 
REMARK    3  A    between atoms: C_4  and  N_5 
REMARK       I    between atoms: N_5  and  C_6 
REMARK    4  A    between atoms: C_6  and  C_7 
REMARK    5  A    between atoms: C_15  and  C_16 
ROOT
HETATM    1  C   UNL     1      -9.989   1.360 -33.291  1.00  0.00     0.046 A 
HETATM    2  C   UNL     1      -9.672   2.234 -32.228  1.00  0.00     0.008 A 
HETATM    3  C   UNL     1      -8.414   2.041 -31.630  1.00  0.00     0.068 A 
HETATM    4  C   UNL     1      -8.032   2.874 -30.586  1.00  0.00     0.032 A 
HETATM    5  C   UNL     1      -8.857   3.895 -30.113  1.00  0.00     0.002 A 
HETATM    6  C   UNL     1     -10.099   4.098 -30.696  1.00  0.00     0.001 A 
HETATM    7  C   UNL     1     -10.504   3.277 -31.747  1.00  0.00     0.015 A 
HETATM    8  N   UNL     1      -7.552   1.088 -32.026  1.00  0.00    -0.248 NA
HETATM    9  C   UNL     1      -7.886   0.242 -33.030  1.00  0.00     0.068 A 
HETATM   10  C   UNL     1      -9.099   0.357 -33.688  1.00  0.00     0.050 A 
ENDROOT
BRANCH   1  11
HETATM   11  C   UNL     1     -11.281   1.450 -34.016  1.00  0.00     0.252 C 
HETATM   12  N   UNL     1     -12.286   0.648 -33.522  1.00  0.00    -0.354 N 
HETATM   13  H   UNL     1     -12.078  -0.037 -32.806  1.00  0.00     0.162 HD
HETATM   14  O   UNL     1     -11.411   2.191 -34.981  1.00  0.00    -0.268 OA
BRANCH  12  15
HETATM   15  C   UNL     1     -13.609   0.631 -34.119  1.00  0.00     0.154 C 
BRANCH  15  16
HETATM   16  C   UNL     1     -14.728   1.127 -33.190  1.00  0.00     0.132 C 
HETATM   17  C   UNL     1     -14.391   2.463 -32.540  1.00  0.00     0.041 C 
BRANCH  16  18
HETATM   18  O   UNL     1     -15.919   1.293 -33.964  1.00  0.00    -0.394 OA
HETATM   19  H   UNL     1     -16.635   0.836 -33.489  1.00  0.00     0.210 HD
ENDBRANCH  16  18
ENDBRANCH  15  16
ENDBRANCH  12  15
ENDBRANCH   1  11
BRANCH   9  20
HETATM   20  C   UNL     1      -6.871  -0.778 -33.372  1.00  0.00    -0.007 A 
HETATM   21  C   UNL     1      -5.572  -0.759 -32.831  1.00  0.00     0.015 A 
HETATM   22  C   UNL     1      -4.628  -1.740 -33.161  1.00  0.00     0.024 A 
HETATM   23  C   UNL     1      -4.968  -2.759 -34.046  1.00  0.00     0.034 A 
HETATM   24 CL   UNL     1      -3.810  -3.964 -34.449  1.00  0.00    -0.084 Cl
HETATM   25  C   UNL     1      -6.238  -2.801 -34.607  1.00  0.00     0.024 A 
HETATM   26  C   UNL     1      -7.177  -1.818 -34.273  1.00  0.00     0.015 A 
ENDBRANCH   9  20
TORSDOF 5
ENDMDL
MODEL 4
REMARK VINA RESULT:      -8.1      4.144      6.862
REMARK  5 active torsions:
REMARK  status: ('A' for Active; 'I' for Inactive)
REMARK    1  A    between atoms: C_2  and  O_3 
REMARK    2  A    between atoms: C_2  and  C_4 
REMARK    3  A    between atoms: C_4  and  N_5 
REMARK       I    between atoms: N_5  and  C_6 
REMARK    4  A    between atoms: C_6  and  C_7 
REMARK    5  A    between atoms: C_15  and  C_16 
ROOT
HETATM    1  C   UNL     1      -5.802  -0.059 -33.023  1.00  0.00     0.046 A 
HETATM    2  C   UNL     1      -5.170   1.161 -32.695  1.00  0.00     0.008 A 
HETATM    3  C   UNL     1      -6.002   2.294 -32.663  1.00  0.00     0.068 A 
HETATM    4  C   UNL     1      -5.448   3.525 -32.335  1.00  0.00     0.032 A 
HETATM    5  C   UNL     1      -4.093   3.671 -32.036  1.00  0.00     0.002 A 
HETATM    6  C   UNL     1      -3.262   2.561 -32.060  1.00  0.00     0.001 A 
HETATM    7  C   UNL     1      -3.794   1.314 -32.384  1.00  0.00     0.015 A 
HETATM    8  N   UNL     1      -7.319   2.244 -32.930  1.00  0.00    -0.248 NA
HETATM    9  C   UNL     1      -7.901   1.069 -33.269  1.00  0.00     0.068 A 
HETATM   10  C   UNL     1      -7.168  -0.104 -33.319  1.00  0.00     0.050 A 
ENDROOT
BRANCH   1  11
HETATM   11  C   UNL     1      -5.047  -1.335 -33.091  1.00  0.00     0.252 C 
HETATM   12  N   UNL     1      -5.186  -2.034 -34.270  1.00  0.00    -0.354 N 
HETATM   13  H   UNL     1      -5.866  -1.735 -34.957  1.00  0.00     0.162 HD
HETATM   14  O   UNL     1      -4.363  -1.713 -32.150  1.00  0.00    -0.268 OA
BRANCH  12  15
HETATM   15  C   UNL     1      -4.503  -3.296 -34.491  1.00  0.00     0.154 C 
BRANCH  15  16
HETATM   16  C   UNL     1      -5.413  -4.532 -34.394  1.00  0.00     0.132 C 
HETATM   17  C   UNL     1      -6.530  -4.511 -35.429  1.00  0.00     0.041 C 
BRANCH  16  18
HETATM   18  O   UNL     1      -4.617  -5.698 -34.619  1.00  0.00    -0.394 OA
HETATM   19  H   UNL     1      -4.912  -6.088 -35.461  1.00  0.00     0.210 HD
ENDBRANCH  16  18
ENDBRANCH  15  16
ENDBRANCH  12  15
ENDBRANCH   1  11
BRANCH   9  20
HETATM   20  C   UNL     1      -9.351   1.132 -33.558  1.00  0.00    -0.007 A 
HETATM   21  C   UNL     1     -10.256   0.163 -33.085  1.00  0.00     0.015 A 
HETATM   22  C   UNL     1     -11.626   0.247 -33.362  1.00  0.00     0.024 A 
HETATM   23  C   UNL     1     -12.116   1.303 -34.124  1.00  0.00     0.034 A 
HETATM   24 CL   UNL     1     -13.799   1.406 -34.462  1.00  0.00    -0.084 Cl
HETATM   25  C   UNL     1     -11.249   2.270 -34.615  1.00  0.00     0.024 A 
HETATM   26  C   UNL     1      -9.880   2.182 -34.335  1.00  0.00     0.015 A 
ENDBRANCH   9  20
TORSDOF 5
ENDMDL
MODEL 5
REMARK VINA RESULT:      -8.1      4.064      7.491
REMARK  5 active torsions:
REMARK  status: ('A' for Active; 'I' for Inactive)
REMARK    1  A    between atoms: C_2  and  O_3 
REMARK    2  A    between atoms: C_2  and  C_4 
REMARK    3  A    between atoms: C_4  and  N_5 
REMARK       I    between atoms: N_5  and  C_6 
REMARK    4  A    between atoms: C_6  and  C_7 
REMARK    5  A    between atoms: C_15  and  C_16 
ROOT
HETATM    1  C   UNL     1      -4.698  -0.023 -32.898  1.00  0.00     0.046 A 
HETATM    2  C   UNL     1      -6.058   0.342 -33.002  1.00  0.00     0.008 A 
HETATM    3  C   UNL     1      -6.328   1.722 -32.969  1.00  0.00     0.068 A 
HETATM    4  C   UNL     1      -7.645   2.151 -33.079  1.00  0.00     0.032 A 
HETATM    5  C   UNL     1      -8.707   1.257 -33.222  1.00  0.00     0.002 A 
HETATM    6  C   UNL     1      -8.454  -0.106 -33.261  1.00  0.00     0.001 A 
HETATM    7  C   UNL     1      -7.141  -0.563 -33.154  1.00  0.00     0.015 A 
HETATM    8  N   UNL     1      -5.368   2.653 -32.841  1.00  0.00    -0.248 NA
HETATM    9  C   UNL     1      -4.071   2.282 -32.715  1.00  0.00     0.068 A 
HETATM   10  C   UNL     1      -3.703   0.948 -32.745  1.00  0.00     0.050 A 
ENDROOT
BRANCH   1  11
HETATM   11  C   UNL     1      -4.267  -1.443 -32.922  1.00  0.00     0.252 C 
HETATM   12  N   UNL     1      -4.419  -2.079 -34.134  1.00  0.00    -0.354 N 
HETATM   13  H   UNL     1      -4.916  -1.619 -34.886  1.00  0.00     0.162 HD
HETATM   14  O   UNL     1      -3.817  -1.981 -31.920  1.00  0.00    -0.268 OA
BRANCH  12  15
HETATM   15  C   UNL     1      -4.035  -3.467 -34.318  1.00  0.00     0.154 C 
BRANCH  15  16
HETATM   16  C   UNL     1      -5.201  -4.463 -34.224  1.00  0.00     0.132 C 
HETATM   17  C   UNL     1      -6.365  -4.078 -35.128  1.00  0.00     0.041 C 
BRANCH  16  18
HETATM   18  O   UNL     1      -4.730  -5.752 -34.626  1.00  0.00    -0.394 OA
HETATM   19  H   UNL     1      -4.602  -6.275 -33.815  1.00  0.00     0.210 HD
ENDBRANCH  16  18
ENDBRANCH  15  16
ENDBRANCH  12  15
ENDBRANCH   1  11
BRANCH   9  20
HETATM   20  C   UNL     1      -3.100   3.388 -32.564  1.00  0.00    -0.007 A 
HETATM   21  C   UNL     1      -2.551   4.065 -33.670  1.00  0.00     0.015 A 
HETATM   22  C   UNL     1      -1.640   5.116 -33.505  1.00  0.00     0.024 A 
HETATM   23  C   UNL     1      -1.257   5.507 -32.225  1.00  0.00     0.034 A 
HETATM   24 CL   UNL     1      -0.140   6.798 -32.023  1.00  0.00    -0.084 Cl
HETATM   25  C   UNL     1      -1.771   4.852 -31.113  1.00  0.00     0.024 A 
HETATM   26  C   UNL     1      -2.681   3.803 -31.283  1.00  0.00     0.015 A 
ENDBRANCH   9  20
TORSDOF 5
ENDMDL
MODEL 6
REMARK VINA RESULT:      -8.0      2.938      3.711
REMARK  5 active torsions:
REMARK  status: ('A' for Active; 'I' for Inactive)
REMARK    1  A    between atoms: C_2  and  O_3 
REMARK    2  A    between atoms: C_2  and  C_4 
REMARK    3  A    between atoms: C_4  and  N_5 
REMARK       I    between atoms: N_5  and  C_6 
REMARK    4  A    between atoms: C_6  and  C_7 
REMARK    5  A    between atoms: C_15  and  C_16 
ROOT
HETATM    1  C   UNL     1      -7.161   2.645 -33.592  1.00  0.00     0.046 A 
HETATM    2  C   UNL     1      -8.563   2.475 -33.573  1.00  0.00     0.008 A 
HETATM    3  C   UNL     1      -9.022   1.148 -33.636  1.00  0.00     0.068 A 
HETATM    4  C   UNL     1     -10.390   0.908 -33.609  1.00  0.00     0.032 A 
HETATM    5  C   UNL     1     -11.322   1.943 -33.522  1.00  0.00     0.002 A 
HETATM    6  C   UNL     1     -10.883   3.257 -33.456  1.00  0.00     0.001 A 
HETATM    7  C   UNL     1      -9.515   3.524 -33.478  1.00  0.00     0.015 A 
HETATM    8  N   UNL     1      -8.196   0.090 -33.714  1.00  0.00    -0.248 NA
HETATM    9  C   UNL     1      -6.855   0.275 -33.758  1.00  0.00     0.068 A 
HETATM   10  C   UNL     1      -6.305   1.544 -33.693  1.00  0.00     0.050 A 
ENDROOT
BRANCH   1  11
HETATM   11  C   UNL     1      -6.537   3.990 -33.528  1.00  0.00     0.252 C 
HETATM   12  N   UNL     1      -5.622   4.162 -32.513  1.00  0.00    -0.354 N 
HETATM   13  H   UNL     1      -5.515   3.448 -31.804  1.00  0.00     0.162 HD
HETATM   14  O   UNL     1      -6.837   4.862 -34.332  1.00  0.00    -0.268 OA
BRANCH  12  15
HETATM   15  C   UNL     1      -4.922   5.420 -32.326  1.00  0.00     0.154 C 
BRANCH  15  16
HETATM   16  C   UNL     1      -3.604   5.532 -33.109  1.00  0.00     0.132 C 
HETATM   17  C   UNL     1      -2.829   4.221 -33.128  1.00  0.00     0.041 C 
BRANCH  16  18
HETATM   18  O   UNL     1      -3.908   5.892 -34.459  1.00  0.00    -0.394 OA
HETATM   19  H   UNL     1      -4.875   5.985 -34.518  1.00  0.00     0.210 HD
ENDBRANCH  16  18
ENDBRANCH  15  16
ENDBRANCH  12  15
ENDBRANCH   1  11
BRANCH   9  20
HETATM   20  C   UNL     1      -6.042  -0.957 -33.860  1.00  0.00    -0.007 A 
HETATM   21  C   UNL     1      -6.441  -2.061 -34.638  1.00  0.00     0.015 A 
HETATM   22  C   UNL     1      -5.652  -3.214 -34.729  1.00  0.00     0.024 A 
HETATM   23  C   UNL     1      -4.447  -3.286 -34.036  1.00  0.00     0.034 A 
HETATM   24 CL   UNL     1      -3.478  -4.702 -34.150  1.00  0.00    -0.084 Cl
HETATM   25  C   UNL     1      -4.029  -2.219 -33.251  1.00  0.00     0.024 A 
HETATM   26  C   UNL     1      -4.821  -1.069 -33.164  1.00  0.00     0.015 A 
ENDBRANCH   9  20
TORSDOF 5
ENDMDL
MODEL 7
REMARK VINA RESULT:      -7.8      4.844      7.167
REMARK  5 active torsions:
REMARK  status: ('A' for Active; 'I' for Inactive)
REMARK    1  A    between atoms: C_2  and  O_3 
REMARK    2  A    between atoms: C_2  and  C_4 
REMARK    3  A    between atoms: C_4  and  N_5 
REMARK       I    between atoms: N_5  and  C_6 
REMARK    4  A    between atoms: C_6  and  C_7 
REMARK    5  A    between atoms: C_15  and  C_16 
ROOT
HETATM    1  C   UNL     1      -7.301   0.655 -33.365  1.00  0.00     0.046 A 
HETATM    2  C   UNL     1      -6.823   1.982 -33.440  1.00  0.00     0.008 A 
HETATM    3  C   UNL     1      -7.794   2.971 -33.678  1.00  0.00     0.068 A 
HETATM    4  C   UNL     1      -7.394   4.300 -33.750  1.00  0.00     0.032 A 
HETATM    5  C   UNL     1      -6.062   4.683 -33.594  1.00  0.00     0.002 A 
HETATM    6  C   UNL     1      -5.095   3.718 -33.355  1.00  0.00     0.001 A 
HETATM    7  C   UNL     1      -5.470   2.378 -33.275  1.00  0.00     0.015 A 
HETATM    8  N   UNL     1      -9.100   2.694 -33.833  1.00  0.00    -0.248 NA
HETATM    9  C   UNL     1      -9.535   1.412 -33.786  1.00  0.00     0.068 A 
HETATM   10  C   UNL     1      -8.657   0.368 -33.547  1.00  0.00     0.050 A 
ENDROOT
BRANCH   1  11
HETATM   11  C   UNL     1      -6.389  -0.489 -33.116  1.00  0.00     0.252 C 
HETATM   12  N   UNL     1      -5.955  -1.147 -34.246  1.00  0.00    -0.354 N 
HETATM   13  H   UNL     1      -6.357  -0.922 -35.147  1.00  0.00     0.162 HD
HETATM   14  O   UNL     1      -6.069  -0.803 -31.978  1.00  0.00    -0.268 OA
BRANCH  12  15
HETATM   15  C   UNL     1      -5.053  -2.282 -34.166  1.00  0.00     0.154 C 
BRANCH  15  16
HETATM   16  C   UNL     1      -5.558  -3.543 -34.885  1.00  0.00     0.132 C 
HETATM   17  C   UNL     1      -4.886  -4.810 -34.371  1.00  0.00     0.041 C 
BRANCH  16  18
HETATM   18  O   UNL     1      -6.965  -3.660 -34.659  1.00  0.00    -0.394 OA
HETATM   19  H   UNL     1      -7.411  -3.360 -35.471  1.00  0.00     0.210 HD
ENDBRANCH  16  18
ENDBRANCH  15  16
ENDBRANCH  12  15
ENDBRANCH   1  11
BRANCH   9  20
HETATM   20  C   UNL     1     -10.988   1.221 -33.986  1.00  0.00    -0.007 A 
HETATM   21  C   UNL     1     -11.763   2.102 -34.763  1.00  0.00     0.015 A 
HETATM   22  C   UNL     1     -13.137   1.898 -34.948  1.00  0.00     0.024 A 
HETATM   23  C   UNL     1     -13.761   0.806 -34.352  1.00  0.00     0.034 A 
HETATM   24 CL   UNL     1     -15.447   0.555 -34.580  1.00  0.00    -0.084 Cl
HETATM   25  C   UNL     1     -13.028  -0.076 -33.569  1.00  0.00     0.024 A 
HETATM   26  C   UNL     1     -11.655   0.133 -33.388  1.00  0.00     0.015 A 
ENDBRANCH   9  20
TORSDOF 5
ENDMDL
MODEL 8
REMARK VINA RESULT:      -7.7      2.860      4.968
REMARK  5 active torsions:
REMARK  status: ('A' for Active; 'I' for Inactive)
REMARK    1  A    between atoms: C_2  and  O_3 
REMARK    2  A    between atoms: C_2  and  C_4 
REMARK    3  A    between atoms: C_4  and  N_5 
REMARK       I    between atoms: N_5  and  C_6 
REMARK    4  A    between atoms: C_6  and  C_7 
REMARK    5  A    between atoms: C_15  and  C_16 
ROOT
HETATM    1  C   UNL     1      -6.542   2.794 -31.531  1.00  0.00     0.046 A 
HETATM    2  C   UNL     1      -5.263   3.393 -31.549  1.00  0.00     0.008 A 
HETATM    3  C   UNL     1      -4.253   2.665 -32.203  1.00  0.00     0.068 A 
HETATM    4  C   UNL     1      -2.974   3.202 -32.268  1.00  0.00     0.032 A 
HETATM    5  C   UNL     1      -2.660   4.441 -31.707  1.00  0.00     0.002 A 
HETATM    6  C   UNL     1      -3.648   5.171 -31.062  1.00  0.00     0.001 A 
HETATM    7  C   UNL     1      -4.940   4.654 -30.984  1.00  0.00     0.015 A 
HETATM    8  N   UNL     1      -4.468   1.469 -32.778  1.00  0.00    -0.248 NA
HETATM    9  C   UNL     1      -5.695   0.898 -32.727  1.00  0.00     0.068 A 
HETATM   10  C   UNL     1      -6.757   1.541 -32.113  1.00  0.00     0.050 A 
ENDROOT
BRANCH   1  11
HETATM   11  C   UNL     1      -7.702   3.450 -30.878  1.00  0.00     0.252 C 
HETATM   12  N   UNL     1      -8.447   4.269 -31.699  1.00  0.00    -0.354 N 
HETATM   13  H   UNL     1      -8.116   4.486 -32.630  1.00  0.00     0.162 HD
HETATM   14  O   UNL     1      -7.950   3.261 -29.696  1.00  0.00    -0.268 OA
BRANCH  12  15
HETATM   15  C   UNL     1      -9.617   4.975 -31.208  1.00  0.00     0.154 C 
BRANCH  15  16
HETATM   16  C   UNL     1     -10.920   4.163 -31.278  1.00  0.00     0.132 C 
HETATM   17  C   UNL     1     -10.924   3.173 -32.435  1.00  0.00     0.041 C 
BRANCH  16  18
HETATM   18  O   UNL     1     -11.061   3.428 -30.060  1.00  0.00    -0.394 OA
HETATM   19  H   UNL     1     -10.348   3.720 -29.465  1.00  0.00     0.210 HD
ENDBRANCH  16  18
ENDBRANCH  15  16
ENDBRANCH  12  15
ENDBRANCH   1  11
BRANCH   9  20
HETATM   20  C   UNL     1      -5.814  -0.425 -33.377  1.00  0.00    -0.007 A 
HETATM   21  C   UNL     1      -4.694  -1.236 -33.644  1.00  0.00     0.015 A 
HETATM   22  C   UNL     1      -4.829  -2.490 -34.253  1.00  0.00     0.024 A 
HETATM   23  C   UNL     1      -6.091  -2.954 -34.611  1.00  0.00     0.034 A 
HETATM   24 CL   UNL     1      -6.257  -4.495 -35.357  1.00  0.00    -0.084 Cl
HETATM   25  C   UNL     1      -7.216  -2.175 -34.372  1.00  0.00     0.024 A 
HETATM   26  C   UNL     1      -7.075  -0.922 -33.763  1.00  0.00     0.015 A 
ENDBRANCH   9  20
TORSDOF 5
ENDMDL
MODEL 9
REMARK VINA RESULT:      -7.6      3.358      5.250
REMARK  5 active torsions:
REMARK  status: ('A' for Active; 'I' for Inactive)
REMARK    1  A    between atoms: C_2  and  O_3 
REMARK    2  A    between atoms: C_2  and  C_4 
REMARK    3  A    between atoms: C_4  and  N_5 
REMARK       I    between atoms: N_5  and  C_6 
REMARK    4  A    between atoms: C_6  and  C_7 
REMARK    5  A    between atoms: C_15  and  C_16 
ROOT
HETATM    1  C   UNL     1      -6.673   2.810 -33.233  1.00  0.00     0.046 A 
HETATM    2  C   UNL     1      -5.497   3.280 -32.608  1.00  0.00     0.008 A 
HETATM    3  C   UNL     1      -4.460   2.341 -32.466  1.00  0.00     0.068 A 
HETATM    4  C   UNL     1      -3.270   2.740 -31.870  1.00  0.00     0.032 A 
HETATM    5  C   UNL     1      -3.072   4.042 -31.409  1.00  0.00     0.002 A 
HETATM    6  C   UNL     1      -4.085   4.979 -31.547  1.00  0.00     0.001 A 
HETATM    7  C   UNL     1      -5.288   4.604 -32.143  1.00  0.00     0.015 A 
HETATM    8  N   UNL     1      -4.561   1.068 -32.887  1.00  0.00    -0.248 NA
HETATM    9  C   UNL     1      -5.707   0.629 -33.460  1.00  0.00     0.068 A 
HETATM   10  C   UNL     1      -6.782   1.480 -33.652  1.00  0.00     0.050 A 
ENDROOT
BRANCH   1  11
HETATM   11  C   UNL     1      -7.846   3.692 -33.452  1.00  0.00     0.252 C 
HETATM   12  N   UNL     1      -8.950   3.398 -32.681  1.00  0.00    -0.354 N 
HETATM   13  H   UNL     1      -8.964   2.554 -32.122  1.00  0.00     0.162 HD
HETATM   14  O   UNL     1      -7.806   4.603 -34.267  1.00  0.00    -0.268 OA
BRANCH  12  15
HETATM   15  C   UNL     1     -10.172   4.175 -32.775  1.00  0.00     0.154 C 
BRANCH  15  16
HETATM   16  C   UNL     1     -11.364   3.409 -33.370  1.00  0.00     0.132 C 
HETATM   17  C   UNL     1     -11.232   3.211 -34.874  1.00  0.00     0.041 C 
BRANCH  16  18
HETATM   18  O   UNL     1     -11.427   2.121 -32.753  1.00  0.00    -0.394 OA
HETATM   19  H   UNL     1     -10.908   2.171 -31.932  1.00  0.00     0.210 HD
ENDBRANCH  16  18
ENDBRANCH  15  16
ENDBRANCH  12  15
ENDBRANCH   1  11
BRANCH   9  20
HETATM   20  C   UNL     1      -5.714  -0.792 -33.870  1.00  0.00    -0.007 A 
HETATM   21  C   UNL     1      -6.896  -1.466 -34.231  1.00  0.00     0.015 A 
HETATM   22  C   UNL     1      -6.880  -2.810 -34.626  1.00  0.00     0.024 A 
HETATM   23  C   UNL     1      -5.676  -3.507 -34.662  1.00  0.00     0.034 A 
HETATM   24 CL   UNL     1      -5.656  -5.156 -35.148  1.00  0.00    -0.084 Cl
HETATM   25  C   UNL     1      -4.493  -2.875 -34.300  1.00  0.00     0.024 A 
HETATM   26  C   UNL     1      -4.515  -1.532 -33.907  1.00  0.00     0.015 A 
ENDBRANCH   9  20
TORSDOF 5
ENDMDL
MODEL 10
REMARK VINA RESULT:      -7.6      4.656      6.231
REMARK  5 active torsions:
REMARK  status: ('A' for Active; 'I' for Inactive)
REMARK    1  A    between atoms: C_2  and  O_3 
REMARK    2  A    between atoms: C_2  and  C_4 
REMARK    3  A    between atoms: C_4  and  N_5 
REMARK       I    between atoms: N_5  and  C_6 
REMARK    4  A    between atoms: C_6  and  C_7 
REMARK    5  A    between atoms: C_15  and  C_16 
ROOT
HETATM    1  C   UNL     1      -9.289   1.660 -33.108  1.00  0.00     0.046 A 
HETATM    2  C   UNL     1      -8.877   2.389 -31.971  1.00  0.00     0.008 A 
HETATM    3  C   UNL     1      -7.673   1.972 -31.377  1.00  0.00     0.068 A 
HETATM    4  C   UNL     1      -7.203   2.654 -30.262  1.00  0.00     0.032 A 
HETATM    5  C   UNL     1      -7.887   3.739 -29.714  1.00  0.00     0.002 A 
HETATM    6  C   UNL     1      -9.074   4.164 -30.293  1.00  0.00     0.001 A 
HETATM    7  C   UNL     1      -9.566   3.498 -31.414  1.00  0.00     0.015 A 
HETATM    8  N   UNL     1      -6.945   0.942 -31.843  1.00  0.00    -0.248 NA
HETATM    9  C   UNL     1      -7.371   0.237 -32.918  1.00  0.00     0.068 A 
HETATM   10  C   UNL     1      -8.540   0.577 -33.578  1.00  0.00     0.050 A 
ENDROOT
BRANCH   1  11
HETATM   11  C   UNL     1     -10.538   1.992 -33.838  1.00  0.00     0.252 C 
HETATM   12  N   UNL     1     -10.415   2.983 -34.787  1.00  0.00    -0.354 N 
HETATM   13  H   UNL     1      -9.555   3.512 -34.854  1.00  0.00     0.162 HD
HETATM   14  O   UNL     1     -11.586   1.412 -33.589  1.00  0.00    -0.268 OA
BRANCH  12  15
HETATM   15  C   UNL     1     -11.546   3.414 -35.589  1.00  0.00     0.154 C 
BRANCH  15  16
HETATM   16  C   UNL     1     -12.497   4.384 -34.870  1.00  0.00     0.132 C 
HETATM   17  C   UNL     1     -13.015   5.478 -35.795  1.00  0.00     0.041 C 
BRANCH  16  18
HETATM   18  O   UNL     1     -13.618   3.642 -34.384  1.00  0.00    -0.394 OA
HETATM   19  H   UNL     1     -13.707   2.855 -34.949  1.00  0.00     0.210 HD
ENDBRANCH  16  18
ENDBRANCH  15  16
ENDBRANCH  12  15
ENDBRANCH   1  11
BRANCH   9  20
HETATM   20  C   UNL     1      -6.501  -0.885 -33.334  1.00  0.00    -0.007 A 
HETATM   21  C   UNL     1      -6.932  -1.877 -34.236  1.00  0.00     0.015 A 
HETATM   22  C   UNL     1      -6.089  -2.927 -34.623  1.00  0.00     0.024 A 
HETATM   23  C   UNL     1      -4.798  -3.004 -34.110  1.00  0.00     0.034 A 
HETATM   24 CL   UNL     1      -3.763  -4.292 -34.588  1.00  0.00    -0.084 Cl
HETATM   25  C   UNL     1      -4.346  -2.048 -33.210  1.00  0.00     0.024 A 
HETATM   26  C   UNL     1      -5.192  -1.001 -32.826  1.00  0.00     0.015 A 
ENDBRANCH   9  20
TORSDOF 5
ENDMDL
