MODEL 1
REMARK VINA RESULT:      -9.7      0.000      0.000
REMARK  7 active torsions:
REMARK  status: ('A' for Active; 'I' for Inactive)
REMARK    1  A    between atoms: O_2  and  C_3 
REMARK    2  A    between atoms: C_3  and  C_4 
REMARK    3  A    between atoms: C_6  and  N_7 
REMARK       I    between atoms: N_7  and  C_8 
REMARK    4  A    between atoms: C_8  and  C_9 
REMARK    5  A    between atoms: C_17  and  C_18 
REMARK    6  A    between atoms: C_18  and  N_19 
REMARK       I    between atoms: N_19  and  C_20 
REMARK    7  A    between atoms: C_20  and  C_21 
ROOT
HETATM    1  C   UNL     1      -6.133  -1.236 -33.375  1.00  0.00     0.042 A 
HETATM    2  C   UNL     1      -7.440  -0.876 -33.736  1.00  0.00     0.047 A 
HETATM    3  C   UNL     1      -8.129   0.103 -33.016  1.00  0.00     0.036 A 
HETATM    4  C   UNL     1      -7.494   0.722 -31.929  1.00  0.00     0.038 A 
HETATM    5  C   UNL     1      -6.175   0.396 -31.571  1.00  0.00    -0.037 A 
HETATM    6  C   UNL     1      -5.510  -0.604 -32.290  1.00  0.00     0.026 A 
ENDROOT
BRANCH   5   7
HETATM    7  C   UNL     1      -5.482   1.129 -30.455  1.00  0.00     0.161 C 
BRANCH   7   8
HETATM    8  N   UNL     1      -5.037   2.440 -30.852  1.00  0.00    -0.351 N 
HETATM    9  C   UNL     1      -3.735   2.693 -31.208  1.00  0.00     0.270 C 
HETATM   10  O   UNL     1      -2.911   1.795 -31.352  1.00  0.00    -0.266 OA
HETATM   11  H   UNL     1      -5.720   3.177 -30.915  1.00  0.00     0.163 HD
BRANCH   9  12
HETATM   12  C   UNL     1      -3.391   4.080 -31.400  1.00  0.00     0.126 A 
HETATM   13  N   UNL     1      -3.800   5.023 -30.486  1.00  0.00    -0.272 N 
HETATM   14  H   UNL     1      -4.337   4.852 -29.642  1.00  0.00     0.189 HD
HETATM   15  N   UNL     1      -3.443   6.283 -30.784  1.00  0.00    -0.178 NA
HETATM   16  C   UNL     1      -2.799   6.154 -31.942  1.00  0.00     0.063 A 
HETATM   17  C   UNL     1      -2.735   4.806 -32.383  1.00  0.00     0.002 A 
HETATM   18  C   UNL     1      -2.270   7.316 -32.708  1.00  0.00     0.062 C 
HETATM   19  C   UNL     1      -2.082   4.420 -33.664  1.00  0.00     0.043 C 
HETATM   20  C   UNL     1      -1.863   5.638 -34.581  1.00  0.00     0.005 C 
HETATM   21  C   UNL     1      -1.310   6.852 -33.815  1.00  0.00     0.006 C 
ENDBRANCH   9  12
ENDBRANCH   7   8
ENDBRANCH   5   7
BRANCH   3  22
HETATM   22  N   UNL     1      -9.432   0.549 -33.335  1.00  0.00    -0.323 N 
HETATM   23  C   UNL     1     -10.623  -0.124 -33.122  1.00  0.00     0.256 C 
HETATM   24  O   UNL     1     -10.763  -1.178 -32.512  1.00  0.00    -0.267 OA
HETATM   25  H   UNL     1      -9.483   1.472 -33.744  1.00  0.00     0.169 HD
BRANCH  23  26
HETATM   26  C   UNL     1     -11.846   0.522 -33.684  1.00  0.00     0.035 A 
HETATM   27  C   UNL     1     -11.809   1.744 -34.358  1.00  0.00     0.036 A 
HETATM   28  C   UNL     1     -12.998   2.242 -34.864  1.00  0.00     0.117 A 
HETATM   29  N   UNL     1     -14.185   1.612 -34.750  1.00  0.00    -0.273 NA
HETATM   30  C   UNL     1     -14.190   0.421 -34.115  1.00  0.00     0.117 A 
HETATM   31  C   UNL     1     -13.060  -0.160 -33.572  1.00  0.00     0.036 A 
ENDBRANCH  23  26
ENDBRANCH   3  22
BRANCH   1  32
HETATM   32  C   UNL     1      -5.355  -2.264 -34.119  1.00  0.00     0.293 C 
HETATM   33  O   UNL     1      -4.176  -2.497 -33.900  1.00  0.00    -0.259 OA
BRANCH  32  34
HETATM   34  O   UNL     1      -6.119  -2.852 -35.070  1.00  0.00    -0.323 OA
HETATM   35  C   UNL     1      -6.343  -4.247 -34.864  1.00  0.00     0.213 C 
ENDBRANCH  32  34
ENDBRANCH   1  32
TORSDOF 7
ENDMDL
MODEL 2
REMARK VINA RESULT:      -9.5      1.552      1.968
REMARK  7 active torsions:
REMARK  status: ('A' for Active; 'I' for Inactive)
REMARK    1  A    between atoms: O_2  and  C_3 
REMARK    2  A    between atoms: C_3  and  C_4 
REMARK    3  A    between atoms: C_6  and  N_7 
REMARK       I    between atoms: N_7  and  C_8 
REMARK    4  A    between atoms: C_8  and  C_9 
REMARK    5  A    between atoms: C_17  and  C_18 
REMARK    6  A    between atoms: C_18  and  N_19 
REMARK       I    between atoms: N_19  and  C_20 
REMARK    7  A    between atoms: C_20  and  C_21 
ROOT
HETATM    1  C   UNL     1      -5.846  -2.017 -34.153  1.00  0.00     0.042 A 
HETATM    2  C   UNL     1      -7.097  -1.458 -34.455  1.00  0.00     0.047 A 
HETATM    3  C   UNL     1      -7.505  -0.266 -33.851  1.00  0.00     0.036 A 
HETATM    4  C   UNL     1      -6.644   0.364 -32.941  1.00  0.00     0.038 A 
HETATM    5  C   UNL     1      -5.376  -0.165 -32.648  1.00  0.00    -0.037 A 
HETATM    6  C   UNL     1      -4.995  -1.371 -33.245  1.00  0.00     0.026 A 
ENDROOT
BRANCH   5   7
HETATM    7  C   UNL     1      -4.434   0.569 -31.732  1.00  0.00     0.161 C 
BRANCH   7   8
HETATM    8  N   UNL     1      -3.943   1.793 -32.314  1.00  0.00    -0.351 N 
HETATM    9  C   UNL     1      -4.198   3.020 -31.755  1.00  0.00     0.270 C 
HETATM   10  O   UNL     1      -4.728   3.140 -30.655  1.00  0.00    -0.266 OA
HETATM   11  H   UNL     1      -3.354   1.731 -33.128  1.00  0.00     0.163 HD
BRANCH   9  12
HETATM   12  C   UNL     1      -3.807   4.164 -32.540  1.00  0.00     0.126 A 
HETATM   13  N   UNL     1      -4.502   4.485 -33.682  1.00  0.00    -0.272 N 
HETATM   14  H   UNL     1      -5.307   3.992 -34.057  1.00  0.00     0.189 HD
HETATM   15  N   UNL     1      -4.030   5.554 -34.344  1.00  0.00    -0.178 NA
HETATM   16  C   UNL     1      -2.980   5.927 -33.616  1.00  0.00     0.063 A 
HETATM   17  C   UNL     1      -2.784   5.099 -32.480  1.00  0.00     0.002 A 
HETATM   18  C   UNL     1      -2.083   7.050 -34.004  1.00  0.00     0.062 C 
HETATM   19  C   UNL     1      -1.657   5.310 -31.529  1.00  0.00     0.043 C 
HETATM   20  C   UNL     1      -0.572   6.225 -32.127  1.00  0.00     0.005 C 
HETATM   21  C   UNL     1      -1.170   7.452 -32.836  1.00  0.00     0.006 C 
ENDBRANCH   9  12
ENDBRANCH   7   8
ENDBRANCH   5   7
BRANCH   3  22
HETATM   22  N   UNL     1      -8.731   0.381 -34.127  1.00  0.00    -0.323 N 
HETATM   23  C   UNL     1      -9.870   0.390 -33.339  1.00  0.00     0.256 C 
HETATM   24  O   UNL     1      -9.973  -0.069 -32.207  1.00  0.00    -0.267 OA
HETATM   25  H   UNL     1      -8.755   0.909 -34.989  1.00  0.00     0.169 HD
BRANCH  23  26
HETATM   26  C   UNL     1     -11.072   1.039 -33.939  1.00  0.00     0.035 A 
HETATM   27  C   UNL     1     -12.364   0.543 -33.759  1.00  0.00     0.036 A 
HETATM   28  C   UNL     1     -13.413   1.239 -34.337  1.00  0.00     0.117 A 
HETATM   29  N   UNL     1     -13.258   2.370 -35.055  1.00  0.00    -0.273 NA
HETATM   30  C   UNL     1     -12.002   2.843 -35.193  1.00  0.00     0.117 A 
HETATM   31  C   UNL     1     -10.889   2.222 -34.660  1.00  0.00     0.036 A 
ENDBRANCH  23  26
ENDBRANCH   3  22
BRANCH   1  32
HETATM   32  C   UNL     1      -5.364  -3.277 -34.781  1.00  0.00     0.293 C 
HETATM   33  O   UNL     1      -6.092  -4.033 -35.407  1.00  0.00    -0.259 OA
BRANCH  32  34
HETATM   34  O   UNL     1      -4.048  -3.470 -34.526  1.00  0.00    -0.323 OA
HETATM   35  C   UNL     1      -3.744  -4.727 -33.922  1.00  0.00     0.213 C 
ENDBRANCH  32  34
ENDBRANCH   1  32
TORSDOF 7
ENDMDL
MODEL 3
REMARK VINA RESULT:      -9.3      2.961      6.581
REMARK  7 active torsions:
REMARK  status: ('A' for Active; 'I' for Inactive)
REMARK    1  A    between atoms: O_2  and  C_3 
REMARK    2  A    between atoms: C_3  and  C_4 
REMARK    3  A    between atoms: C_6  and  N_7 
REMARK       I    between atoms: N_7  and  C_8 
REMARK    4  A    between atoms: C_8  and  C_9 
REMARK    5  A    between atoms: C_17  and  C_18 
REMARK    6  A    between atoms: C_18  and  N_19 
REMARK       I    between atoms: N_19  and  C_20 
REMARK    7  A    between atoms: C_20  and  C_21 
ROOT
HETATM    1  C   UNL     1      -4.751   4.399 -33.620  1.00  0.00     0.042 A 
HETATM    2  C   UNL     1      -6.026   4.194 -34.169  1.00  0.00     0.047 A 
HETATM    3  C   UNL     1      -6.828   3.140 -33.724  1.00  0.00     0.036 A 
HETATM    4  C   UNL     1      -6.340   2.292 -32.719  1.00  0.00     0.038 A 
HETATM    5  C   UNL     1      -5.079   2.500 -32.136  1.00  0.00    -0.037 A 
HETATM    6  C   UNL     1      -4.281   3.546 -32.611  1.00  0.00     0.026 A 
ENDROOT
BRANCH   5   7
HETATM    7  C   UNL     1      -4.608   1.630 -31.002  1.00  0.00     0.161 C 
BRANCH   7   8
HETATM    8  N   UNL     1      -4.564   0.235 -31.360  1.00  0.00    -0.351 N 
HETATM    9  C   UNL     1      -3.384  -0.460 -31.444  1.00  0.00     0.270 C 
HETATM   10  O   UNL     1      -2.315   0.020 -31.078  1.00  0.00    -0.266 OA
HETATM   11  H   UNL     1      -5.436  -0.249 -31.502  1.00  0.00     0.163 HD
BRANCH   9  12
HETATM   12  C   UNL     1      -3.472  -1.791 -31.991  1.00  0.00     0.126 A 
HETATM   13  N   UNL     1      -2.672  -2.793 -31.496  1.00  0.00    -0.272 N 
HETATM   14  H   UNL     1      -1.994  -2.708 -30.745  1.00  0.00     0.189 HD
HETATM   15  N   UNL     1      -2.823  -3.982 -32.102  1.00  0.00    -0.178 NA
HETATM   16  C   UNL     1      -3.740  -3.736 -33.035  1.00  0.00     0.063 A 
HETATM   17  C   UNL     1      -4.182  -2.388 -33.022  1.00  0.00     0.002 A 
HETATM   18  C   UNL     1      -4.188  -4.760 -34.019  1.00  0.00     0.062 C 
HETATM   19  C   UNL     1      -5.190  -1.874 -33.991  1.00  0.00     0.043 C 
HETATM   20  C   UNL     1      -5.369  -2.829 -35.186  1.00  0.00     0.005 C 
HETATM   21  C   UNL     1      -5.460  -4.301 -34.748  1.00  0.00     0.006 C 
ENDBRANCH   9  12
ENDBRANCH   7   8
ENDBRANCH   5   7
BRANCH   3  22
HETATM   22  N   UNL     1      -8.135   2.886 -34.198  1.00  0.00    -0.323 N 
HETATM   23  C   UNL     1      -9.311   3.482 -33.774  1.00  0.00     0.256 C 
HETATM   24  O   UNL     1      -9.408   4.421 -32.992  1.00  0.00    -0.267 OA
HETATM   25  H   UNL     1      -8.198   2.206 -34.944  1.00  0.00     0.169 HD
BRANCH  23  26
HETATM   26  C   UNL     1     -10.569   2.923 -34.351  1.00  0.00     0.035 A 
HETATM   27  C   UNL     1     -11.146   1.738 -33.891  1.00  0.00     0.036 A 
HETATM   28  C   UNL     1     -12.329   1.323 -34.478  1.00  0.00     0.117 A 
HETATM   29  N   UNL     1     -12.960   2.001 -35.459  1.00  0.00    -0.273 NA
HETATM   30  C   UNL     1     -12.396   3.157 -35.868  1.00  0.00     0.117 A 
HETATM   31  C   UNL     1     -11.215   3.655 -35.351  1.00  0.00     0.036 A 
ENDBRANCH  23  26
ENDBRANCH   3  22
BRANCH   1  32
HETATM   32  C   UNL     1      -3.867   5.515 -34.052  1.00  0.00     0.293 C 
HETATM   33  O   UNL     1      -3.539   5.694 -35.215  1.00  0.00    -0.259 OA
BRANCH  32  34
HETATM   34  O   UNL     1      -3.466   6.253 -32.990  1.00  0.00    -0.323 OA
HETATM   35  C   UNL     1      -2.287   7.024 -33.222  1.00  0.00     0.213 C 
ENDBRANCH  32  34
ENDBRANCH   1  32
TORSDOF 7
ENDMDL
MODEL 4
REMARK VINA RESULT:      -9.2      2.469      7.677
REMARK  7 active torsions:
REMARK  status: ('A' for Active; 'I' for Inactive)
REMARK    1  A    between atoms: O_2  and  C_3 
REMARK    2  A    between atoms: C_3  and  C_4 
REMARK    3  A    between atoms: C_6  and  N_7 
REMARK       I    between atoms: N_7  and  C_8 
REMARK    4  A    between atoms: C_8  and  C_9 
REMARK    5  A    between atoms: C_17  and  C_18 
REMARK    6  A    between atoms: C_18  and  N_19 
REMARK       I    between atoms: N_19  and  C_20 
REMARK    7  A    between atoms: C_20  and  C_21 
ROOT
HETATM    1  C   UNL     1      -3.653   2.860 -31.942  1.00  0.00     0.042 A 
HETATM    2  C   UNL     1      -3.573   1.583 -32.519  1.00  0.00     0.047 A 
HETATM    3  C   UNL     1      -4.572   0.636 -32.284  1.00  0.00     0.036 A 
HETATM    4  C   UNL     1      -5.658   0.981 -31.466  1.00  0.00     0.038 A 
HETATM    5  C   UNL     1      -5.771   2.264 -30.905  1.00  0.00    -0.037 A 
HETATM    6  C   UNL     1      -4.749   3.191 -31.132  1.00  0.00     0.026 A 
ENDROOT
BRANCH   5   7
HETATM    7  C   UNL     1      -6.984   2.642 -30.098  1.00  0.00     0.161 C 
BRANCH   7   8
HETATM    8  N   UNL     1      -8.063   3.126 -30.922  1.00  0.00    -0.351 N 
HETATM    9  C   UNL     1      -8.981   2.281 -31.494  1.00  0.00     0.270 C 
HETATM   10  O   UNL     1      -9.028   1.085 -31.220  1.00  0.00    -0.266 OA
HETATM   11  H   UNL     1      -8.167   4.121 -31.034  1.00  0.00     0.163 HD
BRANCH   9  12
HETATM   12  C   UNL     1      -9.889   2.882 -32.439  1.00  0.00     0.126 A 
HETATM   13  N   UNL     1      -9.950   4.250 -32.560  1.00  0.00    -0.272 N 
HETATM   14  H   UNL     1      -9.398   4.927 -32.042  1.00  0.00     0.189 HD
HETATM   15  N   UNL     1     -10.850   4.694 -33.452  1.00  0.00    -0.178 NA
HETATM   16  C   UNL     1     -11.405   3.575 -33.911  1.00  0.00     0.063 A 
HETATM   17  C   UNL     1     -10.854   2.410 -33.316  1.00  0.00     0.002 A 
HETATM   18  C   UNL     1     -12.527   3.570 -34.890  1.00  0.00     0.062 C 
HETATM   19  C   UNL     1     -11.333   1.042 -33.657  1.00  0.00     0.043 C 
HETATM   20  C   UNL     1     -12.691   1.079 -34.382  1.00  0.00     0.005 C 
HETATM   21  C   UNL     1     -12.741   2.164 -35.472  1.00  0.00     0.006 C 
ENDBRANCH   9  12
ENDBRANCH   7   8
ENDBRANCH   5   7
BRANCH   3  22
HETATM   22  N   UNL     1      -4.586  -0.657 -32.854  1.00  0.00    -0.323 N 
HETATM   23  C   UNL     1      -5.375  -1.104 -33.900  1.00  0.00     0.256 C 
HETATM   24  O   UNL     1      -6.120  -0.419 -34.592  1.00  0.00    -0.267 OA
HETATM   25  H   UNL     1      -3.924  -1.310 -32.456  1.00  0.00     0.169 HD
BRANCH  23  26
HETATM   26  C   UNL     1      -5.283  -2.561 -34.210  1.00  0.00     0.035 A 
HETATM   27  C   UNL     1      -4.152  -3.324 -33.912  1.00  0.00     0.036 A 
HETATM   28  C   UNL     1      -4.182  -4.674 -34.217  1.00  0.00     0.117 A 
HETATM   29  N   UNL     1      -5.241  -5.295 -34.777  1.00  0.00    -0.273 NA
HETATM   30  C   UNL     1      -6.331  -4.541 -35.032  1.00  0.00     0.117 A 
HETATM   31  C   UNL     1      -6.401  -3.186 -34.769  1.00  0.00     0.036 A 
ENDBRANCH  23  26
ENDBRANCH   3  22
BRANCH   1  32
HETATM   32  C   UNL     1      -2.620   3.905 -32.173  1.00  0.00     0.293 C 
HETATM   33  O   UNL     1      -1.668   4.080 -31.427  1.00  0.00    -0.259 OA
BRANCH  32  34
HETATM   34  O   UNL     1      -2.908   4.633 -33.278  1.00  0.00    -0.323 OA
HETATM   35  C   UNL     1      -1.762   5.095 -33.994  1.00  0.00     0.213 C 
ENDBRANCH  32  34
ENDBRANCH   1  32
TORSDOF 7
ENDMDL
MODEL 5
REMARK VINA RESULT:      -9.2      3.675      6.342
REMARK  7 active torsions:
REMARK  status: ('A' for Active; 'I' for Inactive)
REMARK    1  A    between atoms: O_2  and  C_3 
REMARK    2  A    between atoms: C_3  and  C_4 
REMARK    3  A    between atoms: C_6  and  N_7 
REMARK       I    between atoms: N_7  and  C_8 
REMARK    4  A    between atoms: C_8  and  C_9 
REMARK    5  A    between atoms: C_17  and  C_18 
REMARK    6  A    between atoms: C_18  and  N_19 
REMARK       I    between atoms: N_19  and  C_20 
REMARK    7  A    between atoms: C_20  and  C_21 
ROOT
HETATM    1  C   UNL     1      -5.906   2.697 -31.014  1.00  0.00     0.042 A 
HETATM    2  C   UNL     1      -5.955   1.388 -31.516  1.00  0.00     0.047 A 
HETATM    3  C   UNL     1      -4.961   0.924 -32.381  1.00  0.00     0.036 A 
HETATM    4  C   UNL     1      -3.912   1.785 -32.737  1.00  0.00     0.038 A 
HETATM    5  C   UNL     1      -3.830   3.088 -32.220  1.00  0.00    -0.037 A 
HETATM    6  C   UNL     1      -4.847   3.543 -31.374  1.00  0.00     0.026 A 
ENDROOT
BRANCH   5   7
HETATM    7  C   UNL     1      -2.654   3.968 -32.548  1.00  0.00     0.161 C 
BRANCH   7   8
HETATM    8  N   UNL     1      -1.976   4.441 -31.368  1.00  0.00    -0.351 N 
HETATM    9  C   UNL     1      -1.181   5.560 -31.382  1.00  0.00     0.270 C 
HETATM   10  O   UNL     1      -1.117   6.304 -32.356  1.00  0.00    -0.266 OA
HETATM   11  H   UNL     1      -2.137   3.958 -30.500  1.00  0.00     0.163 HD
BRANCH   9  12
HETATM   12  C   UNL     1      -0.419   5.808 -30.184  1.00  0.00     0.126 A 
HETATM   13  N   UNL     1       0.292   4.788 -29.597  1.00  0.00    -0.272 N 
HETATM   14  H   UNL     1       0.357   3.830 -29.927  1.00  0.00     0.189 HD
HETATM   15  N   UNL     1       0.940   5.132 -28.471  1.00  0.00    -0.178 NA
HETATM   16  C   UNL     1       0.620   6.415 -28.313  1.00  0.00     0.063 A 
HETATM   17  C   UNL     1      -0.228   6.896 -29.345  1.00  0.00     0.002 A 
HETATM   18  C   UNL     1       1.060   7.220 -27.141  1.00  0.00     0.062 C 
HETATM   19  C   UNL     1      -0.735   8.296 -29.367  1.00  0.00     0.043 C 
HETATM   20  C   UNL     1      -0.562   8.985 -28.000  1.00  0.00     0.005 C 
HETATM   21  C   UNL     1       0.822   8.718 -27.383  1.00  0.00     0.006 C 
ENDBRANCH   9  12
ENDBRANCH   7   8
ENDBRANCH   5   7
BRANCH   3  22
HETATM   22  N   UNL     1      -4.917  -0.389 -32.903  1.00  0.00    -0.323 N 
HETATM   23  C   UNL     1      -5.620  -0.884 -33.988  1.00  0.00     0.256 C 
HETATM   24  O   UNL     1      -6.319  -0.235 -34.757  1.00  0.00    -0.267 OA
HETATM   25  H   UNL     1      -4.279  -1.018 -32.432  1.00  0.00     0.169 HD
BRANCH  23  26
HETATM   26  C   UNL     1      -5.489  -2.350 -34.236  1.00  0.00     0.035 A 
HETATM   27  C   UNL     1      -4.345  -3.072 -33.889  1.00  0.00     0.036 A 
HETATM   28  C   UNL     1      -4.338  -4.434 -34.139  1.00  0.00     0.117 A 
HETATM   29  N   UNL     1      -5.373  -5.103 -34.690  1.00  0.00    -0.273 NA
HETATM   30  C   UNL     1      -6.475  -4.387 -34.993  1.00  0.00     0.117 A 
HETATM   31  C   UNL     1      -6.581  -3.024 -34.787  1.00  0.00     0.036 A 
ENDBRANCH  23  26
ENDBRANCH   3  22
BRANCH   1  32
HETATM   32  C   UNL     1      -6.934   3.231 -30.081  1.00  0.00     0.293 C 
HETATM   33  O   UNL     1      -6.718   4.149 -29.303  1.00  0.00    -0.259 OA
BRANCH  32  34
HETATM   34  O   UNL     1      -8.095   2.542 -30.195  1.00  0.00    -0.323 OA
HETATM   35  C   UNL     1      -9.168   3.290 -30.767  1.00  0.00     0.213 C 
ENDBRANCH  32  34
ENDBRANCH   1  32
TORSDOF 7
ENDMDL
MODEL 6
REMARK VINA RESULT:      -9.1      2.355      5.556
REMARK  7 active torsions:
REMARK  status: ('A' for Active; 'I' for Inactive)
REMARK    1  A    between atoms: O_2  and  C_3 
REMARK    2  A    between atoms: C_3  and  C_4 
REMARK    3  A    between atoms: C_6  and  N_7 
REMARK       I    between atoms: N_7  and  C_8 
REMARK    4  A    between atoms: C_8  and  C_9 
REMARK    5  A    between atoms: C_17  and  C_18 
REMARK    6  A    between atoms: C_18  and  N_19 
REMARK       I    between atoms: N_19  and  C_20 
REMARK    7  A    between atoms: C_20  and  C_21 
ROOT
HETATM    1  C   UNL     1     -10.235   1.544 -33.081  1.00  0.00     0.042 A 
HETATM    2  C   UNL     1      -9.495   0.402 -33.422  1.00  0.00     0.047 A 
HETATM    3  C   UNL     1      -8.170   0.265 -33.002  1.00  0.00     0.036 A 
HETATM    4  C   UNL     1      -7.592   1.286 -32.233  1.00  0.00     0.038 A 
HETATM    5  C   UNL     1      -8.326   2.423 -31.857  1.00  0.00    -0.037 A 
HETATM    6  C   UNL     1      -9.644   2.553 -32.307  1.00  0.00     0.026 A 
ENDROOT
BRANCH   5   7
HETATM    7  C   UNL     1      -7.714   3.468 -30.963  1.00  0.00     0.161 C 
BRANCH   7   8
HETATM    8  N   UNL     1      -6.283   3.548 -31.110  1.00  0.00    -0.351 N 
HETATM    9  C   UNL     1      -5.594   4.720 -30.921  1.00  0.00     0.270 C 
HETATM   10  O   UNL     1      -6.131   5.728 -30.473  1.00  0.00    -0.266 OA
HETATM   11  H   UNL     1      -5.776   2.701 -31.310  1.00  0.00     0.163 HD
BRANCH   9  12
HETATM   12  C   UNL     1      -4.198   4.697 -31.282  1.00  0.00     0.126 A 
HETATM   13  N   UNL     1      -3.445   3.571 -31.047  1.00  0.00    -0.272 N 
HETATM   14  H   UNL     1      -3.771   2.702 -30.634  1.00  0.00     0.189 HD
HETATM   15  N   UNL     1      -2.154   3.676 -31.400  1.00  0.00    -0.178 NA
HETATM   16  C   UNL     1      -2.063   4.922 -31.862  1.00  0.00     0.063 A 
HETATM   17  C   UNL     1      -3.302   5.613 -31.812  1.00  0.00     0.002 A 
HETATM   18  C   UNL     1      -0.780   5.526 -32.314  1.00  0.00     0.062 C 
HETATM   19  C   UNL     1      -3.440   7.028 -32.255  1.00  0.00     0.043 C 
HETATM   20  C   UNL     1      -2.070   7.721 -32.379  1.00  0.00     0.005 C 
HETATM   21  C   UNL     1      -1.029   6.833 -33.082  1.00  0.00     0.006 C 
ENDBRANCH   9  12
ENDBRANCH   7   8
ENDBRANCH   5   7
BRANCH   3  22
HETATM   22  N   UNL     1      -7.368  -0.867 -33.271  1.00  0.00    -0.323 N 
HETATM   23  C   UNL     1      -6.717  -1.171 -34.455  1.00  0.00     0.256 C 
HETATM   24  O   UNL     1      -6.630  -0.449 -35.441  1.00  0.00    -0.267 OA
HETATM   25  H   UNL     1      -7.250  -1.505 -32.495  1.00  0.00     0.169 HD
BRANCH  23  26
HETATM   26  C   UNL     1      -6.050  -2.505 -34.507  1.00  0.00     0.035 A 
HETATM   27  C   UNL     1      -4.738  -2.708 -34.077  1.00  0.00     0.036 A 
HETATM   28  C   UNL     1      -4.225  -3.992 -34.144  1.00  0.00     0.117 A 
HETATM   29  N   UNL     1      -4.921  -5.057 -34.593  1.00  0.00    -0.273 NA
HETATM   30  C   UNL     1      -6.195  -4.840 -34.979  1.00  0.00     0.117 A 
HETATM   31  C   UNL     1      -6.799  -3.597 -34.955  1.00  0.00     0.036 A 
ENDBRANCH  23  26
ENDBRANCH   3  22
BRANCH   1  32
HETATM   32  C   UNL     1     -11.653   1.728 -33.495  1.00  0.00     0.293 C 
HETATM   33  O   UNL     1     -12.141   2.821 -33.738  1.00  0.00    -0.259 OA
BRANCH  32  34
HETATM   34  O   UNL     1     -12.306   0.542 -33.520  1.00  0.00    -0.323 OA
HETATM   35  C   UNL     1     -13.541   0.566 -34.236  1.00  0.00     0.213 C 
ENDBRANCH  32  34
ENDBRANCH   1  32
TORSDOF 7
ENDMDL
MODEL 7
REMARK VINA RESULT:      -9.1     15.842     17.369
REMARK  7 active torsions:
REMARK  status: ('A' for Active; 'I' for Inactive)
REMARK    1  A    between atoms: O_2  and  C_3 
REMARK    2  A    between atoms: C_3  and  C_4 
REMARK    3  A    between atoms: C_6  and  N_7 
REMARK       I    between atoms: N_7  and  C_8 
REMARK    4  A    between atoms: C_8  and  C_9 
REMARK    5  A    between atoms: C_17  and  C_18 
REMARK    6  A    between atoms: C_18  and  N_19 
REMARK       I    between atoms: N_19  and  C_20 
REMARK    7  A    between atoms: C_20  and  C_21 
ROOT
HETATM    1  C   UNL     1      -8.768 -12.988 -39.066  1.00  0.00     0.042 A 
HETATM    2  C   UNL     1      -8.615 -13.626 -37.826  1.00  0.00     0.047 A 
HETATM    3  C   UNL     1      -7.352 -13.743 -37.240  1.00  0.00     0.036 A 
HETATM    4  C   UNL     1      -6.241 -13.210 -37.910  1.00  0.00     0.038 A 
HETATM    5  C   UNL     1      -6.378 -12.542 -39.137  1.00  0.00    -0.037 A 
HETATM    6  C   UNL     1      -7.648 -12.455 -39.719  1.00  0.00     0.026 A 
ENDROOT
BRANCH   5   7
HETATM    7  C   UNL     1      -5.186 -11.905 -39.799  1.00  0.00     0.161 C 
BRANCH   7   8
HETATM    8  N   UNL     1      -4.021 -12.752 -39.767  1.00  0.00    -0.351 N 
HETATM    9  C   UNL     1      -2.974 -12.523 -38.910  1.00  0.00     0.270 C 
HETATM   10  O   UNL     1      -3.030 -11.677 -38.022  1.00  0.00    -0.266 OA
HETATM   11  H   UNL     1      -4.007 -13.565 -40.362  1.00  0.00     0.163 HD
BRANCH   9  12
HETATM   12  C   UNL     1      -1.801 -13.334 -39.116  1.00  0.00     0.126 A 
HETATM   13  N   UNL     1      -1.267 -13.465 -40.376  1.00  0.00    -0.272 N 
HETATM   14  H   UNL     1      -1.613 -13.029 -41.226  1.00  0.00     0.189 HD
HETATM   15  N   UNL     1      -0.191 -14.266 -40.449  1.00  0.00    -0.178 NA
HETATM   16  C   UNL     1      -0.035 -14.684 -39.195  1.00  0.00     0.063 A 
HETATM   17  C   UNL     1      -1.009 -14.143 -38.315  1.00  0.00     0.002 A 
HETATM   18  C   UNL     1       1.010 -15.665 -38.793  1.00  0.00     0.062 C 
HETATM   19  C   UNL     1      -1.047 -14.487 -36.866  1.00  0.00     0.043 C 
HETATM   20  C   UNL     1      -0.204 -15.738 -36.556  1.00  0.00     0.005 C 
HETATM   21  C   UNL     1       1.161 -15.712 -37.265  1.00  0.00     0.006 C 
ENDBRANCH   9  12
ENDBRANCH   7   8
ENDBRANCH   5   7
BRANCH   3  22
HETATM   22  N   UNL     1      -7.117 -14.337 -35.980  1.00  0.00    -0.323 N 
HETATM   23  C   UNL     1      -7.249 -13.745 -34.736  1.00  0.00     0.256 C 
HETATM   24  O   UNL     1      -7.706 -12.630 -34.507  1.00  0.00    -0.267 OA
HETATM   25  H   UNL     1      -6.843 -15.311 -36.008  1.00  0.00     0.169 HD
BRANCH  23  26
HETATM   26  C   UNL     1      -6.800 -14.565 -33.572  1.00  0.00     0.035 A 
HETATM   27  C   UNL     1      -7.366 -15.803 -33.261  1.00  0.00     0.036 A 
HETATM   28  C   UNL     1      -6.856 -16.494 -32.176  1.00  0.00     0.117 A 
HETATM   29  N   UNL     1      -5.841 -16.045 -31.408  1.00  0.00    -0.273 NA
HETATM   30  C   UNL     1      -5.295 -14.858 -31.744  1.00  0.00     0.117 A 
HETATM   31  C   UNL     1      -5.733 -14.089 -32.805  1.00  0.00     0.036 A 
ENDBRANCH  23  26
ENDBRANCH   3  22
BRANCH   1  32
HETATM   32  C   UNL     1     -10.094 -12.828 -39.722  1.00  0.00     0.293 C 
HETATM   33  O   UNL     1     -10.501 -11.761 -40.156  1.00  0.00    -0.259 OA
BRANCH  32  34
HETATM   34  O   UNL     1     -10.774 -14.000 -39.729  1.00  0.00    -0.323 OA
HETATM   35  C   UNL     1     -10.486 -14.840 -40.847  1.00  0.00     0.213 C 
ENDBRANCH  32  34
ENDBRANCH   1  32
TORSDOF 7
ENDMDL
MODEL 8
REMARK VINA RESULT:      -8.9      3.420      6.195
REMARK  7 active torsions:
REMARK  status: ('A' for Active; 'I' for Inactive)
REMARK    1  A    between atoms: O_2  and  C_3 
REMARK    2  A    between atoms: C_3  and  C_4 
REMARK    3  A    between atoms: C_6  and  N_7 
REMARK       I    between atoms: N_7  and  C_8 
REMARK    4  A    between atoms: C_8  and  C_9 
REMARK    5  A    between atoms: C_17  and  C_18 
REMARK    6  A    between atoms: C_18  and  N_19 
REMARK       I    between atoms: N_19  and  C_20 
REMARK    7  A    between atoms: C_20  and  C_21 
ROOT
HETATM    1  C   UNL     1      -6.273   2.711 -31.227  1.00  0.00     0.042 A 
HETATM    2  C   UNL     1      -6.321   1.411 -31.753  1.00  0.00     0.047 A 
HETATM    3  C   UNL     1      -5.191   0.847 -32.350  1.00  0.00     0.036 A 
HETATM    4  C   UNL     1      -4.008   1.598 -32.413  1.00  0.00     0.038 A 
HETATM    5  C   UNL     1      -3.932   2.889 -31.865  1.00  0.00    -0.037 A 
HETATM    6  C   UNL     1      -5.080   3.446 -31.293  1.00  0.00     0.026 A 
ENDROOT
BRANCH   5   7
HETATM    7  C   UNL     1      -2.632   3.646 -31.869  1.00  0.00     0.161 C 
BRANCH   7   8
HETATM    8  N   UNL     1      -2.665   4.799 -31.006  1.00  0.00    -0.351 N 
HETATM    9  C   UNL     1      -1.656   5.730 -30.992  1.00  0.00     0.270 C 
HETATM   10  O   UNL     1      -0.743   5.717 -31.813  1.00  0.00    -0.266 OA
HETATM   11  H   UNL     1      -3.481   4.945 -30.435  1.00  0.00     0.163 HD
BRANCH   9  12
HETATM   12  C   UNL     1      -1.730   6.726 -29.953  1.00  0.00     0.126 A 
HETATM   13  N   UNL     1      -2.927   7.346 -29.678  1.00  0.00    -0.272 N 
HETATM   14  H   UNL     1      -3.815   7.173 -30.137  1.00  0.00     0.189 HD
HETATM   15  N   UNL     1      -2.867   8.274 -28.708  1.00  0.00    -0.178 NA
HETATM   16  C   UNL     1      -1.583   8.269 -28.358  1.00  0.00     0.063 A 
HETATM   17  C   UNL     1      -0.819   7.329 -29.099  1.00  0.00     0.002 A 
HETATM   18  C   UNL     1      -1.018   9.202 -27.345  1.00  0.00     0.062 C 
HETATM   19  C   UNL     1       0.646   7.161 -28.895  1.00  0.00     0.043 C 
HETATM   20  C   UNL     1       1.253   8.347 -28.121  1.00  0.00     0.005 C 
HETATM   21  C   UNL     1       0.390   8.759 -26.916  1.00  0.00     0.006 C 
ENDBRANCH   9  12
ENDBRANCH   7   8
ENDBRANCH   5   7
BRANCH   3  22
HETATM   22  N   UNL     1      -5.145  -0.466 -32.871  1.00  0.00    -0.323 N 
HETATM   23  C   UNL     1      -5.782  -0.941 -34.005  1.00  0.00     0.256 C 
HETATM   24  O   UNL     1      -6.406  -0.272 -34.820  1.00  0.00    -0.267 OA
HETATM   25  H   UNL     1      -4.560  -1.113 -32.358  1.00  0.00     0.169 HD
BRANCH  23  26
HETATM   26  C   UNL     1      -5.672  -2.410 -34.247  1.00  0.00     0.035 A 
HETATM   27  C   UNL     1      -6.725  -3.168 -34.763  1.00  0.00     0.036 A 
HETATM   28  C   UNL     1      -6.508  -4.519 -34.976  1.00  0.00     0.117 A 
HETATM   29  N   UNL     1      -5.338  -5.141 -34.720  1.00  0.00    -0.273 NA
HETATM   30  C   UNL     1      -4.329  -4.382 -34.246  1.00  0.00     0.117 A 
HETATM   31  C   UNL     1      -4.444  -3.027 -33.996  1.00  0.00     0.036 A 
ENDBRANCH  23  26
ENDBRANCH   3  22
BRANCH   1  32
HETATM   32  C   UNL     1      -7.446   3.349 -30.571  1.00  0.00     0.293 C 
HETATM   33  O   UNL     1      -7.534   3.501 -29.362  1.00  0.00    -0.259 OA
BRANCH  32  34
HETATM   34  O   UNL     1      -8.386   3.688 -31.486  1.00  0.00    -0.323 OA
HETATM   35  C   UNL     1      -9.595   2.935 -31.393  1.00  0.00     0.213 C 
ENDBRANCH  32  34
ENDBRANCH   1  32
TORSDOF 7
ENDMDL
MODEL 9
REMARK VINA RESULT:      -8.8      2.787      3.652
REMARK  7 active torsions:
REMARK  status: ('A' for Active; 'I' for Inactive)
REMARK    1  A    between atoms: O_2  and  C_3 
REMARK    2  A    between atoms: C_3  and  C_4 
REMARK    3  A    between atoms: C_6  and  N_7 
REMARK       I    between atoms: N_7  and  C_8 
REMARK    4  A    between atoms: C_8  and  C_9 
REMARK    5  A    between atoms: C_17  and  C_18 
REMARK    6  A    between atoms: C_18  and  N_19 
REMARK       I    between atoms: N_19  and  C_20 
REMARK    7  A    between atoms: C_20  and  C_21 
ROOT
HETATM    1  C   UNL     1      -5.727  -1.680 -33.560  1.00  0.00     0.042 A 
HETATM    2  C   UNL     1      -7.023  -1.284 -33.923  1.00  0.00     0.047 A 
HETATM    3  C   UNL     1      -7.716  -0.341 -33.159  1.00  0.00     0.036 A 
HETATM    4  C   UNL     1      -7.094   0.205 -32.026  1.00  0.00     0.038 A 
HETATM    5  C   UNL     1      -5.786  -0.157 -31.664  1.00  0.00    -0.037 A 
HETATM    6  C   UNL     1      -5.118  -1.119 -32.428  1.00  0.00     0.026 A 
ENDROOT
BRANCH   5   7
HETATM    7  C   UNL     1      -5.107   0.502 -30.494  1.00  0.00     0.161 C 
BRANCH   7   8
HETATM    8  N   UNL     1      -5.805   1.679 -30.043  1.00  0.00    -0.351 N 
HETATM    9  C   UNL     1      -5.328   2.945 -30.275  1.00  0.00     0.270 C 
HETATM   10  O   UNL     1      -4.362   3.156 -31.003  1.00  0.00    -0.266 OA
HETATM   11  H   UNL     1      -6.695   1.560 -29.589  1.00  0.00     0.163 HD
BRANCH   9  12
HETATM   12  C   UNL     1      -6.027   4.015 -29.609  1.00  0.00     0.126 A 
HETATM   13  N   UNL     1      -5.483   4.600 -28.490  1.00  0.00    -0.272 N 
HETATM   14  H   UNL     1      -4.597   4.363 -28.055  1.00  0.00     0.189 HD
HETATM   15  N   UNL     1      -6.237   5.567 -27.941  1.00  0.00    -0.178 NA
HETATM   16  C   UNL     1      -7.316   5.595 -28.720  1.00  0.00     0.063 A 
HETATM   17  C   UNL     1      -7.249   4.649 -29.777  1.00  0.00     0.002 A 
HETATM   18  C   UNL     1      -8.482   6.481 -28.457  1.00  0.00     0.062 C 
HETATM   19  C   UNL     1      -8.351   4.482 -30.764  1.00  0.00     0.043 C 
HETATM   20  C   UNL     1      -9.656   5.139 -30.275  1.00  0.00     0.005 C 
HETATM   21  C   UNL     1      -9.417   6.535 -29.675  1.00  0.00     0.006 C 
ENDBRANCH   9  12
ENDBRANCH   7   8
ENDBRANCH   5   7
BRANCH   3  22
HETATM   22  N   UNL     1      -9.008   0.137 -33.474  1.00  0.00    -0.323 N 
HETATM   23  C   UNL     1      -9.335   1.363 -34.028  1.00  0.00     0.256 C 
HETATM   24  O   UNL     1      -8.548   2.203 -34.450  1.00  0.00    -0.267 OA
HETATM   25  H   UNL     1      -9.763  -0.508 -33.287  1.00  0.00     0.169 HD
BRANCH  23  26
HETATM   26  C   UNL     1     -10.794   1.665 -34.128  1.00  0.00     0.035 A 
HETATM   27  C   UNL     1     -11.285   2.794 -34.785  1.00  0.00     0.036 A 
HETATM   28  C   UNL     1     -12.658   2.964 -34.843  1.00  0.00     0.117 A 
HETATM   29  N   UNL     1     -13.546   2.100 -34.308  1.00  0.00    -0.273 NA
HETATM   30  C   UNL     1     -13.046   1.003 -33.701  1.00  0.00     0.117 A 
HETATM   31  C   UNL     1     -11.693   0.743 -33.586  1.00  0.00     0.036 A 
ENDBRANCH  23  26
ENDBRANCH   3  22
BRANCH   1  32
HETATM   32  C   UNL     1      -4.946  -2.670 -34.350  1.00  0.00     0.293 C 
HETATM   33  O   UNL     1      -5.246  -3.003 -35.486  1.00  0.00    -0.259 OA
BRANCH  32  34
HETATM   34  O   UNL     1      -3.911  -3.158 -33.624  1.00  0.00    -0.323 OA
HETATM   35  C   UNL     1      -3.641  -4.543 -33.843  1.00  0.00     0.213 C 
ENDBRANCH  32  34
ENDBRANCH   1  32
TORSDOF 7
ENDMDL
MODEL 10
REMARK VINA RESULT:      -8.6     15.740     18.801
REMARK  7 active torsions:
REMARK  status: ('A' for Active; 'I' for Inactive)
REMARK    1  A    between atoms: O_2  and  C_3 
REMARK    2  A    between atoms: C_3  and  C_4 
REMARK    3  A    between atoms: C_6  and  N_7 
REMARK       I    between atoms: N_7  and  C_8 
REMARK    4  A    between atoms: C_8  and  C_9 
REMARK    5  A    between atoms: C_17  and  C_18 
REMARK    6  A    between atoms: C_18  and  N_19 
REMARK       I    between atoms: N_19  and  C_20 
REMARK    7  A    between atoms: C_20  and  C_21 
ROOT
HETATM    1  C   UNL     1       0.592 -14.926 -39.559  1.00  0.00     0.042 A 
HETATM    2  C   UNL     1      -0.182 -15.468 -40.596  1.00  0.00     0.047 A 
HETATM    3  C   UNL     1      -1.483 -15.013 -40.821  1.00  0.00     0.036 A 
HETATM    4  C   UNL     1      -2.003 -14.004 -39.997  1.00  0.00     0.038 A 
HETATM    5  C   UNL     1      -1.233 -13.428 -38.974  1.00  0.00    -0.037 A 
HETATM    6  C   UNL     1       0.060 -13.913 -38.748  1.00  0.00     0.026 A 
ENDROOT
BRANCH   5   7
HETATM    7  C   UNL     1      -1.778 -12.289 -38.155  1.00  0.00     0.161 C 
BRANCH   7   8
HETATM    8  N   UNL     1      -3.219 -12.254 -38.152  1.00  0.00    -0.351 N 
HETATM    9  C   UNL     1      -3.964 -12.954 -37.236  1.00  0.00     0.270 C 
HETATM   10  O   UNL     1      -3.453 -13.529 -36.280  1.00  0.00    -0.266 OA
HETATM   11  H   UNL     1      -3.683 -11.655 -38.815  1.00  0.00     0.163 HD
BRANCH   9  12
HETATM   12  C   UNL     1      -5.387 -12.977 -37.465  1.00  0.00     0.126 A 
HETATM   13  N   UNL     1      -6.245 -13.287 -36.436  1.00  0.00    -0.272 N 
HETATM   14  H   UNL     1      -5.985 -13.505 -35.479  1.00  0.00     0.189 HD
HETATM   15  N   UNL     1      -7.544 -13.303 -36.775  1.00  0.00    -0.178 NA
HETATM   16  C   UNL     1      -7.526 -13.014 -38.074  1.00  0.00     0.063 A 
HETATM   17  C   UNL     1      -6.211 -12.804 -38.567  1.00  0.00     0.002 A 
HETATM   18  C   UNL     1      -8.754 -12.985 -38.915  1.00  0.00     0.062 C 
HETATM   19  C   UNL     1      -5.941 -12.489 -39.997  1.00  0.00     0.043 C 
HETATM   20  C   UNL     1      -7.156 -12.807 -40.889  1.00  0.00     0.005 C 
HETATM   21  C   UNL     1      -8.477 -12.318 -40.270  1.00  0.00     0.006 C 
ENDBRANCH   9  12
ENDBRANCH   7   8
ENDBRANCH   5   7
BRANCH   3  22
HETATM   22  N   UNL     1      -2.315 -15.480 -41.864  1.00  0.00    -0.323 N 
HETATM   23  C   UNL     1      -3.336 -14.790 -42.496  1.00  0.00     0.256 C 
HETATM   24  O   UNL     1      -3.618 -13.608 -42.337  1.00  0.00    -0.267 OA
HETATM   25  H   UNL     1      -2.115 -16.418 -42.187  1.00  0.00     0.169 HD
BRANCH  23  26
HETATM   26  C   UNL     1      -4.147 -15.575 -43.472  1.00  0.00     0.035 A 
HETATM   27  C   UNL     1      -3.786 -15.708 -44.814  1.00  0.00     0.036 A 
HETATM   28  C   UNL     1      -4.596 -16.482 -45.629  1.00  0.00     0.117 A 
HETATM   29  N   UNL     1      -5.705 -17.118 -45.200  1.00  0.00    -0.273 NA
HETATM   30  C   UNL     1      -6.018 -16.994 -43.893  1.00  0.00     0.117 A 
HETATM   31  C   UNL     1      -5.279 -16.243 -42.999  1.00  0.00     0.036 A 
ENDBRANCH  23  26
ENDBRANCH   3  22
BRANCH   1  32
HETATM   32  C   UNL     1       1.986 -15.370 -39.289  1.00  0.00     0.293 C 
HETATM   33  O   UNL     1       2.839 -15.460 -40.160  1.00  0.00    -0.259 OA
BRANCH  32  34
HETATM   34  O   UNL     1       2.148 -15.685 -37.982  1.00  0.00    -0.323 OA
HETATM   35  C   UNL     1       1.774 -17.022 -37.649  1.00  0.00     0.213 C 
ENDBRANCH  32  34
ENDBRANCH   1  32
TORSDOF 7
ENDMDL
