MODEL 1
REMARK VINA RESULT:      -8.5      0.000      0.000
REMARK  6 active torsions:
REMARK  status: ('A' for Active; 'I' for Inactive)
REMARK    1  A    between atoms: N_4  and  C_5 
REMARK    2  A    between atoms: C_14  and  C_15 
REMARK       I    between atoms: C_15  and  N_16 
REMARK    3  A    between atoms: N_16  and  C_17 
REMARK    4  A    between atoms: C_17  and  C_18 
REMARK    5  A    between atoms: C_18  and  O_19 
REMARK    6  A    between atoms: C_18  and  C_20 
ROOT
HETATM    1  C   UNL     1      -4.573   4.360 -33.475  1.00  0.00     0.255 C 
HETATM    2  N   UNL     1      -4.959   3.133 -32.985  1.00  0.00    -0.354 N 
HETATM    3  O   UNL     1      -5.170   4.915 -34.392  1.00  0.00    -0.268 OA
HETATM    4  H   UNL     1      -4.295   2.601 -32.439  1.00  0.00     0.162 HD
ENDROOT
BRANCH   1   5
HETATM    5  C   UNL     1      -3.384   4.945 -32.865  1.00  0.00     0.082 C 
HETATM    6  C   UNL     1      -2.178   5.248 -33.544  1.00  0.00     0.069 C 
HETATM    7  C   UNL     1      -1.848   5.015 -34.975  1.00  0.00     0.073 C 
HETATM    8  N   UNL     1      -1.284   5.828 -32.747  1.00  0.00    -0.171 NA
HETATM    9  N   UNL     1      -1.851   5.848 -31.516  1.00  0.00    -0.237 N 
HETATM   10  C   UNL     1      -3.178   5.419 -31.568  1.00  0.00     0.050 C 
HETATM   11  C   UNL     1      -4.159   5.596 -30.463  1.00  0.00     0.071 C 
BRANCH   9  12
HETATM   12  C   UNL     1      -1.055   6.295 -30.414  1.00  0.00     0.058 A 
HETATM   13  C   UNL     1      -1.174   7.634 -29.994  1.00  0.00     0.033 A 
HETATM   14  C   UNL     1      -0.423   8.117 -28.920  1.00  0.00     0.021 A 
HETATM   15  C   UNL     1       0.470   7.272 -28.271  1.00  0.00     0.011 A 
HETATM   16 BR   UNL     1       1.493   7.919 -26.819  1.00  0.00    -0.051 Br
HETATM   17  C   UNL     1       0.622   5.952 -28.691  1.00  0.00     0.021 A 
HETATM   18  C   UNL     1      -0.135   5.463 -29.764  1.00  0.00     0.033 A 
ENDBRANCH   9  12
ENDBRANCH   1   5
BRANCH   2  19
HETATM   19  C   UNL     1      -6.024   2.377 -33.629  1.00  0.00     0.159 C 
BRANCH  19  20
HETATM   20  C   UNL     1      -6.476   1.182 -32.775  1.00  0.00     0.169 C 
BRANCH  20  21
HETATM   21  O   UNL     1      -5.871   1.267 -31.478  1.00  0.00    -0.389 OA
HETATM   22  H   UNL     1      -4.989   0.861 -31.549  1.00  0.00     0.210 HD
ENDBRANCH  20  21
BRANCH  20  23
HETATM   23  C   UNL     1      -6.130  -0.142 -33.426  1.00  0.00    -0.028 A 
HETATM   24  C   UNL     1      -4.824  -0.654 -33.331  1.00  0.00     0.013 A 
HETATM   25  C   UNL     1      -4.505  -1.889 -33.900  1.00  0.00     0.043 A 
HETATM   26  C   UNL     1      -5.488  -2.615 -34.561  1.00  0.00     0.116 A 
HETATM   27  F   UNL     1      -5.180  -3.802 -35.099  1.00  0.00    -0.206 F 
HETATM   28  C   UNL     1      -6.784  -2.129 -34.669  1.00  0.00     0.043 A 
HETATM   29  C   UNL     1      -7.106  -0.893 -34.104  1.00  0.00     0.013 A 
ENDBRANCH  20  23
ENDBRANCH  19  20
ENDBRANCH   2  19
TORSDOF 6
ENDMDL
MODEL 2
REMARK VINA RESULT:      -8.3      4.262      8.490
REMARK  6 active torsions:
REMARK  status: ('A' for Active; 'I' for Inactive)
REMARK    1  A    between atoms: N_4  and  C_5 
REMARK    2  A    between atoms: C_14  and  C_15 
REMARK       I    between atoms: C_15  and  N_16 
REMARK    3  A    between atoms: N_16  and  C_17 
REMARK    4  A    between atoms: C_17  and  C_18 
REMARK    5  A    between atoms: C_18  and  O_19 
REMARK    6  A    between atoms: C_18  and  C_20 
ROOT
HETATM    1  C   UNL     1      -4.229   6.048 -31.196  1.00  0.00     0.255 C 
HETATM    2  N   UNL     1      -3.885   6.978 -32.152  1.00  0.00    -0.354 N 
HETATM    3  O   UNL     1      -3.938   6.190 -30.012  1.00  0.00    -0.268 OA
HETATM    4  H   UNL     1      -3.897   6.698 -33.123  1.00  0.00     0.162 HD
ENDROOT
BRANCH   1   5
HETATM    5  C   UNL     1      -4.926   4.862 -31.681  1.00  0.00     0.082 C 
HETATM    6  C   UNL     1      -6.331   4.678 -31.678  1.00  0.00     0.069 C 
HETATM    7  C   UNL     1      -7.377   5.603 -31.166  1.00  0.00     0.073 C 
HETATM    8  N   UNL     1      -6.688   3.523 -32.235  1.00  0.00    -0.171 NA
HETATM    9  N   UNL     1      -5.528   2.893 -32.544  1.00  0.00    -0.237 N 
HETATM   10  C   UNL     1      -4.431   3.727 -32.323  1.00  0.00     0.050 C 
HETATM   11  C   UNL     1      -3.058   3.454 -32.828  1.00  0.00     0.071 C 
BRANCH   9  12
HETATM   12  C   UNL     1      -5.600   1.551 -33.036  1.00  0.00     0.058 A 
HETATM   13  C   UNL     1      -6.431   1.281 -34.140  1.00  0.00     0.033 A 
HETATM   14  C   UNL     1      -6.532  -0.011 -34.661  1.00  0.00     0.021 A 
HETATM   15  C   UNL     1      -5.819  -1.048 -34.069  1.00  0.00     0.011 A 
HETATM   16 BR   UNL     1      -5.953  -2.800 -34.766  1.00  0.00    -0.051 Br
HETATM   17  C   UNL     1      -5.013  -0.804 -32.959  1.00  0.00     0.021 A 
HETATM   18  C   UNL     1      -4.906   0.493 -32.439  1.00  0.00     0.033 A 
ENDBRANCH   9  12
ENDBRANCH   1   5
BRANCH   2  19
HETATM   19  C   UNL     1      -3.041   8.114 -31.813  1.00  0.00     0.159 C 
BRANCH  19  20
HETATM   20  C   UNL     1      -1.608   7.941 -32.343  1.00  0.00     0.169 C 
BRANCH  20  21
HETATM   21  O   UNL     1      -1.652   7.408 -33.673  1.00  0.00    -0.389 OA
HETATM   22  H   UNL     1      -0.770   7.039 -33.860  1.00  0.00     0.210 HD
ENDBRANCH  20  21
BRANCH  20  23
HETATM   23  C   UNL     1      -0.778   7.043 -31.448  1.00  0.00    -0.028 A 
HETATM   24  C   UNL     1      -0.466   7.446 -30.139  1.00  0.00     0.013 A 
HETATM   25  C   UNL     1       0.270   6.610 -29.297  1.00  0.00     0.043 A 
HETATM   26  C   UNL     1       0.693   5.370 -29.759  1.00  0.00     0.116 A 
HETATM   27  F   UNL     1       1.393   4.567 -28.947  1.00  0.00    -0.206 F 
HETATM   28  C   UNL     1       0.398   4.951 -31.050  1.00  0.00     0.043 A 
HETATM   29  C   UNL     1      -0.334   5.786 -31.895  1.00  0.00     0.013 A 
ENDBRANCH  20  23
ENDBRANCH  19  20
ENDBRANCH   2  19
TORSDOF 6
ENDMDL
MODEL 3
REMARK VINA RESULT:      -8.1      6.351      8.738
REMARK  6 active torsions:
REMARK  status: ('A' for Active; 'I' for Inactive)
REMARK    1  A    between atoms: N_4  and  C_5 
REMARK    2  A    between atoms: C_14  and  C_15 
REMARK       I    between atoms: C_15  and  N_16 
REMARK    3  A    between atoms: N_16  and  C_17 
REMARK    4  A    between atoms: C_17  and  C_18 
REMARK    5  A    between atoms: C_18  and  O_19 
REMARK    6  A    between atoms: C_18  and  C_20 
ROOT
HETATM    1  C   UNL     1      -5.687   0.873 -31.890  1.00  0.00     0.255 C 
HETATM    2  N   UNL     1      -5.412  -0.456 -31.655  1.00  0.00    -0.354 N 
HETATM    3  O   UNL     1      -4.800   1.710 -32.023  1.00  0.00    -0.268 OA
HETATM    4  H   UNL     1      -6.148  -1.042 -31.284  1.00  0.00     0.162 HD
ENDROOT
BRANCH   1   5
HETATM    5  C   UNL     1      -7.100   1.234 -31.931  1.00  0.00     0.082 C 
HETATM    6  C   UNL     1      -7.741   2.141 -31.050  1.00  0.00     0.069 C 
HETATM    7  C   UNL     1      -7.149   2.877 -29.902  1.00  0.00     0.073 C 
HETATM    8  N   UNL     1      -9.023   2.322 -31.361  1.00  0.00    -0.171 NA
HETATM    9  N   UNL     1      -9.269   1.485 -32.398  1.00  0.00    -0.237 N 
HETATM   10  C   UNL     1      -8.092   0.884 -32.848  1.00  0.00     0.050 C 
HETATM   11  C   UNL     1      -7.967   0.149 -34.136  1.00  0.00     0.071 C 
BRANCH   9  12
HETATM   12  C   UNL     1     -10.618   1.361 -32.859  1.00  0.00     0.058 A 
HETATM   13  C   UNL     1     -11.151   0.072 -33.048  1.00  0.00     0.033 A 
HETATM   14  C   UNL     1     -12.464  -0.102 -33.491  1.00  0.00     0.021 A 
HETATM   15  C   UNL     1     -13.249   1.011 -33.769  1.00  0.00     0.011 A 
HETATM   16 BR   UNL     1     -15.026   0.784 -34.373  1.00  0.00    -0.051 Br
HETATM   17  C   UNL     1     -12.729   2.295 -33.615  1.00  0.00     0.021 A 
HETATM   18  C   UNL     1     -11.414   2.472 -33.165  1.00  0.00     0.033 A 
ENDBRANCH   9  12
ENDBRANCH   1   5
BRANCH   2  19
HETATM   19  C   UNL     1      -4.047  -0.902 -31.423  1.00  0.00     0.159 C 
BRANCH  19  20
HETATM   20  C   UNL     1      -3.356  -1.334 -32.727  1.00  0.00     0.169 C 
BRANCH  20  21
HETATM   21  O   UNL     1      -3.176  -0.190 -33.573  1.00  0.00    -0.389 OA
HETATM   22  H   UNL     1      -2.937  -0.526 -34.456  1.00  0.00     0.210 HD
ENDBRANCH  20  21
BRANCH  20  23
HETATM   23  C   UNL     1      -4.142  -2.404 -33.457  1.00  0.00    -0.028 A 
HETATM   24  C   UNL     1      -5.210  -2.045 -34.297  1.00  0.00     0.013 A 
HETATM   25  C   UNL     1      -5.919  -3.022 -34.998  1.00  0.00     0.043 A 
HETATM   26  C   UNL     1      -5.562  -4.358 -34.865  1.00  0.00     0.116 A 
HETATM   27  F   UNL     1      -6.239  -5.293 -35.544  1.00  0.00    -0.206 F 
HETATM   28  C   UNL     1      -4.511  -4.737 -34.038  1.00  0.00     0.043 A 
HETATM   29  C   UNL     1      -3.803  -3.763 -33.333  1.00  0.00     0.013 A 
ENDBRANCH  20  23
ENDBRANCH  19  20
ENDBRANCH   2  19
TORSDOF 6
ENDMDL
MODEL 4
REMARK VINA RESULT:      -8.0      4.937      9.387
REMARK  6 active torsions:
REMARK  status: ('A' for Active; 'I' for Inactive)
REMARK    1  A    between atoms: N_4  and  C_5 
REMARK    2  A    between atoms: C_14  and  C_15 
REMARK       I    between atoms: C_15  and  N_16 
REMARK    3  A    between atoms: N_16  and  C_17 
REMARK    4  A    between atoms: C_17  and  C_18 
REMARK    5  A    between atoms: C_18  and  O_19 
REMARK    6  A    between atoms: C_18  and  C_20 
ROOT
HETATM    1  C   UNL     1      -3.354   3.329 -32.364  1.00  0.00     0.255 C 
HETATM    2  N   UNL     1      -3.081   4.207 -33.389  1.00  0.00    -0.354 N 
HETATM    3  O   UNL     1      -2.630   3.230 -31.378  1.00  0.00    -0.268 OA
HETATM    4  H   UNL     1      -3.533   4.062 -34.282  1.00  0.00     0.162 HD
ENDROOT
BRANCH   1   5
HETATM    5  C   UNL     1      -4.536   2.493 -32.539  1.00  0.00     0.082 C 
HETATM    6  C   UNL     1      -4.535   1.078 -32.616  1.00  0.00     0.069 C 
HETATM    7  C   UNL     1      -3.368   0.157 -32.573  1.00  0.00     0.073 C 
HETATM    8  N   UNL     1      -5.766   0.579 -32.718  1.00  0.00    -0.171 NA
HETATM    9  N   UNL     1      -6.590   1.653 -32.787  1.00  0.00    -0.237 N 
HETATM   10  C   UNL     1      -5.887   2.839 -32.570  1.00  0.00     0.050 C 
HETATM   11  C   UNL     1      -6.529   4.153 -32.292  1.00  0.00     0.071 C 
BRANCH   9  12
HETATM   12  C   UNL     1      -7.978   1.421 -33.044  1.00  0.00     0.058 A 
HETATM   13  C   UNL     1      -8.623   0.367 -32.369  1.00  0.00     0.033 A 
HETATM   14  C   UNL     1      -9.978   0.104 -32.582  1.00  0.00     0.021 A 
HETATM   15  C   UNL     1     -10.695   0.878 -33.487  1.00  0.00     0.011 A 
HETATM   16 BR   UNL     1     -12.529   0.525 -33.782  1.00  0.00    -0.051 Br
HETATM   17  C   UNL     1     -10.067   1.907 -34.185  1.00  0.00     0.021 A 
HETATM   18  C   UNL     1      -8.709   2.178 -33.969  1.00  0.00     0.033 A 
ENDBRANCH   9  12
ENDBRANCH   1   5
BRANCH   2  19
HETATM   19  C   UNL     1      -1.840   4.968 -33.405  1.00  0.00     0.159 C 
BRANCH  19  20
HETATM   20  C   UNL     1      -2.067   6.443 -33.033  1.00  0.00     0.169 C 
BRANCH  20  21
HETATM   21  O   UNL     1      -1.691   7.276 -34.138  1.00  0.00    -0.389 OA
HETATM   22  H   UNL     1      -2.503   7.451 -34.649  1.00  0.00     0.210 HD
ENDBRANCH  20  21
BRANCH  20  23
HETATM   23  C   UNL     1      -1.292   6.840 -31.793  1.00  0.00    -0.028 A 
HETATM   24  C   UNL     1      -1.855   7.734 -30.867  1.00  0.00     0.013 A 
HETATM   25  C   UNL     1      -1.161   8.080 -29.705  1.00  0.00     0.043 A 
HETATM   26  C   UNL     1       0.094   7.532 -29.465  1.00  0.00     0.116 A 
HETATM   27  F   UNL     1       0.753   7.860 -28.347  1.00  0.00    -0.206 F 
HETATM   28  C   UNL     1       0.671   6.648 -30.368  1.00  0.00     0.043 A 
HETATM   29  C   UNL     1      -0.019   6.303 -31.532  1.00  0.00     0.013 A 
ENDBRANCH  20  23
ENDBRANCH  19  20
ENDBRANCH   2  19
TORSDOF 6
ENDMDL
MODEL 5
REMARK VINA RESULT:      -7.8      1.185      1.954
REMARK  6 active torsions:
REMARK  status: ('A' for Active; 'I' for Inactive)
REMARK    1  A    between atoms: N_4  and  C_5 
REMARK    2  A    between atoms: C_14  and  C_15 
REMARK       I    between atoms: C_15  and  N_16 
REMARK    3  A    between atoms: N_16  and  C_17 
REMARK    4  A    between atoms: C_17  and  C_18 
REMARK    5  A    between atoms: C_18  and  O_19 
REMARK    6  A    between atoms: C_18  and  C_20 
ROOT
HETATM    1  C   UNL     1      -5.262   4.358 -33.421  1.00  0.00     0.255 C 
HETATM    2  N   UNL     1      -5.760   3.106 -33.138  1.00  0.00    -0.354 N 
HETATM    3  O   UNL     1      -5.328   4.848 -34.544  1.00  0.00    -0.268 OA
HETATM    4  H   UNL     1      -5.445   2.640 -32.297  1.00  0.00     0.162 HD
ENDROOT
BRANCH   1   5
HETATM    5  C   UNL     1      -4.612   5.051 -32.315  1.00  0.00     0.082 C 
HETATM    6  C   UNL     1      -5.278   5.648 -31.216  1.00  0.00     0.069 C 
HETATM    7  C   UNL     1      -6.742   5.732 -30.966  1.00  0.00     0.073 C 
HETATM    8  N   UNL     1      -4.427   6.158 -30.328  1.00  0.00    -0.171 NA
HETATM    9  N   UNL     1      -3.193   5.976 -30.860  1.00  0.00    -0.237 N 
HETATM   10  C   UNL     1      -3.256   5.205 -32.021  1.00  0.00     0.050 C 
HETATM   11  C   UNL     1      -2.074   4.584 -32.678  1.00  0.00     0.071 C 
BRANCH   9  12
HETATM   12  C   UNL     1      -2.075   6.558 -30.182  1.00  0.00     0.058 A 
HETATM   13  C   UNL     1      -2.231   7.824 -29.587  1.00  0.00     0.033 A 
HETATM   14  C   UNL     1      -1.170   8.431 -28.909  1.00  0.00     0.021 A 
HETATM   15  C   UNL     1       0.060   7.788 -28.840  1.00  0.00     0.011 A 
HETATM   16 BR   UNL     1       1.500   8.605 -27.928  1.00  0.00    -0.051 Br
HETATM   17  C   UNL     1       0.240   6.547 -29.447  1.00  0.00     0.021 A 
HETATM   18  C   UNL     1      -0.823   5.932 -30.122  1.00  0.00     0.033 A 
ENDBRANCH   9  12
ENDBRANCH   1   5
BRANCH   2  19
HETATM   19  C   UNL     1      -6.276   2.253 -34.199  1.00  0.00     0.159 C 
BRANCH  19  20
HETATM   20  C   UNL     1      -6.981   1.006 -33.641  1.00  0.00     0.169 C 
BRANCH  20  21
HETATM   21  O   UNL     1      -7.204   1.174 -32.234  1.00  0.00    -0.389 OA
HETATM   22  H   UNL     1      -6.902   0.355 -31.801  1.00  0.00     0.210 HD
ENDBRANCH  20  21
BRANCH  20  23
HETATM   23  C   UNL     1      -6.185  -0.257 -33.897  1.00  0.00    -0.028 A 
HETATM   24  C   UNL     1      -4.915  -0.418 -33.318  1.00  0.00     0.013 A 
HETATM   25  C   UNL     1      -4.188  -1.594 -33.522  1.00  0.00     0.043 A 
HETATM   26  C   UNL     1      -4.729  -2.609 -34.301  1.00  0.00     0.116 A 
HETATM   27  F   UNL     1      -4.033  -3.737 -34.489  1.00  0.00    -0.206 F 
HETATM   28  C   UNL     1      -5.982  -2.471 -34.885  1.00  0.00     0.043 A 
HETATM   29  C   UNL     1      -6.709  -1.296 -34.686  1.00  0.00     0.013 A 
ENDBRANCH  20  23
ENDBRANCH  19  20
ENDBRANCH   2  19
TORSDOF 6
ENDMDL
MODEL 6
REMARK VINA RESULT:      -7.8      1.491      2.189
REMARK  6 active torsions:
REMARK  status: ('A' for Active; 'I' for Inactive)
REMARK    1  A    between atoms: N_4  and  C_5 
REMARK    2  A    between atoms: C_14  and  C_15 
REMARK       I    between atoms: C_15  and  N_16 
REMARK    3  A    between atoms: N_16  and  C_17 
REMARK    4  A    between atoms: C_17  and  C_18 
REMARK    5  A    between atoms: C_18  and  O_19 
REMARK    6  A    between atoms: C_18  and  C_20 
ROOT
HETATM    1  C   UNL     1      -4.590   5.029 -31.749  1.00  0.00     0.255 C 
HETATM    2  N   UNL     1      -4.864   3.715 -31.440  1.00  0.00    -0.354 N 
HETATM    3  O   UNL     1      -5.352   5.714 -32.425  1.00  0.00    -0.268 OA
HETATM    4  H   UNL     1      -4.105   3.124 -31.131  1.00  0.00     0.162 HD
ENDROOT
BRANCH   1   5
HETATM    5  C   UNL     1      -3.317   5.547 -31.260  1.00  0.00     0.082 C 
HETATM    6  C   UNL     1      -2.086   5.492 -31.959  1.00  0.00     0.069 C 
HETATM    7  C   UNL     1      -1.812   4.884 -33.288  1.00  0.00     0.073 C 
HETATM    8  N   UNL     1      -1.103   6.095 -31.294  1.00  0.00    -0.171 NA
HETATM    9  N   UNL     1      -1.647   6.489 -30.117  1.00  0.00    -0.237 N 
HETATM   10  C   UNL     1      -3.025   6.271 -30.103  1.00  0.00     0.050 C 
HETATM   11  C   UNL     1      -3.955   6.851 -29.095  1.00  0.00     0.071 C 
BRANCH   9  12
HETATM   12  C   UNL     1      -0.779   7.050 -29.127  1.00  0.00     0.058 A 
HETATM   13  C   UNL     1       0.087   6.191 -28.423  1.00  0.00     0.033 A 
HETATM   14  C   UNL     1       0.957   6.691 -27.451  1.00  0.00     0.021 A 
HETATM   15  C   UNL     1       0.954   8.051 -27.160  1.00  0.00     0.011 A 
HETATM   16 BR   UNL     1       2.126   8.734 -25.844  1.00  0.00    -0.051 Br
HETATM   17  C   UNL     1       0.085   8.911 -27.827  1.00  0.00     0.021 A 
HETATM   18  C   UNL     1      -0.785   8.413 -28.806  1.00  0.00     0.033 A 
ENDBRANCH   9  12
ENDBRANCH   1   5
BRANCH   2  19
HETATM   19  C   UNL     1      -6.019   3.042 -32.017  1.00  0.00     0.159 C 
BRANCH  19  20
HETATM   20  C   UNL     1      -5.784   2.660 -33.488  1.00  0.00     0.169 C 
BRANCH  20  21
HETATM   21  O   UNL     1      -6.519   3.553 -34.335  1.00  0.00    -0.389 OA
HETATM   22  H   UNL     1      -7.455   3.488 -34.071  1.00  0.00     0.210 HD
ENDBRANCH  20  21
BRANCH  20  23
HETATM   23  C   UNL     1      -6.183   1.226 -33.771  1.00  0.00    -0.028 A 
HETATM   24  C   UNL     1      -7.069   0.935 -34.822  1.00  0.00     0.013 A 
HETATM   25  C   UNL     1      -7.416  -0.386 -35.111  1.00  0.00     0.043 A 
HETATM   26  C   UNL     1      -6.878  -1.419 -34.353  1.00  0.00     0.116 A 
HETATM   27  F   UNL     1      -7.207  -2.685 -34.637  1.00  0.00    -0.206 F 
HETATM   28  C   UNL     1      -6.002  -1.155 -33.308  1.00  0.00     0.043 A 
HETATM   29  C   UNL     1      -5.655   0.165 -33.014  1.00  0.00     0.013 A 
ENDBRANCH  20  23
ENDBRANCH  19  20
ENDBRANCH   2  19
TORSDOF 6
ENDMDL
MODEL 7
REMARK VINA RESULT:      -7.7      5.559      8.161
REMARK  6 active torsions:
REMARK  status: ('A' for Active; 'I' for Inactive)
REMARK    1  A    between atoms: N_4  and  C_5 
REMARK    2  A    between atoms: C_14  and  C_15 
REMARK       I    between atoms: C_15  and  N_16 
REMARK    3  A    between atoms: N_16  and  C_17 
REMARK    4  A    between atoms: C_17  and  C_18 
REMARK    5  A    between atoms: C_18  and  O_19 
REMARK    6  A    between atoms: C_18  and  C_20 
ROOT
HETATM    1  C   UNL     1      -5.590   2.555 -31.934  1.00  0.00     0.255 C 
HETATM    2  N   UNL     1      -4.744   1.772 -32.688  1.00  0.00    -0.354 N 
HETATM    3  O   UNL     1      -5.246   3.043 -30.862  1.00  0.00    -0.268 OA
HETATM    4  H   UNL     1      -5.145   1.179 -33.402  1.00  0.00     0.162 HD
ENDROOT
BRANCH   1   5
HETATM    5  C   UNL     1      -6.936   2.735 -32.466  1.00  0.00     0.082 C 
HETATM    6  C   UNL     1      -7.358   3.814 -33.282  1.00  0.00     0.069 C 
HETATM    7  C   UNL     1      -6.563   4.985 -33.738  1.00  0.00     0.073 C 
HETATM    8  N   UNL     1      -8.626   3.687 -33.667  1.00  0.00    -0.171 NA
HETATM    9  N   UNL     1      -9.084   2.569 -33.052  1.00  0.00    -0.237 N 
HETATM   10  C   UNL     1      -8.050   1.898 -32.398  1.00  0.00     0.050 C 
HETATM   11  C   UNL     1      -8.152   0.506 -31.880  1.00  0.00     0.071 C 
BRANCH   9  12
HETATM   12  C   UNL     1     -10.475   2.256 -33.172  1.00  0.00     0.058 A 
HETATM   13  C   UNL     1     -11.420   3.209 -32.746  1.00  0.00     0.033 A 
HETATM   14  C   UNL     1     -12.790   2.953 -32.847  1.00  0.00     0.021 A 
HETATM   15  C   UNL     1     -13.226   1.734 -33.354  1.00  0.00     0.011 A 
HETATM   16 BR   UNL     1     -15.078   1.379 -33.490  1.00  0.00    -0.051 Br
HETATM   17  C   UNL     1     -12.305   0.768 -33.754  1.00  0.00     0.021 A 
HETATM   18  C   UNL     1     -10.930   1.025 -33.660  1.00  0.00     0.033 A 
ENDBRANCH   9  12
ENDBRANCH   1   5
BRANCH   2  19
HETATM   19  C   UNL     1      -3.438   1.383 -32.177  1.00  0.00     0.159 C 
BRANCH  19  20
HETATM   20  C   UNL     1      -3.494   0.044 -31.424  1.00  0.00     0.169 C 
BRANCH  20  21
HETATM   21  O   UNL     1      -2.214  -0.226 -30.837  1.00  0.00    -0.389 OA
HETATM   22  H   UNL     1      -1.620  -0.492 -31.563  1.00  0.00     0.210 HD
ENDBRANCH  20  21
BRANCH  20  23
HETATM   23  C   UNL     1      -3.904  -1.099 -32.330  1.00  0.00    -0.028 A 
HETATM   24  C   UNL     1      -4.886  -0.900 -33.315  1.00  0.00     0.013 A 
HETATM   25  C   UNL     1      -5.246  -1.939 -34.176  1.00  0.00     0.043 A 
HETATM   26  C   UNL     1      -4.626  -3.176 -34.057  1.00  0.00     0.116 A 
HETATM   27  F   UNL     1      -4.968  -4.168 -34.889  1.00  0.00    -0.206 F 
HETATM   28  C   UNL     1      -3.654  -3.397 -33.089  1.00  0.00     0.043 A 
HETATM   29  C   UNL     1      -3.294  -2.362 -32.225  1.00  0.00     0.013 A 
ENDBRANCH  20  23
ENDBRANCH  19  20
ENDBRANCH   2  19
TORSDOF 6
ENDMDL
MODEL 8
REMARK VINA RESULT:      -7.7      4.591      8.989
REMARK  6 active torsions:
REMARK  status: ('A' for Active; 'I' for Inactive)
REMARK    1  A    between atoms: N_4  and  C_5 
REMARK    2  A    between atoms: C_14  and  C_15 
REMARK       I    between atoms: C_15  and  N_16 
REMARK    3  A    between atoms: N_16  and  C_17 
REMARK    4  A    between atoms: C_17  and  C_18 
REMARK    5  A    between atoms: C_18  and  O_19 
REMARK    6  A    between atoms: C_18  and  C_20 
ROOT
HETATM    1  C   UNL     1      -6.105   4.279 -30.779  1.00  0.00     0.255 C 
HETATM    2  N   UNL     1      -4.974   5.060 -30.697  1.00  0.00    -0.354 N 
HETATM    3  O   UNL     1      -7.048   4.411 -30.005  1.00  0.00    -0.268 OA
HETATM    4  H   UNL     1      -4.133   4.741 -31.160  1.00  0.00     0.162 HD
ENDROOT
BRANCH   1   5
HETATM    5  C   UNL     1      -6.099   3.254 -31.817  1.00  0.00     0.082 C 
HETATM    6  C   UNL     1      -6.178   3.498 -33.211  1.00  0.00     0.069 C 
HETATM    7  C   UNL     1      -6.317   4.804 -33.907  1.00  0.00     0.073 C 
HETATM    8  N   UNL     1      -6.092   2.376 -33.923  1.00  0.00    -0.171 NA
HETATM    9  N   UNL     1      -6.031   1.371 -33.015  1.00  0.00    -0.237 N 
HETATM   10  C   UNL     1      -5.921   1.873 -31.718  1.00  0.00     0.050 C 
HETATM   11  C   UNL     1      -5.545   1.055 -30.533  1.00  0.00     0.071 C 
BRANCH   9  12
HETATM   12  C   UNL     1      -6.073   0.024 -33.498  1.00  0.00     0.058 A 
HETATM   13  C   UNL     1      -4.866  -0.694 -33.598  1.00  0.00     0.033 A 
HETATM   14  C   UNL     1      -4.854  -2.013 -34.058  1.00  0.00     0.021 A 
HETATM   15  C   UNL     1      -6.046  -2.618 -34.441  1.00  0.00     0.011 A 
HETATM   16 BR   UNL     1      -6.037  -4.401 -35.068  1.00  0.00    -0.051 Br
HETATM   17  C   UNL     1      -7.246  -1.913 -34.375  1.00  0.00     0.021 A 
HETATM   18  C   UNL     1      -7.261  -0.592 -33.908  1.00  0.00     0.033 A 
ENDBRANCH   9  12
ENDBRANCH   1   5
BRANCH   2  19
HETATM   19  C   UNL     1      -4.796   5.996 -29.597  1.00  0.00     0.159 C 
BRANCH  19  20
HETATM   20  C   UNL     1      -4.223   7.341 -30.076  1.00  0.00     0.169 C 
BRANCH  20  21
HETATM   21  O   UNL     1      -4.995   7.819 -31.186  1.00  0.00    -0.389 OA
HETATM   22  H   UNL     1      -4.425   7.760 -31.974  1.00  0.00     0.210 HD
ENDBRANCH  20  21
BRANCH  20  23
HETATM   23  C   UNL     1      -2.763   7.228 -30.466  1.00  0.00    -0.028 A 
HETATM   24  C   UNL     1      -2.374   7.417 -31.803  1.00  0.00     0.013 A 
HETATM   25  C   UNL     1      -1.027   7.347 -32.165  1.00  0.00     0.043 A 
HETATM   26  C   UNL     1      -0.067   7.091 -31.193  1.00  0.00     0.116 A 
HETATM   27  F   UNL     1       1.224   7.032 -31.542  1.00  0.00    -0.206 F 
HETATM   28  C   UNL     1      -0.429   6.899 -29.866  1.00  0.00     0.043 A 
HETATM   29  C   UNL     1      -1.775   6.965 -29.501  1.00  0.00     0.013 A 
ENDBRANCH  20  23
ENDBRANCH  19  20
ENDBRANCH   2  19
TORSDOF 6
ENDMDL
MODEL 9
REMARK VINA RESULT:      -7.7      1.529      1.961
REMARK  6 active torsions:
REMARK  status: ('A' for Active; 'I' for Inactive)
REMARK    1  A    between atoms: N_4  and  C_5 
REMARK    2  A    between atoms: C_14  and  C_15 
REMARK       I    between atoms: C_15  and  N_16 
REMARK    3  A    between atoms: N_16  and  C_17 
REMARK    4  A    between atoms: C_17  and  C_18 
REMARK    5  A    between atoms: C_18  and  O_19 
REMARK    6  A    between atoms: C_18  and  C_20 
ROOT
HETATM    1  C   UNL     1      -5.812   4.466 -33.416  1.00  0.00     0.255 C 
HETATM    2  N   UNL     1      -5.783   3.211 -32.850  1.00  0.00    -0.354 N 
HETATM    3  O   UNL     1      -6.612   4.768 -34.296  1.00  0.00    -0.268 OA
HETATM    4  H   UNL     1      -4.954   2.929 -32.345  1.00  0.00     0.162 HD
ENDROOT
BRANCH   1   5
HETATM    5  C   UNL     1      -4.805   5.406 -32.936  1.00  0.00     0.082 C 
HETATM    6  C   UNL     1      -3.653   5.811 -33.655  1.00  0.00     0.069 C 
HETATM    7  C   UNL     1      -3.205   5.361 -34.999  1.00  0.00     0.073 C 
HETATM    8  N   UNL     1      -2.943   6.723 -32.993  1.00  0.00    -0.171 NA
HETATM    9  N   UNL     1      -3.568   6.877 -31.801  1.00  0.00    -0.237 N 
HETATM   10  C   UNL     1      -4.772   6.172 -31.771  1.00  0.00     0.050 C 
HETATM   11  C   UNL     1      -5.827   6.361 -30.738  1.00  0.00     0.071 C 
BRANCH   9  12
HETATM   12  C   UNL     1      -2.942   7.703 -30.814  1.00  0.00     0.058 A 
HETATM   13  C   UNL     1      -2.297   7.085 -29.726  1.00  0.00     0.033 A 
HETATM   14  C   UNL     1      -1.667   7.848 -28.740  1.00  0.00     0.021 A 
HETATM   15  C   UNL     1      -1.696   9.235 -28.821  1.00  0.00     0.011 A 
HETATM   16 BR   UNL     1      -0.849  10.274 -27.487  1.00  0.00    -0.051 Br
HETATM   17  C   UNL     1      -2.354   9.865 -29.875  1.00  0.00     0.021 A 
HETATM   18  C   UNL     1      -2.981   9.102 -30.869  1.00  0.00     0.033 A 
ENDBRANCH   9  12
ENDBRANCH   1   5
BRANCH   2  19
HETATM   19  C   UNL     1      -6.625   2.143 -33.368  1.00  0.00     0.159 C 
BRANCH  19  20
HETATM   20  C   UNL     1      -6.594   0.899 -32.464  1.00  0.00     0.169 C 
BRANCH  20  21
HETATM   21  O   UNL     1      -5.663   1.110 -31.394  1.00  0.00    -0.389 OA
HETATM   22  H   UNL     1      -4.815   0.722 -31.677  1.00  0.00     0.210 HD
ENDBRANCH  20  21
BRANCH  20  23
HETATM   23  C   UNL     1      -6.229  -0.353 -33.235  1.00  0.00    -0.028 A 
HETATM   24  C   UNL     1      -4.902  -0.816 -33.238  1.00  0.00     0.013 A 
HETATM   25  C   UNL     1      -4.563  -1.988 -33.919  1.00  0.00     0.043 A 
HETATM   26  C   UNL     1      -5.547  -2.699 -34.594  1.00  0.00     0.116 A 
HETATM   27  F   UNL     1      -5.220  -3.825 -35.240  1.00  0.00    -0.206 F 
HETATM   28  C   UNL     1      -6.865  -2.258 -34.607  1.00  0.00     0.043 A 
HETATM   29  C   UNL     1      -7.206  -1.086 -33.930  1.00  0.00     0.013 A 
ENDBRANCH  20  23
ENDBRANCH  19  20
ENDBRANCH   2  19
TORSDOF 6
ENDMDL
MODEL 10
REMARK VINA RESULT:      -7.6      1.811      2.964
REMARK  6 active torsions:
REMARK  status: ('A' for Active; 'I' for Inactive)
REMARK    1  A    between atoms: N_4  and  C_5 
REMARK    2  A    between atoms: C_14  and  C_15 
REMARK       I    between atoms: C_15  and  N_16 
REMARK    3  A    between atoms: N_16  and  C_17 
REMARK    4  A    between atoms: C_17  and  C_18 
REMARK    5  A    between atoms: C_18  and  O_19 
REMARK    6  A    between atoms: C_18  and  C_20 
ROOT
HETATM    1  C   UNL     1      -2.384   5.007 -31.935  1.00  0.00     0.255 C 
HETATM    2  N   UNL     1      -3.350   4.049 -31.722  1.00  0.00    -0.354 N 
HETATM    3  O   UNL     1      -1.840   5.155 -33.025  1.00  0.00    -0.268 OA
HETATM    4  H   UNL     1      -3.563   3.783 -30.770  1.00  0.00     0.162 HD
ENDROOT
BRANCH   1   5
HETATM    5  C   UNL     1      -2.015   5.811 -30.775  1.00  0.00     0.082 C 
HETATM    6  C   UNL     1      -2.856   6.749 -30.126  1.00  0.00     0.069 C 
HETATM    7  C   UNL     1      -4.244   7.141 -30.488  1.00  0.00     0.073 C 
HETATM    8  N   UNL     1      -2.273   7.292 -29.059  1.00  0.00    -0.171 NA
HETATM    9  N   UNL     1      -1.018   6.783 -29.030  1.00  0.00    -0.237 N 
HETATM   10  C   UNL     1      -0.857   5.789 -29.997  1.00  0.00     0.050 C 
HETATM   11  C   UNL     1       0.288   4.839 -30.039  1.00  0.00     0.071 C 
BRANCH   9  12
HETATM   12  C   UNL     1      -0.103   7.300 -28.058  1.00  0.00     0.058 A 
HETATM   13  C   UNL     1       0.869   8.229 -28.475  1.00  0.00     0.033 A 
HETATM   14  C   UNL     1       1.782   8.767 -27.563  1.00  0.00     0.021 A 
HETATM   15  C   UNL     1       1.743   8.364 -26.233  1.00  0.00     0.011 A 
HETATM   16 BR   UNL     1       2.977   9.084 -24.995  1.00  0.00    -0.051 Br
HETATM   17  C   UNL     1       0.806   7.424 -25.809  1.00  0.00     0.021 A 
HETATM   18  C   UNL     1      -0.114   6.888 -26.720  1.00  0.00     0.033 A 
ENDBRANCH   9  12
ENDBRANCH   1   5
BRANCH   2  19
HETATM   19  C   UNL     1      -3.675   3.079 -32.756  1.00  0.00     0.159 C 
BRANCH  19  20
HETATM   20  C   UNL     1      -5.159   2.678 -32.720  1.00  0.00     0.169 C 
BRANCH  20  21
HETATM   21  O   UNL     1      -5.658   2.818 -31.383  1.00  0.00    -0.389 OA
HETATM   22  H   UNL     1      -6.495   2.320 -31.340  1.00  0.00     0.210 HD
ENDBRANCH  20  21
BRANCH  20  23
HETATM   23  C   UNL     1      -5.375   1.261 -33.212  1.00  0.00    -0.028 A 
HETATM   24  C   UNL     1      -6.381   0.988 -34.155  1.00  0.00     0.013 A 
HETATM   25  C   UNL     1      -6.565  -0.309 -34.638  1.00  0.00     0.043 A 
HETATM   26  C   UNL     1      -5.745  -1.334 -34.183  1.00  0.00     0.116 A 
HETATM   27  F   UNL     1      -5.919  -2.576 -34.654  1.00  0.00    -0.206 F 
HETATM   28  C   UNL     1      -4.746  -1.089 -33.250  1.00  0.00     0.043 A 
HETATM   29  C   UNL     1      -4.561   0.206 -32.762  1.00  0.00     0.013 A 
ENDBRANCH  20  23
ENDBRANCH  19  20
ENDBRANCH   2  19
TORSDOF 6
ENDMDL
