MODEL 1
REMARK VINA RESULT:      -9.3      0.000      0.000
REMARK  7 active torsions:
REMARK  status: ('A' for Active; 'I' for Inactive)
REMARK    1  A    between atoms: C_7  and  C_8 
REMARK    2  A    between atoms: C_8  and  C_9 
REMARK    3  A    between atoms: C_9  and  C_10 
REMARK    4  A    between atoms: C_10  and  O_11 
REMARK    5  A    between atoms: C_13  and  C_14 
REMARK    6  A    between atoms: C_21  and  C_22 
REMARK       I    between atoms: C_22  and  N_23 
REMARK    7  A    between atoms: N_23  and  C_24 
ROOT
HETATM    1  C   UNL     1      -5.329   3.081 -29.696  1.00  0.00     0.070 C 
HETATM    2  C   UNL     1      -5.936   2.306 -30.840  1.00  0.00     0.037 C 
HETATM    3  N   UNL     1      -7.235   1.838 -30.625  1.00  0.00    -0.192 N 
HETATM    4  C   UNL     1      -8.016   1.401 -31.634  1.00  0.00     0.726 A 
HETATM    5  N   UNL     1      -7.441   1.121 -32.840  1.00  0.00    -0.083 N 
HETATM    6  N   UNL     1      -8.362   0.812 -33.774  1.00  0.00    -0.140 NA
HETATM    7  C   UNL     1      -9.487   0.894 -33.046  1.00  0.00     0.166 A 
HETATM    8  N   UNL     1      -9.312   1.239 -31.724  1.00  0.00    -0.046 NA
HETATM    9  C   UNL     1      -6.009   1.237 -33.105  1.00  0.00     0.202 C 
HETATM   10  C   UNL     1      -5.315   2.068 -32.027  1.00  0.00     0.062 C 
HETATM   11  H   UNL     1      -7.704   2.179 -29.788  1.00  0.00     0.184 HD
ENDROOT
BRANCH  10  12
HETATM   12  C   UNL     1      -4.063   2.801 -32.402  1.00  0.00     0.256 C 
HETATM   13  N   UNL     1      -4.265   3.986 -33.076  1.00  0.00    -0.323 N 
HETATM   14  H   UNL     1      -5.200   4.215 -33.384  1.00  0.00     0.169 HD
HETATM   15  O   UNL     1      -2.978   2.358 -32.040  1.00  0.00    -0.267 OA
BRANCH  13  16
HETATM   16  C   UNL     1      -3.295   4.966 -33.388  1.00  0.00     0.035 A 
HETATM   17  C   UNL     1      -2.286   4.800 -34.338  1.00  0.00     0.029 A 
HETATM   18  C   UNL     1      -1.348   5.814 -34.564  1.00  0.00     0.002 A 
HETATM   19  C   UNL     1      -1.406   6.999 -33.834  1.00  0.00     0.000 A 
HETATM   20  C   UNL     1      -2.408   7.176 -32.885  1.00  0.00     0.002 A 
HETATM   21  C   UNL     1      -3.352   6.168 -32.668  1.00  0.00     0.029 A 
ENDBRANCH  13  16
ENDBRANCH  10  12
BRANCH   9  22
HETATM   22  C   UNL     1      -5.423  -0.170 -33.265  1.00  0.00    -0.028 A 
HETATM   23  C   UNL     1      -5.867  -0.993 -34.315  1.00  0.00     0.011 A 
HETATM   24  C   UNL     1      -5.351  -2.280 -34.480  1.00  0.00     0.019 A 
HETATM   25  C   UNL     1      -4.391  -2.761 -33.593  1.00  0.00     0.011 A 
HETATM   26 BR   UNL     1      -3.694  -4.503 -33.817  1.00  0.00    -0.051 Br
HETATM   27  C   UNL     1      -3.948  -1.970 -32.538  1.00  0.00     0.019 A 
HETATM   28  C   UNL     1      -4.467  -0.684 -32.368  1.00  0.00     0.011 A 
ENDBRANCH   9  22
BRANCH   7  29
HETATM   29  C   UNL     1     -10.831   0.685 -33.640  1.00  0.00     0.085 C 
BRANCH  29  30
HETATM   30  C   UNL     1     -11.333   1.892 -34.431  1.00  0.00     0.034 C 
BRANCH  30  31
HETATM   31  C   UNL     1     -12.533   1.575 -35.317  1.00  0.00     0.164 C 
BRANCH  31  32
HETATM   32  O   UNL     1     -12.343   2.153 -36.605  1.00  0.00    -0.401 OA
HETATM   33  H   UNL     1     -13.222   2.352 -36.970  1.00  0.00     0.209 HD
ENDBRANCH  31  32
ENDBRANCH  30  31
ENDBRANCH  29  30
ENDBRANCH   7  29
TORSDOF 7
ENDMDL
MODEL 2
REMARK VINA RESULT:      -8.9      3.614      7.980
REMARK  7 active torsions:
REMARK  status: ('A' for Active; 'I' for Inactive)
REMARK    1  A    between atoms: C_7  and  C_8 
REMARK    2  A    between atoms: C_8  and  C_9 
REMARK    3  A    between atoms: C_9  and  C_10 
REMARK    4  A    between atoms: C_10  and  O_11 
REMARK    5  A    between atoms: C_13  and  C_14 
REMARK    6  A    between atoms: C_21  and  C_22 
REMARK       I    between atoms: C_22  and  N_23 
REMARK    7  A    between atoms: N_23  and  C_24 
ROOT
HETATM    1  C   UNL     1      -3.597  -0.005 -30.853  1.00  0.00     0.070 C 
HETATM    2  C   UNL     1      -4.073   1.200 -31.626  1.00  0.00     0.037 C 
HETATM    3  N   UNL     1      -3.304   2.356 -31.469  1.00  0.00    -0.192 N 
HETATM    4  C   UNL     1      -3.412   3.409 -32.306  1.00  0.00     0.726 A 
HETATM    5  N   UNL     1      -4.492   3.483 -33.137  1.00  0.00    -0.083 N 
HETATM    6  N   UNL     1      -4.396   4.522 -33.990  1.00  0.00    -0.140 NA
HETATM    7  C   UNL     1      -3.233   5.060 -33.592  1.00  0.00     0.166 A 
HETATM    8  N   UNL     1      -2.607   4.411 -32.551  1.00  0.00    -0.046 NA
HETATM    9  C   UNL     1      -5.571   2.498 -33.159  1.00  0.00     0.202 C 
HETATM   10  C   UNL     1      -5.156   1.210 -32.451  1.00  0.00     0.062 C 
HETATM   11  H   UNL     1      -2.423   2.247 -30.970  1.00  0.00     0.184 HD
ENDROOT
BRANCH  10  12
HETATM   12  C   UNL     1      -5.813  -0.069 -32.874  1.00  0.00     0.256 C 
HETATM   13  N   UNL     1      -5.071  -0.842 -33.742  1.00  0.00    -0.323 N 
HETATM   14  H   UNL     1      -4.223  -0.456 -34.131  1.00  0.00     0.169 HD
HETATM   15  O   UNL     1      -6.897  -0.374 -32.390  1.00  0.00    -0.267 OA
BRANCH  13  16
HETATM   16  C   UNL     1      -5.351  -2.163 -34.159  1.00  0.00     0.035 A 
HETATM   17  C   UNL     1      -6.572  -2.579 -34.692  1.00  0.00     0.029 A 
HETATM   18  C   UNL     1      -6.773  -3.916 -35.052  1.00  0.00     0.002 A 
HETATM   19  C   UNL     1      -5.756  -4.850 -34.874  1.00  0.00     0.000 A 
HETATM   20  C   UNL     1      -4.534  -4.449 -34.344  1.00  0.00     0.002 A 
HETATM   21  C   UNL     1      -4.330  -3.111 -33.996  1.00  0.00     0.029 A 
ENDBRANCH  13  16
ENDBRANCH  10  12
BRANCH   9  22
HETATM   22  C   UNL     1      -6.833   3.139 -32.571  1.00  0.00    -0.028 A 
HETATM   23  C   UNL     1      -7.029   3.139 -31.178  1.00  0.00     0.011 A 
HETATM   24  C   UNL     1      -8.171   3.714 -30.618  1.00  0.00     0.019 A 
HETATM   25  C   UNL     1      -9.134   4.290 -31.444  1.00  0.00     0.011 A 
HETATM   26 BR   UNL     1     -10.679   5.068 -30.686  1.00  0.00    -0.051 Br
HETATM   27  C   UNL     1      -8.967   4.289 -32.826  1.00  0.00     0.019 A 
HETATM   28  C   UNL     1      -7.827   3.710 -33.388  1.00  0.00     0.011 A 
ENDBRANCH   9  22
BRANCH   7  29
HETATM   29  C   UNL     1      -2.633   6.238 -34.268  1.00  0.00     0.085 C 
BRANCH  29  30
HETATM   30  C   UNL     1      -1.156   6.435 -33.932  1.00  0.00     0.034 C 
BRANCH  30  31
HETATM   31  C   UNL     1      -0.928   7.338 -32.724  1.00  0.00     0.164 C 
BRANCH  31  32
HETATM   32  O   UNL     1      -1.769   8.484 -32.817  1.00  0.00    -0.401 OA
HETATM   33  H   UNL     1      -2.315   8.513 -32.013  1.00  0.00     0.209 HD
ENDBRANCH  31  32
ENDBRANCH  30  31
ENDBRANCH  29  30
ENDBRANCH   7  29
TORSDOF 7
ENDMDL
MODEL 3
REMARK VINA RESULT:      -8.7      2.190      2.618
REMARK  7 active torsions:
REMARK  status: ('A' for Active; 'I' for Inactive)
REMARK    1  A    between atoms: C_7  and  C_8 
REMARK    2  A    between atoms: C_8  and  C_9 
REMARK    3  A    between atoms: C_9  and  C_10 
REMARK    4  A    between atoms: C_10  and  O_11 
REMARK    5  A    between atoms: C_13  and  C_14 
REMARK    6  A    between atoms: C_21  and  C_22 
REMARK       I    between atoms: C_22  and  N_23 
REMARK    7  A    between atoms: N_23  and  C_24 
ROOT
HETATM    1  C   UNL     1      -7.872   4.573 -30.271  1.00  0.00     0.070 C 
HETATM    2  C   UNL     1      -8.287   3.779 -31.485  1.00  0.00     0.037 C 
HETATM    3  N   UNL     1      -9.560   3.205 -31.420  1.00  0.00    -0.192 N 
HETATM    4  C   UNL     1     -10.189   2.730 -32.515  1.00  0.00     0.726 A 
HETATM    5  N   UNL     1      -9.467   2.525 -33.654  1.00  0.00    -0.083 N 
HETATM    6  N   UNL     1     -10.253   2.165 -34.688  1.00  0.00    -0.140 NA
HETATM    7  C   UNL     1     -11.453   2.141 -34.086  1.00  0.00     0.166 A 
HETATM    8  N   UNL     1     -11.450   2.469 -32.749  1.00  0.00    -0.046 NA
HETATM    9  C   UNL     1      -8.028   2.760 -33.759  1.00  0.00     0.202 C 
HETATM   10  C   UNL     1      -7.524   3.618 -32.600  1.00  0.00     0.062 C 
HETATM   11  H   UNL     1     -10.143   3.488 -30.635  1.00  0.00     0.184 HD
ENDROOT
BRANCH  10  12
HETATM   12  C   UNL     1      -6.303   4.457 -32.825  1.00  0.00     0.256 C 
HETATM   13  N   UNL     1      -5.120   3.882 -32.412  1.00  0.00    -0.323 N 
HETATM   14  H   UNL     1      -5.158   3.022 -31.882  1.00  0.00     0.169 HD
HETATM   15  O   UNL     1      -6.414   5.533 -33.402  1.00  0.00    -0.267 OA
BRANCH  13  16
HETATM   16  C   UNL     1      -3.811   4.352 -32.660  1.00  0.00     0.035 A 
HETATM   17  C   UNL     1      -3.315   4.672 -33.926  1.00  0.00     0.029 A 
HETATM   18  C   UNL     1      -1.994   5.104 -34.084  1.00  0.00     0.002 A 
HETATM   19  C   UNL     1      -1.154   5.210 -32.979  1.00  0.00     0.000 A 
HETATM   20  C   UNL     1      -1.636   4.895 -31.713  1.00  0.00     0.002 A 
HETATM   21  C   UNL     1      -2.959   4.475 -31.553  1.00  0.00     0.029 A 
ENDBRANCH  13  16
ENDBRANCH  10  12
BRANCH   9  22
HETATM   22  C   UNL     1      -7.316   1.408 -33.874  1.00  0.00    -0.028 A 
HETATM   23  C   UNL     1      -7.322   0.720 -35.100  1.00  0.00     0.011 A 
HETATM   24  C   UNL     1      -6.684  -0.515 -35.230  1.00  0.00     0.019 A 
HETATM   25  C   UNL     1      -6.037  -1.079 -34.132  1.00  0.00     0.011 A 
HETATM   26 BR   UNL     1      -5.173  -2.750 -34.307  1.00  0.00    -0.051 Br
HETATM   27  C   UNL     1      -6.031  -0.423 -32.905  1.00  0.00     0.019 A 
HETATM   28  C   UNL     1      -6.673   0.810 -32.773  1.00  0.00     0.011 A 
ENDBRANCH   9  22
BRANCH   7  29
HETATM   29  C   UNL     1     -12.704   1.840 -34.827  1.00  0.00     0.085 C 
BRANCH  29  30
HETATM   30  C   UNL     1     -13.455   0.632 -34.271  1.00  0.00     0.034 C 
BRANCH  30  31
HETATM   31  C   UNL     1     -14.923   0.921 -33.973  1.00  0.00     0.164 C 
BRANCH  31  32
HETATM   32  O   UNL     1     -15.736   0.401 -35.021  1.00  0.00    -0.401 OA
HETATM   33  H   UNL     1     -15.346   0.686 -35.864  1.00  0.00     0.209 HD
ENDBRANCH  31  32
ENDBRANCH  30  31
ENDBRANCH  29  30
ENDBRANCH   7  29
TORSDOF 7
ENDMDL
MODEL 4
REMARK VINA RESULT:      -8.6      3.261      7.149
REMARK  7 active torsions:
REMARK  status: ('A' for Active; 'I' for Inactive)
REMARK    1  A    between atoms: C_7  and  C_8 
REMARK    2  A    between atoms: C_8  and  C_9 
REMARK    3  A    between atoms: C_9  and  C_10 
REMARK    4  A    between atoms: C_10  and  O_11 
REMARK    5  A    between atoms: C_13  and  C_14 
REMARK    6  A    between atoms: C_21  and  C_22 
REMARK       I    between atoms: C_22  and  N_23 
REMARK    7  A    between atoms: N_23  and  C_24 
ROOT
HETATM    1  C   UNL     1      -9.681   2.370 -32.855  1.00  0.00     0.070 C 
HETATM    2  C   UNL     1      -8.532   2.987 -32.095  1.00  0.00     0.037 C 
HETATM    3  N   UNL     1      -8.778   4.255 -31.562  1.00  0.00    -0.192 N 
HETATM    4  C   UNL     1      -7.983   4.804 -30.621  1.00  0.00     0.726 A 
HETATM    5  N   UNL     1      -6.753   4.258 -30.396  1.00  0.00    -0.083 N 
HETATM    6  N   UNL     1      -6.131   4.838 -29.351  1.00  0.00    -0.140 NA
HETATM    7  C   UNL     1      -7.041   5.763 -29.006  1.00  0.00     0.166 A 
HETATM    8  N   UNL     1      -8.185   5.781 -29.773  1.00  0.00    -0.046 NA
HETATM    9  C   UNL     1      -6.220   3.118 -31.140  1.00  0.00     0.202 C 
HETATM   10  C   UNL     1      -7.328   2.386 -31.894  1.00  0.00     0.062 C 
HETATM   11  H   UNL     1      -9.740   4.585 -31.608  1.00  0.00     0.184 HD
ENDROOT
BRANCH  10  12
HETATM   12  C   UNL     1      -7.138   0.928 -32.183  1.00  0.00     0.256 C 
HETATM   13  N   UNL     1      -6.510   0.650 -33.378  1.00  0.00    -0.323 N 
HETATM   14  H   UNL     1      -6.343   1.408 -34.025  1.00  0.00     0.169 HD
HETATM   15  O   UNL     1      -7.475   0.102 -31.341  1.00  0.00    -0.267 OA
BRANCH  13  16
HETATM   16  C   UNL     1      -6.039  -0.606 -33.823  1.00  0.00     0.035 A 
HETATM   17  C   UNL     1      -6.806  -1.526 -34.539  1.00  0.00     0.029 A 
HETATM   18  C   UNL     1      -6.267  -2.761 -34.915  1.00  0.00     0.002 A 
HETATM   19  C   UNL     1      -4.959  -3.090 -34.570  1.00  0.00     0.000 A 
HETATM   20  C   UNL     1      -4.184  -2.181 -33.856  1.00  0.00     0.002 A 
HETATM   21  C   UNL     1      -4.718  -0.943 -33.491  1.00  0.00     0.029 A 
ENDBRANCH  13  16
ENDBRANCH  10  12
BRANCH   9  22
HETATM   22  C   UNL     1      -5.086   3.610 -32.045  1.00  0.00    -0.028 A 
HETATM   23  C   UNL     1      -5.384   4.422 -33.154  1.00  0.00     0.011 A 
HETATM   24  C   UNL     1      -4.369   4.881 -33.996  1.00  0.00     0.019 A 
HETATM   25  C   UNL     1      -3.045   4.528 -33.743  1.00  0.00     0.011 A 
HETATM   26 BR   UNL     1      -1.672   5.149 -34.883  1.00  0.00    -0.051 Br
HETATM   27  C   UNL     1      -2.729   3.714 -32.660  1.00  0.00     0.019 A 
HETATM   28  C   UNL     1      -3.744   3.250 -31.820  1.00  0.00     0.011 A 
ENDBRANCH   9  22
BRANCH   7  29
HETATM   29  C   UNL     1      -6.853   6.663 -27.841  1.00  0.00     0.085 C 
BRANCH  29  30
HETATM   30  C   UNL     1      -5.441   7.239 -27.748  1.00  0.00     0.034 C 
BRANCH  30  31
HETATM   31  C   UNL     1      -4.564   6.522 -26.726  1.00  0.00     0.164 C 
BRANCH  31  32
HETATM   32  O   UNL     1      -4.981   5.166 -26.606  1.00  0.00    -0.401 OA
HETATM   33  H   UNL     1      -5.662   5.128 -25.915  1.00  0.00     0.209 HD
ENDBRANCH  31  32
ENDBRANCH  30  31
ENDBRANCH  29  30
ENDBRANCH   7  29
TORSDOF 7
ENDMDL
MODEL 5
REMARK VINA RESULT:      -8.4      2.518      7.881
REMARK  7 active torsions:
REMARK  status: ('A' for Active; 'I' for Inactive)
REMARK    1  A    between atoms: C_7  and  C_8 
REMARK    2  A    between atoms: C_8  and  C_9 
REMARK    3  A    between atoms: C_9  and  C_10 
REMARK    4  A    between atoms: C_10  and  O_11 
REMARK    5  A    between atoms: C_13  and  C_14 
REMARK    6  A    between atoms: C_21  and  C_22 
REMARK       I    between atoms: C_22  and  N_23 
REMARK    7  A    between atoms: N_23  and  C_24 
ROOT
HETATM    1  C   UNL     1      -9.535   5.214 -34.828  1.00  0.00     0.070 C 
HETATM    2  C   UNL     1      -8.485   4.496 -34.016  1.00  0.00     0.037 C 
HETATM    3  N   UNL     1      -7.204   5.051 -34.068  1.00  0.00    -0.192 N 
HETATM    4  C   UNL     1      -6.242   4.719 -33.182  1.00  0.00     0.726 A 
HETATM    5  N   UNL     1      -6.413   3.609 -32.407  1.00  0.00    -0.083 N 
HETATM    6  N   UNL     1      -5.429   3.479 -31.495  1.00  0.00    -0.140 NA
HETATM    7  C   UNL     1      -4.670   4.542 -31.800  1.00  0.00     0.166 A 
HETATM    8  N   UNL     1      -5.130   5.319 -32.840  1.00  0.00    -0.046 NA
HETATM    9  C   UNL     1      -7.573   2.724 -32.497  1.00  0.00     0.202 C 
HETATM   10  C   UNL     1      -8.720   3.395 -33.251  1.00  0.00     0.062 C 
HETATM   11  H   UNL     1      -7.123   5.957 -34.525  1.00  0.00     0.184 HD
ENDROOT
BRANCH  10  12
HETATM   12  C   UNL     1     -10.119   2.962 -32.934  1.00  0.00     0.256 C 
HETATM   13  N   UNL     1     -10.737   2.228 -33.924  1.00  0.00    -0.323 N 
HETATM   14  H   UNL     1     -10.281   2.144 -34.821  1.00  0.00     0.169 HD
HETATM   15  O   UNL     1     -10.588   3.215 -31.830  1.00  0.00    -0.267 OA
BRANCH  13  16
HETATM   16  C   UNL     1     -11.968   1.540 -33.832  1.00  0.00     0.035 A 
HETATM   17  C   UNL     1     -12.089   0.171 -33.589  1.00  0.00     0.029 A 
HETATM   18  C   UNL     1     -13.349  -0.435 -33.544  1.00  0.00     0.002 A 
HETATM   19  C   UNL     1     -14.499   0.322 -33.751  1.00  0.00     0.000 A 
HETATM   20  C   UNL     1     -14.392   1.687 -33.993  1.00  0.00     0.002 A 
HETATM   21  C   UNL     1     -13.134   2.295 -34.027  1.00  0.00     0.029 A 
ENDBRANCH  13  16
ENDBRANCH  10  12
BRANCH   9  22
HETATM   22  C   UNL     1      -7.130   1.394 -33.115  1.00  0.00    -0.028 A 
HETATM   23  C   UNL     1      -6.628   0.375 -32.286  1.00  0.00     0.011 A 
HETATM   24  C   UNL     1      -6.214  -0.845 -32.826  1.00  0.00     0.019 A 
HETATM   25  C   UNL     1      -6.293  -1.058 -34.200  1.00  0.00     0.011 A 
HETATM   26 BR   UNL     1      -5.734  -2.708 -34.929  1.00  0.00    -0.051 Br
HETATM   27  C   UNL     1      -6.774  -0.058 -35.041  1.00  0.00     0.019 A 
HETATM   28  C   UNL     1      -7.182   1.165 -34.503  1.00  0.00     0.011 A 
ENDBRANCH   9  22
BRANCH   7  29
HETATM   29  C   UNL     1      -3.450   4.891 -31.030  1.00  0.00     0.085 C 
BRANCH  29  30
HETATM   30  C   UNL     1      -2.156   4.541 -31.762  1.00  0.00     0.034 C 
BRANCH  30  31
HETATM   31  C   UNL     1      -0.924   5.210 -31.161  1.00  0.00     0.164 C 
BRANCH  31  32
HETATM   32  O   UNL     1      -0.361   4.367 -30.160  1.00  0.00    -0.401 OA
HETATM   33  H   UNL     1       0.606   4.425 -30.237  1.00  0.00     0.209 HD
ENDBRANCH  31  32
ENDBRANCH  30  31
ENDBRANCH  29  30
ENDBRANCH   7  29
TORSDOF 7
ENDMDL
MODEL 6
REMARK VINA RESULT:      -8.3      3.302      7.870
REMARK  7 active torsions:
REMARK  status: ('A' for Active; 'I' for Inactive)
REMARK    1  A    between atoms: C_7  and  C_8 
REMARK    2  A    between atoms: C_8  and  C_9 
REMARK    3  A    between atoms: C_9  and  C_10 
REMARK    4  A    between atoms: C_10  and  O_11 
REMARK    5  A    between atoms: C_13  and  C_14 
REMARK    6  A    between atoms: C_21  and  C_22 
REMARK       I    between atoms: C_22  and  N_23 
REMARK    7  A    between atoms: N_23  and  C_24 
ROOT
HETATM    1  C   UNL     1      -5.899   0.513 -29.731  1.00  0.00     0.070 C 
HETATM    2  C   UNL     1      -5.685   1.550 -30.807  1.00  0.00     0.037 C 
HETATM    3  N   UNL     1      -5.029   2.713 -30.396  1.00  0.00    -0.192 N 
HETATM    4  C   UNL     1      -4.502   3.588 -31.277  1.00  0.00     0.726 A 
HETATM    5  N   UNL     1      -4.868   3.505 -32.589  1.00  0.00    -0.083 N 
HETATM    6  N   UNL     1      -4.170   4.363 -33.359  1.00  0.00    -0.140 NA
HETATM    7  C   UNL     1      -3.412   4.965 -32.430  1.00  0.00     0.166 A 
HETATM    8  N   UNL     1      -3.598   4.525 -31.138  1.00  0.00    -0.046 NA
HETATM    9  C   UNL     1      -5.832   2.535 -33.105  1.00  0.00     0.202 C 
HETATM   10  C   UNL     1      -6.065   1.404 -32.105  1.00  0.00     0.062 C 
HETATM   11  H   UNL     1      -4.631   2.700 -29.459  1.00  0.00     0.184 HD
ENDROOT
BRANCH  10  12
HETATM   12  C   UNL     1      -6.488   0.069 -32.639  1.00  0.00     0.256 C 
HETATM   13  N   UNL     1      -5.562  -0.551 -33.450  1.00  0.00    -0.323 N 
HETATM   14  H   UNL     1      -4.743  -0.032 -33.735  1.00  0.00     0.169 HD
HETATM   15  O   UNL     1      -7.560  -0.406 -32.281  1.00  0.00    -0.267 OA
BRANCH  13  16
HETATM   16  C   UNL     1      -5.608  -1.876 -33.940  1.00  0.00     0.035 A 
HETATM   17  C   UNL     1      -6.740  -2.468 -34.503  1.00  0.00     0.029 A 
HETATM   18  C   UNL     1      -6.705  -3.798 -34.936  1.00  0.00     0.002 A 
HETATM   19  C   UNL     1      -5.541  -4.550 -34.801  1.00  0.00     0.000 A 
HETATM   20  C   UNL     1      -4.406  -3.971 -34.242  1.00  0.00     0.002 A 
HETATM   21  C   UNL     1      -4.437  -2.639 -33.820  1.00  0.00     0.029 A 
ENDBRANCH  13  16
ENDBRANCH  10  12
BRANCH   9  22
HETATM   22  C   UNL     1      -7.114   3.278 -33.497  1.00  0.00    -0.028 A 
HETATM   23  C   UNL     1      -8.248   2.547 -33.892  1.00  0.00     0.011 A 
HETATM   24  C   UNL     1      -9.427   3.200 -34.257  1.00  0.00     0.019 A 
HETATM   25  C   UNL     1      -9.484   4.592 -34.237  1.00  0.00     0.011 A 
HETATM   26 BR   UNL     1     -11.079   5.475 -34.730  1.00  0.00    -0.051 Br
HETATM   27  C   UNL     1      -8.369   5.336 -33.863  1.00  0.00     0.019 A 
HETATM   28  C   UNL     1      -7.187   4.684 -33.503  1.00  0.00     0.011 A 
ENDBRANCH   9  22
BRANCH   7  29
HETATM   29  C   UNL     1      -2.398   5.992 -32.779  1.00  0.00     0.085 C 
BRANCH  29  30
HETATM   30  C   UNL     1      -0.967   5.460 -32.746  1.00  0.00     0.034 C 
BRANCH  30  31
HETATM   31  C   UNL     1      -0.289   5.638 -31.391  1.00  0.00     0.164 C 
BRANCH  31  32
HETATM   32  O   UNL     1      -0.613   4.538 -30.545  1.00  0.00    -0.401 OA
HETATM   33  H   UNL     1      -0.385   4.790 -29.635  1.00  0.00     0.209 HD
ENDBRANCH  31  32
ENDBRANCH  30  31
ENDBRANCH  29  30
ENDBRANCH   7  29
TORSDOF 7
ENDMDL
MODEL 7
REMARK VINA RESULT:      -8.2      3.790      7.062
REMARK  7 active torsions:
REMARK  status: ('A' for Active; 'I' for Inactive)
REMARK    1  A    between atoms: C_7  and  C_8 
REMARK    2  A    between atoms: C_8  and  C_9 
REMARK    3  A    between atoms: C_9  and  C_10 
REMARK    4  A    between atoms: C_10  and  O_11 
REMARK    5  A    between atoms: C_13  and  C_14 
REMARK    6  A    between atoms: C_21  and  C_22 
REMARK       I    between atoms: C_22  and  N_23 
REMARK    7  A    between atoms: N_23  and  C_24 
ROOT
HETATM    1  C   UNL     1      -9.812   1.494 -32.967  1.00  0.00     0.070 C 
HETATM    2  C   UNL     1      -8.829   2.338 -32.194  1.00  0.00     0.037 C 
HETATM    3  N   UNL     1      -9.302   3.588 -31.787  1.00  0.00    -0.192 N 
HETATM    4  C   UNL     1      -8.670   4.324 -30.849  1.00  0.00     0.726 A 
HETATM    5  N   UNL     1      -7.391   3.996 -30.505  1.00  0.00    -0.083 N 
HETATM    6  N   UNL     1      -6.942   4.743 -29.477  1.00  0.00    -0.140 NA
HETATM    7  C   UNL     1      -8.004   5.536 -29.267  1.00  0.00     0.166 A 
HETATM    8  N   UNL     1      -9.079   5.317 -30.100  1.00  0.00    -0.046 NA
HETATM    9  C   UNL     1      -6.639   2.902 -31.116  1.00  0.00     0.202 C 
HETATM   10  C   UNL     1      -7.565   1.951 -31.871  1.00  0.00     0.062 C 
HETATM   11  H   UNL     1     -10.297   3.758 -31.918  1.00  0.00     0.184 HD
ENDROOT
BRANCH  10  12
HETATM   12  C   UNL     1      -7.135   0.523 -32.023  1.00  0.00     0.256 C 
HETATM   13  N   UNL     1      -6.866   0.133 -33.317  1.00  0.00    -0.323 N 
HETATM   14  H   UNL     1      -7.094   0.766 -34.072  1.00  0.00     0.169 HD
HETATM   15  O   UNL     1      -6.986  -0.167 -31.021  1.00  0.00    -0.267 OA
BRANCH  13  16
HETATM   16  C   UNL     1      -6.274  -1.079 -33.738  1.00  0.00     0.035 A 
HETATM   17  C   UNL     1      -4.901  -1.333 -33.720  1.00  0.00     0.029 A 
HETATM   18  C   UNL     1      -4.398  -2.554 -34.183  1.00  0.00     0.002 A 
HETATM   19  C   UNL     1      -5.262  -3.527 -34.676  1.00  0.00     0.000 A 
HETATM   20  C   UNL     1      -6.632  -3.287 -34.699  1.00  0.00     0.002 A 
HETATM   21  C   UNL     1      -7.136  -2.072 -34.225  1.00  0.00     0.029 A 
ENDBRANCH  13  16
ENDBRANCH  10  12
BRANCH   9  22
HETATM   22  C   UNL     1      -5.530   3.497 -31.990  1.00  0.00    -0.028 A 
HETATM   23  C   UNL     1      -4.183   3.263 -31.660  1.00  0.00     0.011 A 
HETATM   24  C   UNL     1      -3.154   3.797 -32.439  1.00  0.00     0.019 A 
HETATM   25  C   UNL     1      -3.460   4.576 -33.553  1.00  0.00     0.011 A 
HETATM   26 BR   UNL     1      -2.068   5.298 -34.607  1.00  0.00    -0.051 Br
HETATM   27  C   UNL     1      -4.786   4.832 -33.890  1.00  0.00     0.019 A 
HETATM   28  C   UNL     1      -5.816   4.303 -33.109  1.00  0.00     0.011 A 
ENDBRANCH   9  22
BRANCH   7  29
HETATM   29  C   UNL     1      -8.041   6.539 -28.174  1.00  0.00     0.085 C 
BRANCH  29  30
HETATM   30  C   UNL     1      -9.092   7.626 -28.390  1.00  0.00     0.034 C 
BRANCH  30  31
HETATM   31  C   UNL     1      -9.824   8.018 -27.110  1.00  0.00     0.164 C 
BRANCH  31  32
HETATM   32  O   UNL     1      -8.955   8.779 -26.276  1.00  0.00    -0.401 OA
HETATM   33  H   UNL     1      -8.045   8.622 -26.579  1.00  0.00     0.209 HD
ENDBRANCH  31  32
ENDBRANCH  30  31
ENDBRANCH  29  30
ENDBRANCH   7  29
TORSDOF 7
ENDMDL
MODEL 8
REMARK VINA RESULT:      -8.0      4.653      7.271
REMARK  7 active torsions:
REMARK  status: ('A' for Active; 'I' for Inactive)
REMARK    1  A    between atoms: C_7  and  C_8 
REMARK    2  A    between atoms: C_8  and  C_9 
REMARK    3  A    between atoms: C_9  and  C_10 
REMARK    4  A    between atoms: C_10  and  O_11 
REMARK    5  A    between atoms: C_13  and  C_14 
REMARK    6  A    between atoms: C_21  and  C_22 
REMARK       I    between atoms: C_22  and  N_23 
REMARK    7  A    between atoms: N_23  and  C_24 
ROOT
HETATM    1  C   UNL     1      -0.840   5.619 -32.855  1.00  0.00     0.070 C 
HETATM    2  C   UNL     1      -2.054   4.954 -32.255  1.00  0.00     0.037 C 
HETATM    3  N   UNL     1      -2.488   3.796 -32.907  1.00  0.00    -0.192 N 
HETATM    4  C   UNL     1      -3.353   2.933 -32.336  1.00  0.00     0.726 A 
HETATM    5  N   UNL     1      -4.054   3.332 -31.235  1.00  0.00    -0.083 N 
HETATM    6  N   UNL     1      -4.781   2.325 -30.713  1.00  0.00    -0.140 NA
HETATM    7  C   UNL     1      -4.494   1.340 -31.578  1.00  0.00     0.166 A 
HETATM    8  N   UNL     1      -3.631   1.680 -32.596  1.00  0.00    -0.046 NA
HETATM    9  C   UNL     1      -3.951   4.665 -30.644  1.00  0.00     0.202 C 
HETATM   10  C   UNL     1      -2.707   5.395 -31.146  1.00  0.00     0.062 C 
HETATM   11  H   UNL     1      -1.872   3.429 -33.630  1.00  0.00     0.184 HD
ENDROOT
BRANCH  10  12
HETATM   12  C   UNL     1      -2.099   6.439 -30.259  1.00  0.00     0.256 C 
HETATM   13  N   UNL     1      -1.146   5.970 -29.381  1.00  0.00    -0.323 N 
HETATM   14  H   UNL     1      -1.014   4.972 -29.295  1.00  0.00     0.169 HD
HETATM   15  O   UNL     1      -2.421   7.613 -30.408  1.00  0.00    -0.267 OA
BRANCH  13  16
HETATM   16  C   UNL     1      -0.285   6.739 -28.565  1.00  0.00     0.035 A 
HETATM   17  C   UNL     1       0.574   7.731 -29.042  1.00  0.00     0.029 A 
HETATM   18  C   UNL     1       1.415   8.425 -28.166  1.00  0.00     0.002 A 
HETATM   19  C   UNL     1       1.411   8.127 -26.806  1.00  0.00     0.000 A 
HETATM   20  C   UNL     1       0.558   7.142 -26.317  1.00  0.00     0.002 A 
HETATM   21  C   UNL     1      -0.290   6.457 -27.191  1.00  0.00     0.029 A 
ENDBRANCH  13  16
ENDBRANCH  10  12
BRANCH   9  22
HETATM   22  C   UNL     1      -5.255   5.423 -30.912  1.00  0.00    -0.028 A 
HETATM   23  C   UNL     1      -6.202   5.565 -29.882  1.00  0.00     0.011 A 
HETATM   24  C   UNL     1      -7.399   6.249 -30.102  1.00  0.00     0.019 A 
HETATM   25  C   UNL     1      -7.667   6.793 -31.357  1.00  0.00     0.011 A 
HETATM   26 BR   UNL     1      -9.287   7.718 -31.654  1.00  0.00    -0.051 Br
HETATM   27  C   UNL     1      -6.750   6.652 -32.395  1.00  0.00     0.019 A 
HETATM   28  C   UNL     1      -5.555   5.964 -32.177  1.00  0.00     0.011 A 
ENDBRANCH   9  22
BRANCH   7  29
HETATM   29  C   UNL     1      -5.022  -0.037 -31.413  1.00  0.00     0.085 C 
BRANCH  29  30
HETATM   30  C   UNL     1      -4.491  -1.014 -32.461  1.00  0.00     0.034 C 
BRANCH  30  31
HETATM   31  C   UNL     1      -3.378  -1.914 -31.936  1.00  0.00     0.164 C 
BRANCH  31  32
HETATM   32  O   UNL     1      -2.255  -1.120 -31.565  1.00  0.00    -0.401 OA
HETATM   33  H   UNL     1      -1.453  -1.605 -31.824  1.00  0.00     0.209 HD
ENDBRANCH  31  32
ENDBRANCH  30  31
ENDBRANCH  29  30
ENDBRANCH   7  29
TORSDOF 7
ENDMDL
MODEL 9
REMARK VINA RESULT:      -8.0      3.508      7.645
REMARK  7 active torsions:
REMARK  status: ('A' for Active; 'I' for Inactive)
REMARK    1  A    between atoms: C_7  and  C_8 
REMARK    2  A    between atoms: C_8  and  C_9 
REMARK    3  A    between atoms: C_9  and  C_10 
REMARK    4  A    between atoms: C_10  and  O_11 
REMARK    5  A    between atoms: C_13  and  C_14 
REMARK    6  A    between atoms: C_21  and  C_22 
REMARK       I    between atoms: C_22  and  N_23 
REMARK    7  A    between atoms: N_23  and  C_24 
ROOT
HETATM    1  C   UNL     1      -5.711   0.664 -29.439  1.00  0.00     0.070 C 
HETATM    2  C   UNL     1      -5.826   1.868 -30.342  1.00  0.00     0.037 C 
HETATM    3  N   UNL     1      -5.306   3.057 -29.825  1.00  0.00    -0.192 N 
HETATM    4  C   UNL     1      -5.061   4.131 -30.604  1.00  0.00     0.726 A 
HETATM    5  N   UNL     1      -5.603   4.176 -31.856  1.00  0.00    -0.083 N 
HETATM    6  N   UNL     1      -5.171   5.247 -32.550  1.00  0.00    -0.140 NA
HETATM    7  C   UNL     1      -4.386   5.834 -31.633  1.00  0.00     0.166 A 
HETATM    8  N   UNL     1      -4.305   5.184 -30.421  1.00  0.00    -0.046 NA
HETATM    9  C   UNL     1      -6.470   3.135 -32.405  1.00  0.00     0.202 C 
HETATM   10  C   UNL     1      -6.369   1.847 -31.589  1.00  0.00     0.062 C 
HETATM   11  H   UNL     1      -4.775   2.979 -28.960  1.00  0.00     0.184 HD
ENDROOT
BRANCH  10  12
HETATM   12  C   UNL     1      -6.653   0.550 -32.284  1.00  0.00     0.256 C 
HETATM   13  N   UNL     1      -5.586   0.016 -32.973  1.00  0.00    -0.323 N 
HETATM   14  H   UNL     1      -4.749   0.572 -33.078  1.00  0.00     0.169 HD
HETATM   15  O   UNL     1      -7.753   0.027 -32.147  1.00  0.00    -0.267 OA
BRANCH  13  16
HETATM   16  C   UNL     1      -5.506  -1.267 -33.561  1.00  0.00     0.035 A 
HETATM   17  C   UNL     1      -4.361  -2.066 -33.555  1.00  0.00     0.029 A 
HETATM   18  C   UNL     1      -4.362  -3.314 -34.188  1.00  0.00     0.002 A 
HETATM   19  C   UNL     1      -5.505  -3.770 -34.839  1.00  0.00     0.000 A 
HETATM   20  C   UNL     1      -6.652  -2.983 -34.851  1.00  0.00     0.002 A 
HETATM   21  C   UNL     1      -6.656  -1.742 -34.209  1.00  0.00     0.029 A 
ENDBRANCH  13  16
ENDBRANCH  10  12
BRANCH   9  22
HETATM   22  C   UNL     1      -7.896   3.686 -32.505  1.00  0.00    -0.028 A 
HETATM   23  C   UNL     1      -8.551   4.133 -31.344  1.00  0.00     0.011 A 
HETATM   24  C   UNL     1      -9.852   4.637 -31.408  1.00  0.00     0.019 A 
HETATM   25  C   UNL     1     -10.515   4.694 -32.632  1.00  0.00     0.011 A 
HETATM   26 BR   UNL     1     -12.275   5.375 -32.718  1.00  0.00    -0.051 Br
HETATM   27  C   UNL     1      -9.891   4.243 -33.791  1.00  0.00     0.019 A 
HETATM   28  C   UNL     1      -8.591   3.734 -33.728  1.00  0.00     0.011 A 
ENDBRANCH   9  22
BRANCH   7  29
HETATM   29  C   UNL     1      -3.610   7.065 -31.926  1.00  0.00     0.085 C 
BRANCH  29  30
HETATM   30  C   UNL     1      -2.163   6.782 -32.328  1.00  0.00     0.034 C 
BRANCH  30  31
HETATM   31  C   UNL     1      -1.816   7.288 -33.724  1.00  0.00     0.164 C 
BRANCH  31  32
HETATM   32  O   UNL     1      -2.652   6.651 -34.686  1.00  0.00    -0.401 OA
HETATM   33  H   UNL     1      -2.802   5.739 -34.386  1.00  0.00     0.209 HD
ENDBRANCH  31  32
ENDBRANCH  30  31
ENDBRANCH  29  30
ENDBRANCH   7  29
TORSDOF 7
ENDMDL
MODEL 10
REMARK VINA RESULT:      -7.9      4.041      6.950
REMARK  7 active torsions:
REMARK  status: ('A' for Active; 'I' for Inactive)
REMARK    1  A    between atoms: C_7  and  C_8 
REMARK    2  A    between atoms: C_8  and  C_9 
REMARK    3  A    between atoms: C_9  and  C_10 
REMARK    4  A    between atoms: C_10  and  O_11 
REMARK    5  A    between atoms: C_13  and  C_14 
REMARK    6  A    between atoms: C_21  and  C_22 
REMARK       I    between atoms: C_22  and  N_23 
REMARK    7  A    between atoms: N_23  and  C_24 
ROOT
HETATM    1  C   UNL     1      -6.042   0.456 -29.594  1.00  0.00     0.070 C 
HETATM    2  C   UNL     1      -6.707   1.576 -30.357  1.00  0.00     0.037 C 
HETATM    3  N   UNL     1      -7.212   2.617 -29.575  1.00  0.00    -0.192 N 
HETATM    4  C   UNL     1      -7.557   3.809 -30.104  1.00  0.00     0.726 A 
HETATM    5  N   UNL     1      -7.705   3.913 -31.457  1.00  0.00    -0.083 N 
HETATM    6  N   UNL     1      -7.931   5.185 -31.840  1.00  0.00    -0.140 NA
HETATM    7  C   UNL     1      -7.939   5.802 -30.648  1.00  0.00     0.166 A 
HETATM    8  N   UNL     1      -7.726   4.987 -29.559  1.00  0.00    -0.046 NA
HETATM    9  C   UNL     1      -7.542   2.792 -32.382  1.00  0.00     0.202 C 
HETATM   10  C   UNL     1      -6.815   1.628 -31.712  1.00  0.00     0.062 C 
HETATM   11  H   UNL     1      -6.964   2.601 -28.588  1.00  0.00     0.184 HD
ENDROOT
BRANCH  10  12
HETATM   12  C   UNL     1      -6.029   0.695 -32.584  1.00  0.00     0.256 C 
HETATM   13  N   UNL     1      -6.510  -0.596 -32.633  1.00  0.00    -0.323 N 
HETATM   14  H   UNL     1      -7.252  -0.861 -32.001  1.00  0.00     0.169 HD
HETATM   15  O   UNL     1      -5.085   1.134 -33.231  1.00  0.00    -0.267 OA
BRANCH  13  16
HETATM   16  C   UNL     1      -6.090  -1.630 -33.501  1.00  0.00     0.035 A 
HETATM   17  C   UNL     1      -6.945  -2.353 -34.334  1.00  0.00     0.029 A 
HETATM   18  C   UNL     1      -6.448  -3.383 -35.141  1.00  0.00     0.002 A 
HETATM   19  C   UNL     1      -5.093  -3.703 -35.114  1.00  0.00     0.000 A 
HETATM   20  C   UNL     1      -4.231  -2.989 -34.288  1.00  0.00     0.002 A 
HETATM   21  C   UNL     1      -4.725  -1.953 -33.491  1.00  0.00     0.029 A 
ENDBRANCH  13  16
ENDBRANCH  10  12
BRANCH   9  22
HETATM   22  C   UNL     1      -8.918   2.414 -32.941  1.00  0.00    -0.028 A 
HETATM   23  C   UNL     1      -9.539   1.227 -32.515  1.00  0.00     0.011 A 
HETATM   24  C   UNL     1     -10.791   0.859 -33.012  1.00  0.00     0.019 A 
HETATM   25  C   UNL     1     -11.433   1.670 -33.945  1.00  0.00     0.011 A 
HETATM   26 BR   UNL     1     -13.127   1.171 -34.618  1.00  0.00    -0.051 Br
HETATM   27  C   UNL     1     -10.830   2.842 -34.391  1.00  0.00     0.019 A 
HETATM   28  C   UNL     1      -9.575   3.209 -33.899  1.00  0.00     0.011 A 
ENDBRANCH   9  22
BRANCH   7  29
HETATM   29  C   UNL     1      -8.106   7.271 -30.519  1.00  0.00     0.085 C 
BRANCH  29  30
HETATM   30  C   UNL     1      -7.639   7.813 -29.169  1.00  0.00     0.034 C 
BRANCH  30  31
HETATM   31  C   UNL     1      -8.789   8.155 -28.227  1.00  0.00     0.164 C 
BRANCH  31  32
HETATM   32  O   UNL     1      -9.159   6.999 -27.483  1.00  0.00    -0.401 OA
HETATM   33  H   UNL     1      -8.692   7.036 -26.631  1.00  0.00     0.209 HD
ENDBRANCH  31  32
ENDBRANCH  30  31
ENDBRANCH  29  30
ENDBRANCH   7  29
TORSDOF 7
ENDMDL
