MODEL 1
REMARK VINA RESULT:      -8.6      0.000      0.000
REMARK  5 active torsions:
REMARK  status: ('A' for Active; 'I' for Inactive)
REMARK    1  A    between atoms: C_4  and  N_5 
REMARK       I    between atoms: N_5  and  C_6 
REMARK       I    between atoms: C_6  and  N_7 
REMARK    2  A    between atoms: N_7  and  C_8 
REMARK    3  A    between atoms: C_10  and  C_11 
REMARK       I    between atoms: C_11  and  N_12 
REMARK    4  A    between atoms: N_12  and  C_13 
REMARK    5  A    between atoms: C_13  and  C_14 
ROOT
HETATM    1  C   UNL     1      -5.725   2.647 -32.868  1.00  0.00     0.078 A 
HETATM    2  S   UNL     1      -4.168   3.148 -32.419  1.00  0.00    -0.067 SA
HETATM    3  C   UNL     1      -4.191   4.462 -33.528  1.00  0.00     0.074 A 
HETATM    4  C   UNL     1      -5.326   4.411 -34.320  1.00  0.00     0.027 A 
HETATM    5  C   UNL     1      -6.216   3.355 -33.937  1.00  0.00     0.039 A 
ENDROOT
BRANCH   1   6
HETATM    6  N   UNL     1      -6.196   1.615 -32.099  1.00  0.00    -0.303 N 
HETATM    7  C   UNL     1      -6.068   0.262 -32.253  1.00  0.00     0.325 C 
HETATM    8  N   UNL     1      -5.632  -0.186 -33.471  1.00  0.00    -0.309 N 
HETATM    9  O   UNL     1      -6.438  -0.447 -31.318  1.00  0.00    -0.247 OA
HETATM   10  H   UNL     1      -5.500   0.519 -34.176  1.00  0.00     0.170 HD
HETATM   11  H   UNL     1      -6.786   1.869 -31.314  1.00  0.00     0.171 HD
BRANCH   8  12
HETATM   12  C   UNL     1      -5.563  -1.517 -33.935  1.00  0.00     0.036 A 
HETATM   13  C   UNL     1      -4.399  -2.288 -33.940  1.00  0.00     0.029 A 
HETATM   14  C   UNL     1      -4.434  -3.621 -34.367  1.00  0.00     0.002 A 
HETATM   15  C   UNL     1      -5.628  -4.188 -34.807  1.00  0.00     0.000 A 
HETATM   16  C   UNL     1      -6.789  -3.424 -34.822  1.00  0.00     0.002 A 
HETATM   17  C   UNL     1      -6.758  -2.095 -34.385  1.00  0.00     0.029 A 
ENDBRANCH   8  12
ENDBRANCH   1   6
BRANCH   3  18
HETATM   18  C   UNL     1      -3.096   5.424 -33.485  1.00  0.00     0.258 C 
HETATM   19  N   UNL     1      -2.119   5.173 -32.541  1.00  0.00    -0.352 N 
HETATM   20  H   UNL     1      -2.274   4.478 -31.827  1.00  0.00     0.163 HD
HETATM   21  O   UNL     1      -3.012   6.392 -34.237  1.00  0.00    -0.267 OA
BRANCH  19  22
HETATM   22  C   UNL     1      -0.918   5.977 -32.463  1.00  0.00     0.162 C 
BRANCH  22  23
HETATM   23  C   UNL     1      -0.410   6.152 -31.061  1.00  0.00    -0.023 A 
HETATM   24  C   UNL     1       0.169   5.085 -30.379  1.00  0.00     0.125 A 
HETATM   25  N   UNL     1       0.702   5.168 -29.138  1.00  0.00    -0.273 NA
HETATM   26  C   UNL     1       0.673   6.381 -28.547  1.00  0.00     0.116 A 
HETATM   27  C   UNL     1       0.135   7.510 -29.138  1.00  0.00     0.020 A 
HETATM   28  C   UNL     1      -0.409   7.392 -30.414  1.00  0.00     0.012 A 
ENDBRANCH  22  23
ENDBRANCH  19  22
ENDBRANCH   3  18
TORSDOF 5
ENDMDL
MODEL 2
REMARK VINA RESULT:      -8.5      0.959      1.510
REMARK  5 active torsions:
REMARK  status: ('A' for Active; 'I' for Inactive)
REMARK    1  A    between atoms: C_4  and  N_5 
REMARK       I    between atoms: N_5  and  C_6 
REMARK       I    between atoms: C_6  and  N_7 
REMARK    2  A    between atoms: N_7  and  C_8 
REMARK    3  A    between atoms: C_10  and  C_11 
REMARK       I    between atoms: C_11  and  N_12 
REMARK    4  A    between atoms: N_12  and  C_13 
REMARK    5  A    between atoms: C_13  and  C_14 
ROOT
HETATM    1  C   UNL     1      -5.683   2.670 -32.801  1.00  0.00     0.078 A 
HETATM    2  S   UNL     1      -4.113   3.204 -32.444  1.00  0.00    -0.067 SA
HETATM    3  C   UNL     1      -4.213   4.489 -33.581  1.00  0.00     0.074 A 
HETATM    4  C   UNL     1      -5.386   4.403 -34.313  1.00  0.00     0.027 A 
HETATM    5  C   UNL     1      -6.239   3.343 -33.859  1.00  0.00     0.039 A 
ENDROOT
BRANCH   1   6
HETATM    6  N   UNL     1      -6.098   1.650 -31.984  1.00  0.00    -0.303 N 
HETATM    7  C   UNL     1      -6.017   0.294 -32.144  1.00  0.00     0.325 C 
HETATM    8  N   UNL     1      -5.715  -0.166 -33.398  1.00  0.00    -0.309 N 
HETATM    9  O   UNL     1      -6.307  -0.404 -31.174  1.00  0.00    -0.247 OA
HETATM   10  H   UNL     1      -5.638   0.534 -34.115  1.00  0.00     0.170 HD
HETATM   11  H   UNL     1      -6.601   1.919 -31.146  1.00  0.00     0.171 HD
BRANCH   8  12
HETATM   12  C   UNL     1      -5.723  -1.499 -33.860  1.00  0.00     0.036 A 
HETATM   13  C   UNL     1      -6.865  -2.172 -34.298  1.00  0.00     0.029 A 
HETATM   14  C   UNL     1      -6.772  -3.479 -34.793  1.00  0.00     0.002 A 
HETATM   15  C   UNL     1      -5.540  -4.127 -34.839  1.00  0.00     0.000 A 
HETATM   16  C   UNL     1      -4.399  -3.472 -34.389  1.00  0.00     0.002 A 
HETATM   17  C   UNL     1      -4.489  -2.164 -33.905  1.00  0.00     0.029 A 
ENDBRANCH   8  12
ENDBRANCH   1   6
BRANCH   3  18
HETATM   18  C   UNL     1      -3.133   5.468 -33.618  1.00  0.00     0.258 C 
HETATM   19  N   UNL     1      -2.175   5.336 -32.631  1.00  0.00    -0.352 N 
HETATM   20  H   UNL     1      -2.338   4.718 -31.850  1.00  0.00     0.163 HD
HETATM   21  O   UNL     1      -3.044   6.352 -34.467  1.00  0.00    -0.267 OA
BRANCH  19  22
HETATM   22  C   UNL     1      -0.987   6.162 -32.612  1.00  0.00     0.162 C 
BRANCH  22  23
HETATM   23  C   UNL     1      -0.790   6.891 -31.315  1.00  0.00    -0.023 A 
HETATM   24  C   UNL     1      -1.820   7.650 -30.765  1.00  0.00     0.125 A 
HETATM   25  N   UNL     1      -1.748   8.291 -29.576  1.00  0.00    -0.273 NA
HETATM   26  C   UNL     1      -0.595   8.159 -28.887  1.00  0.00     0.116 A 
HETATM   27  C   UNL     1       0.486   7.420 -29.332  1.00  0.00     0.020 A 
HETATM   28  C   UNL     1       0.383   6.774 -30.562  1.00  0.00     0.012 A 
ENDBRANCH  22  23
ENDBRANCH  19  22
ENDBRANCH   3  18
TORSDOF 5
ENDMDL
MODEL 3
REMARK VINA RESULT:      -8.1      1.890      9.799
REMARK  5 active torsions:
REMARK  status: ('A' for Active; 'I' for Inactive)
REMARK    1  A    between atoms: C_4  and  N_5 
REMARK       I    between atoms: N_5  and  C_6 
REMARK       I    between atoms: C_6  and  N_7 
REMARK    2  A    between atoms: N_7  and  C_8 
REMARK    3  A    between atoms: C_10  and  C_11 
REMARK       I    between atoms: C_11  and  N_12 
REMARK    4  A    between atoms: N_12  and  C_13 
REMARK    5  A    between atoms: C_13  and  C_14 
ROOT
HETATM    1  C   UNL     1      -2.996   5.691 -32.804  1.00  0.00     0.078 A 
HETATM    2  S   UNL     1      -4.566   5.270 -33.288  1.00  0.00    -0.067 SA
HETATM    3  C   UNL     1      -4.300   3.604 -32.961  1.00  0.00     0.074 A 
HETATM    4  C   UNL     1      -2.976   3.379 -32.624  1.00  0.00     0.027 A 
HETATM    5  C   UNL     1      -2.218   4.593 -32.535  1.00  0.00     0.039 A 
ENDROOT
BRANCH   1   6
HETATM    6  N   UNL     1      -2.786   7.045 -32.794  1.00  0.00    -0.303 N 
HETATM    7  C   UNL     1      -2.034   7.822 -31.956  1.00  0.00     0.325 C 
HETATM    8  N   UNL     1      -1.611   7.245 -30.788  1.00  0.00    -0.309 N 
HETATM    9  O   UNL     1      -1.873   8.999 -32.275  1.00  0.00    -0.247 OA
HETATM   10  H   UNL     1      -1.942   6.312 -30.615  1.00  0.00     0.170 HD
HETATM   11  H   UNL     1      -3.307   7.588 -33.473  1.00  0.00     0.171 HD
BRANCH   8  12
HETATM   12  C   UNL     1      -0.964   7.864 -29.698  1.00  0.00     0.036 A 
HETATM   13  C   UNL     1      -1.548   8.840 -28.888  1.00  0.00     0.029 A 
HETATM   14  C   UNL     1      -0.852   9.361 -27.791  1.00  0.00     0.002 A 
HETATM   15  C   UNL     1       0.439   8.923 -27.504  1.00  0.00     0.000 A 
HETATM   16  C   UNL     1       1.037   7.964 -28.314  1.00  0.00     0.002 A 
HETATM   17  C   UNL     1       0.338   7.435 -29.404  1.00  0.00     0.029 A 
ENDBRANCH   8  12
ENDBRANCH   1   6
BRANCH   3  18
HETATM   18  C   UNL     1      -5.434   2.691 -33.047  1.00  0.00     0.258 C 
HETATM   19  N   UNL     1      -5.196   1.404 -32.606  1.00  0.00    -0.352 N 
HETATM   20  H   UNL     1      -4.252   1.100 -32.420  1.00  0.00     0.163 HD
HETATM   21  O   UNL     1      -6.542   3.020 -33.463  1.00  0.00    -0.267 OA
BRANCH  19  22
HETATM   22  C   UNL     1      -6.257   0.423 -32.524  1.00  0.00     0.162 C 
BRANCH  22  23
HETATM   23  C   UNL     1      -6.006  -0.797 -33.362  1.00  0.00    -0.023 A 
HETATM   24  C   UNL     1      -4.713  -1.288 -33.528  1.00  0.00     0.125 A 
HETATM   25  N   UNL     1      -4.403  -2.410 -34.217  1.00  0.00    -0.273 NA
HETATM   26  C   UNL     1      -5.434  -3.092 -34.758  1.00  0.00     0.116 A 
HETATM   27  C   UNL     1      -6.757  -2.703 -34.645  1.00  0.00     0.020 A 
HETATM   28  C   UNL     1      -7.044  -1.541 -33.932  1.00  0.00     0.012 A 
ENDBRANCH  22  23
ENDBRANCH  19  22
ENDBRANCH   3  18
TORSDOF 5
ENDMDL
MODEL 4
REMARK VINA RESULT:      -7.9      1.897      9.375
REMARK  5 active torsions:
REMARK  status: ('A' for Active; 'I' for Inactive)
REMARK    1  A    between atoms: C_4  and  N_5 
REMARK       I    between atoms: N_5  and  C_6 
REMARK       I    between atoms: C_6  and  N_7 
REMARK    2  A    between atoms: N_7  and  C_8 
REMARK    3  A    between atoms: C_10  and  C_11 
REMARK       I    between atoms: C_11  and  N_12 
REMARK    4  A    between atoms: N_12  and  C_13 
REMARK    5  A    between atoms: C_13  and  C_14 
ROOT
HETATM    1  C   UNL     1      -5.301   3.598 -31.472  1.00  0.00     0.078 A 
HETATM    2  S   UNL     1      -6.107   2.979 -32.831  1.00  0.00    -0.067 SA
HETATM    3  C   UNL     1      -5.977   1.362 -32.264  1.00  0.00     0.074 A 
HETATM    4  C   UNL     1      -5.198   1.308 -31.120  1.00  0.00     0.027 A 
HETATM    5  C   UNL     1      -4.804   2.608 -30.661  1.00  0.00     0.039 A 
ENDROOT
BRANCH   1   6
HETATM    6  N   UNL     1      -5.274   4.968 -31.446  1.00  0.00    -0.303 N 
HETATM    7  C   UNL     1      -4.222   5.834 -31.328  1.00  0.00     0.325 C 
HETATM    8  N   UNL     1      -3.026   5.306 -30.921  1.00  0.00    -0.309 N 
HETATM    9  O   UNL     1      -4.454   7.028 -31.511  1.00  0.00    -0.247 OA
HETATM   10  H   UNL     1      -3.037   4.329 -30.681  1.00  0.00     0.170 HD
HETATM   11  H   UNL     1      -6.172   5.438 -31.457  1.00  0.00     0.171 HD
BRANCH   8  12
HETATM   12  C   UNL     1      -1.844   5.995 -30.576  1.00  0.00     0.036 A 
HETATM   13  C   UNL     1      -1.710   6.814 -29.453  1.00  0.00     0.029 A 
HETATM   14  C   UNL     1      -0.482   7.416 -29.156  1.00  0.00     0.002 A 
HETATM   15  C   UNL     1       0.618   7.218 -29.987  1.00  0.00     0.000 A 
HETATM   16  C   UNL     1       0.491   6.417 -31.118  1.00  0.00     0.002 A 
HETATM   17  C   UNL     1      -0.732   5.807 -31.409  1.00  0.00     0.029 A 
ENDBRANCH   8  12
ENDBRANCH   1   6
BRANCH   3  18
HETATM   18  C   UNL     1      -6.678   0.313 -32.994  1.00  0.00     0.258 C 
HETATM   19  N   UNL     1      -6.061  -0.124 -34.149  1.00  0.00    -0.352 N 
HETATM   20  H   UNL     1      -5.282   0.391 -34.531  1.00  0.00     0.163 HD
HETATM   21  O   UNL     1      -7.740  -0.181 -32.622  1.00  0.00    -0.267 OA
BRANCH  19  22
HETATM   22  C   UNL     1      -6.582  -1.238 -34.913  1.00  0.00     0.162 C 
BRANCH  22  23
HETATM   23  C   UNL     1      -5.889  -2.537 -34.619  1.00  0.00    -0.023 A 
HETATM   24  C   UNL     1      -6.492  -3.750 -34.940  1.00  0.00     0.125 A 
HETATM   25  N   UNL     1      -5.917  -4.962 -34.762  1.00  0.00    -0.273 NA
HETATM   26  C   UNL     1      -4.667  -4.969 -34.252  1.00  0.00     0.116 A 
HETATM   27  C   UNL     1      -3.970  -3.824 -33.909  1.00  0.00     0.020 A 
HETATM   28  C   UNL     1      -4.590  -2.592 -34.101  1.00  0.00     0.012 A 
ENDBRANCH  22  23
ENDBRANCH  19  22
ENDBRANCH   3  18
TORSDOF 5
ENDMDL
MODEL 5
REMARK VINA RESULT:      -7.4      2.614      9.859
REMARK  5 active torsions:
REMARK  status: ('A' for Active; 'I' for Inactive)
REMARK    1  A    between atoms: C_4  and  N_5 
REMARK       I    between atoms: N_5  and  C_6 
REMARK       I    between atoms: C_6  and  N_7 
REMARK    2  A    between atoms: N_7  and  C_8 
REMARK    3  A    between atoms: C_10  and  C_11 
REMARK       I    between atoms: C_11  and  N_12 
REMARK    4  A    between atoms: N_12  and  C_13 
REMARK    5  A    between atoms: C_13  and  C_14 
ROOT
HETATM    1  C   UNL     1      -2.804   6.014 -32.551  1.00  0.00     0.078 A 
HETATM    2  S   UNL     1      -4.158   5.422 -31.717  1.00  0.00    -0.067 SA
HETATM    3  C   UNL     1      -3.747   3.788 -32.061  1.00  0.00     0.074 A 
HETATM    4  C   UNL     1      -2.665   3.730 -32.924  1.00  0.00     0.027 A 
HETATM    5  C   UNL     1      -2.119   5.024 -33.209  1.00  0.00     0.039 A 
ENDROOT
BRANCH   1   6
HETATM    6  N   UNL     1      -2.658   7.372 -32.433  1.00  0.00    -0.303 N 
HETATM    7  C   UNL     1      -1.890   8.112 -31.577  1.00  0.00     0.325 C 
HETATM    8  N   UNL     1      -1.363   7.460 -30.494  1.00  0.00    -0.309 N 
HETATM    9  O   UNL     1      -1.806   9.319 -31.799  1.00  0.00    -0.247 OA
HETATM   10  H   UNL     1      -1.638   6.499 -30.384  1.00  0.00     0.170 HD
HETATM   11  H   UNL     1      -3.248   7.943 -33.027  1.00  0.00     0.171 HD
BRANCH   8  12
HETATM   12  C   UNL     1      -0.675   8.016 -29.395  1.00  0.00     0.036 A 
HETATM   13  C   UNL     1       0.640   7.700 -29.048  1.00  0.00     0.029 A 
HETATM   14  C   UNL     1       1.264   8.342 -27.972  1.00  0.00     0.002 A 
HETATM   15  C   UNL     1       0.574   9.294 -27.225  1.00  0.00     0.000 A 
HETATM   16  C   UNL     1      -0.742   9.604 -27.550  1.00  0.00     0.002 A 
HETATM   17  C   UNL     1      -1.363   8.971 -28.632  1.00  0.00     0.029 A 
ENDBRANCH   8  12
ENDBRANCH   1   6
BRANCH   3  18
HETATM   18  C   UNL     1      -4.520   2.730 -31.424  1.00  0.00     0.258 C 
HETATM   19  N   UNL     1      -4.572   1.533 -32.111  1.00  0.00    -0.352 N 
HETATM   20  H   UNL     1      -4.246   1.484 -33.065  1.00  0.00     0.163 HD
HETATM   21  O   UNL     1      -5.086   2.858 -30.340  1.00  0.00    -0.267 OA
BRANCH  19  22
HETATM   22  C   UNL     1      -5.205   0.360 -31.546  1.00  0.00     0.162 C 
BRANCH  22  23
HETATM   23  C   UNL     1      -6.605   0.142 -32.042  1.00  0.00    -0.023 A 
HETATM   24  C   UNL     1      -7.694   0.624 -31.322  1.00  0.00     0.125 A 
HETATM   25  N   UNL     1      -8.982   0.523 -31.723  1.00  0.00    -0.273 NA
HETATM   26  C   UNL     1      -9.200  -0.078 -32.913  1.00  0.00     0.116 A 
HETATM   27  C   UNL     1      -8.192  -0.581 -33.715  1.00  0.00     0.020 A 
HETATM   28  C   UNL     1      -6.876  -0.464 -33.273  1.00  0.00     0.012 A 
ENDBRANCH  22  23
ENDBRANCH  19  22
ENDBRANCH   3  18
TORSDOF 5
ENDMDL
MODEL 6
REMARK VINA RESULT:      -7.3      3.166     10.106
REMARK  5 active torsions:
REMARK  status: ('A' for Active; 'I' for Inactive)
REMARK    1  A    between atoms: C_4  and  N_5 
REMARK       I    between atoms: N_5  and  C_6 
REMARK       I    between atoms: C_6  and  N_7 
REMARK    2  A    between atoms: N_7  and  C_8 
REMARK    3  A    between atoms: C_10  and  C_11 
REMARK       I    between atoms: C_11  and  N_12 
REMARK    4  A    between atoms: N_12  and  C_13 
REMARK    5  A    between atoms: C_13  and  C_14 
ROOT
HETATM    1  C   UNL     1      -3.019   5.675 -32.307  1.00  0.00     0.078 A 
HETATM    2  S   UNL     1      -4.646   5.378 -31.931  1.00  0.00    -0.067 SA
HETATM    3  C   UNL     1      -4.374   3.691 -31.751  1.00  0.00     0.074 A 
HETATM    4  C   UNL     1      -3.078   3.365 -32.118  1.00  0.00     0.027 A 
HETATM    5  C   UNL     1      -2.292   4.519 -32.443  1.00  0.00     0.039 A 
ENDROOT
BRANCH   1   6
HETATM    6  N   UNL     1      -2.735   7.011 -32.428  1.00  0.00    -0.303 N 
HETATM    7  C   UNL     1      -1.940   7.823 -31.667  1.00  0.00     0.325 C 
HETATM    8  N   UNL     1      -1.546   7.340 -30.447  1.00  0.00    -0.309 N 
HETATM    9  O   UNL     1      -1.715   8.952 -32.098  1.00  0.00    -0.247 OA
HETATM   10  H   UNL     1      -1.928   6.448 -30.185  1.00  0.00     0.170 HD
HETATM   11  H   UNL     1      -3.227   7.513 -33.158  1.00  0.00     0.171 HD
BRANCH   8  12
HETATM   12  C   UNL     1      -0.864   8.026 -29.420  1.00  0.00     0.036 A 
HETATM   13  C   UNL     1      -1.423   9.049 -28.652  1.00  0.00     0.029 A 
HETATM   14  C   UNL     1      -0.691   9.638 -27.615  1.00  0.00     0.002 A 
HETATM   15  C   UNL     1       0.610   9.220 -27.346  1.00  0.00     0.000 A 
HETATM   16  C   UNL     1       1.183   8.213 -28.115  1.00  0.00     0.002 A 
HETATM   17  C   UNL     1       0.449   7.617 -29.146  1.00  0.00     0.029 A 
ENDBRANCH   8  12
ENDBRANCH   1   6
BRANCH   3  18
HETATM   18  C   UNL     1      -5.460   2.863 -31.241  1.00  0.00     0.258 C 
HETATM   19  N   UNL     1      -6.017   1.985 -32.150  1.00  0.00    -0.352 N 
HETATM   20  H   UNL     1      -5.795   2.065 -33.130  1.00  0.00     0.163 HD
HETATM   21  O   UNL     1      -5.864   2.910 -30.081  1.00  0.00    -0.267 OA
BRANCH  19  22
HETATM   22  C   UNL     1      -7.024   1.023 -31.755  1.00  0.00     0.162 C 
BRANCH  22  23
HETATM   23  C   UNL     1      -8.305   1.152 -32.526  1.00  0.00    -0.023 A 
HETATM   24  C   UNL     1      -8.457   2.150 -33.484  1.00  0.00     0.125 A 
HETATM   25  N   UNL     1      -9.553   2.303 -34.263  1.00  0.00    -0.273 NA
HETATM   26  C   UNL     1     -10.548   1.407 -34.090  1.00  0.00     0.116 A 
HETATM   27  C   UNL     1     -10.497   0.370 -33.176  1.00  0.00     0.020 A 
HETATM   28  C   UNL     1      -9.357   0.240 -32.388  1.00  0.00     0.012 A 
ENDBRANCH  22  23
ENDBRANCH  19  22
ENDBRANCH   3  18
TORSDOF 5
ENDMDL
MODEL 7
REMARK VINA RESULT:      -7.3      1.410      8.935
REMARK  5 active torsions:
REMARK  status: ('A' for Active; 'I' for Inactive)
REMARK    1  A    between atoms: C_4  and  N_5 
REMARK       I    between atoms: N_5  and  C_6 
REMARK       I    between atoms: C_6  and  N_7 
REMARK    2  A    between atoms: N_7  and  C_8 
REMARK    3  A    between atoms: C_10  and  C_11 
REMARK       I    between atoms: C_11  and  N_12 
REMARK    4  A    between atoms: N_12  and  C_13 
REMARK    5  A    between atoms: C_13  and  C_14 
ROOT
HETATM    1  C   UNL     1      -5.277   5.047 -33.645  1.00  0.00     0.078 A 
HETATM    2  S   UNL     1      -4.718   3.557 -33.055  1.00  0.00    -0.067 SA
HETATM    3  C   UNL     1      -6.314   2.991 -32.760  1.00  0.00     0.074 A 
HETATM    4  C   UNL     1      -7.238   4.000 -32.982  1.00  0.00     0.027 A 
HETATM    5  C   UNL     1      -6.633   5.195 -33.495  1.00  0.00     0.039 A 
ENDROOT
BRANCH   1   6
HETATM    6  N   UNL     1      -4.271   5.836 -34.138  1.00  0.00    -0.303 N 
HETATM    7  C   UNL     1      -3.046   6.145 -33.615  1.00  0.00     0.325 C 
HETATM    8  N   UNL     1      -2.844   5.853 -32.292  1.00  0.00    -0.309 N 
HETATM    9  O   UNL     1      -2.255   6.738 -34.348  1.00  0.00    -0.247 OA
HETATM   10  H   UNL     1      -3.640   5.490 -31.797  1.00  0.00     0.170 HD
HETATM   11  H   UNL     1      -4.466   6.327 -35.003  1.00  0.00     0.171 HD
BRANCH   8  12
HETATM   12  C   UNL     1      -1.744   6.205 -31.482  1.00  0.00     0.036 A 
HETATM   13  C   UNL     1      -0.514   5.544 -31.496  1.00  0.00     0.029 A 
HETATM   14  C   UNL     1       0.543   5.996 -30.698  1.00  0.00     0.002 A 
HETATM   15  C   UNL     1       0.375   7.102 -29.868  1.00  0.00     0.000 A 
HETATM   16  C   UNL     1      -0.851   7.757 -29.833  1.00  0.00     0.002 A 
HETATM   17  C   UNL     1      -1.904   7.313 -30.638  1.00  0.00     0.029 A 
ENDBRANCH   8  12
ENDBRANCH   1   6
BRANCH   3  18
HETATM   18  C   UNL     1      -6.495   1.601 -32.362  1.00  0.00     0.258 C 
HETATM   19  N   UNL     1      -5.402   0.779 -32.558  1.00  0.00    -0.352 N 
HETATM   20  H   UNL     1      -4.619   1.101 -33.107  1.00  0.00     0.163 HD
HETATM   21  O   UNL     1      -7.531   1.163 -31.868  1.00  0.00    -0.267 OA
BRANCH  19  22
HETATM   22  C   UNL     1      -5.396  -0.596 -32.104  1.00  0.00     0.162 C 
BRANCH  22  23
HETATM   23  C   UNL     1      -5.492  -1.592 -33.222  1.00  0.00    -0.023 A 
HETATM   24  C   UNL     1      -4.376  -2.329 -33.611  1.00  0.00     0.125 A 
HETATM   25  N   UNL     1      -4.387  -3.286 -34.568  1.00  0.00    -0.273 NA
HETATM   26  C   UNL     1      -5.573  -3.535 -35.162  1.00  0.00     0.116 A 
HETATM   27  C   UNL     1      -6.745  -2.872 -34.845  1.00  0.00     0.020 A 
HETATM   28  C   UNL     1      -6.702  -1.891 -33.857  1.00  0.00     0.012 A 
ENDBRANCH  22  23
ENDBRANCH  19  22
ENDBRANCH   3  18
TORSDOF 5
ENDMDL
MODEL 8
REMARK VINA RESULT:      -7.2      2.261      2.504
REMARK  5 active torsions:
REMARK  status: ('A' for Active; 'I' for Inactive)
REMARK    1  A    between atoms: C_4  and  N_5 
REMARK       I    between atoms: N_5  and  C_6 
REMARK       I    between atoms: C_6  and  N_7 
REMARK    2  A    between atoms: N_7  and  C_8 
REMARK    3  A    between atoms: C_10  and  C_11 
REMARK       I    between atoms: C_11  and  N_12 
REMARK    4  A    between atoms: N_12  and  C_13 
REMARK    5  A    between atoms: C_13  and  C_14 
ROOT
HETATM    1  C   UNL     1      -7.351   2.657 -32.314  1.00  0.00     0.078 A 
HETATM    2  S   UNL     1      -6.402   4.047 -32.523  1.00  0.00    -0.067 SA
HETATM    3  C   UNL     1      -6.054   4.152 -30.843  1.00  0.00     0.074 A 
HETATM    4  C   UNL     1      -6.782   3.210 -30.135  1.00  0.00     0.027 A 
HETATM    5  C   UNL     1      -7.537   2.342 -30.991  1.00  0.00     0.039 A 
ENDROOT
BRANCH   1   6
HETATM    6  N   UNL     1      -7.777   2.118 -33.501  1.00  0.00    -0.303 N 
HETATM    7  C   UNL     1      -7.593   0.869 -34.027  1.00  0.00     0.325 C 
HETATM    8  N   UNL     1      -6.641   0.081 -33.436  1.00  0.00    -0.309 N 
HETATM    9  O   UNL     1      -8.234   0.585 -35.037  1.00  0.00    -0.247 OA
HETATM   10  H   UNL     1      -6.109   0.513 -32.701  1.00  0.00     0.170 HD
HETATM   11  H   UNL     1      -8.258   2.746 -34.135  1.00  0.00     0.171 HD
BRANCH   8  12
HETATM   12  C   UNL     1      -6.155  -1.169 -33.874  1.00  0.00     0.036 A 
HETATM   13  C   UNL     1      -4.809  -1.542 -33.848  1.00  0.00     0.029 A 
HETATM   14  C   UNL     1      -4.421  -2.825 -34.251  1.00  0.00     0.002 A 
HETATM   15  C   UNL     1      -5.372  -3.740 -34.696  1.00  0.00     0.000 A 
HETATM   16  C   UNL     1      -6.713  -3.374 -34.742  1.00  0.00     0.002 A 
HETATM   17  C   UNL     1      -7.103  -2.096 -34.330  1.00  0.00     0.029 A 
ENDBRANCH   8  12
ENDBRANCH   1   6
BRANCH   3  18
HETATM   18  C   UNL     1      -5.078   5.139 -30.398  1.00  0.00     0.258 C 
HETATM   19  N   UNL     1      -4.174   5.557 -31.355  1.00  0.00    -0.352 N 
HETATM   20  H   UNL     1      -4.102   5.063 -32.231  1.00  0.00     0.163 HD
HETATM   21  O   UNL     1      -5.047   5.598 -29.258  1.00  0.00    -0.267 OA
BRANCH  19  22
HETATM   22  C   UNL     1      -3.223   6.615 -31.088  1.00  0.00     0.162 C 
BRANCH  22  23
HETATM   23  C   UNL     1      -1.893   6.113 -30.606  1.00  0.00    -0.023 A 
HETATM   24  C   UNL     1      -1.231   5.097 -31.290  1.00  0.00     0.125 A 
HETATM   25  N   UNL     1      -0.007   4.624 -30.959  1.00  0.00    -0.273 NA
HETATM   26  C   UNL     1       0.600   5.202 -29.901  1.00  0.00     0.116 A 
HETATM   27  C   UNL     1       0.039   6.227 -29.159  1.00  0.00     0.020 A 
HETATM   28  C   UNL     1      -1.223   6.690 -29.523  1.00  0.00     0.012 A 
ENDBRANCH  22  23
ENDBRANCH  19  22
ENDBRANCH   3  18
TORSDOF 5
ENDMDL
MODEL 9
REMARK VINA RESULT:      -7.1     16.598     18.606
REMARK  5 active torsions:
REMARK  status: ('A' for Active; 'I' for Inactive)
REMARK    1  A    between atoms: C_4  and  N_5 
REMARK       I    between atoms: N_5  and  C_6 
REMARK       I    between atoms: C_6  and  N_7 
REMARK    2  A    between atoms: N_7  and  C_8 
REMARK    3  A    between atoms: C_10  and  C_11 
REMARK       I    between atoms: C_11  and  N_12 
REMARK    4  A    between atoms: N_12  and  C_13 
REMARK    5  A    between atoms: C_13  and  C_14 
ROOT
HETATM    1  C   UNL     1      -7.696 -12.447 -40.024  1.00  0.00     0.078 A 
HETATM    2  S   UNL     1      -6.899 -12.630 -38.537  1.00  0.00    -0.067 SA
HETATM    3  C   UNL     1      -5.350 -12.456 -39.261  1.00  0.00     0.074 A 
HETATM    4  C   UNL     1      -5.461 -12.403 -40.641  1.00  0.00     0.027 A 
HETATM    5  C   UNL     1      -6.825 -12.401 -41.083  1.00  0.00     0.039 A 
ENDROOT
BRANCH   1   6
HETATM    6  N   UNL     1      -9.060 -12.405 -39.896  1.00  0.00    -0.303 N 
HETATM    7  C   UNL     1      -9.993 -13.401 -39.988  1.00  0.00     0.325 C 
HETATM    8  N   UNL     1      -9.582 -14.588 -40.533  1.00  0.00    -0.309 N 
HETATM    9  O   UNL     1     -11.144 -13.124 -39.655  1.00  0.00    -0.247 OA
HETATM   10  H   UNL     1      -8.638 -14.608 -40.881  1.00  0.00     0.170 HD
HETATM   11  H   UNL     1      -9.473 -11.488 -39.771  1.00  0.00     0.171 HD
BRANCH   8  12
HETATM   12  C   UNL     1     -10.371 -15.705 -40.879  1.00  0.00     0.036 A 
HETATM   13  C   UNL     1     -10.375 -16.912 -40.176  1.00  0.00     0.029 A 
HETATM   14  C   UNL     1     -11.233 -17.951 -40.557  1.00  0.00     0.002 A 
HETATM   15  C   UNL     1     -12.081 -17.798 -41.651  1.00  0.00     0.000 A 
HETATM   16  C   UNL     1     -12.073 -16.607 -42.368  1.00  0.00     0.002 A 
HETATM   17  C   UNL     1     -11.224 -15.564 -41.983  1.00  0.00     0.029 A 
ENDBRANCH   8  12
ENDBRANCH   1   6
BRANCH   3  18
HETATM   18  C   UNL     1      -4.185 -12.363 -38.391  1.00  0.00     0.258 C 
HETATM   19  N   UNL     1      -2.960 -12.451 -39.024  1.00  0.00    -0.352 N 
HETATM   20  H   UNL     1      -2.910 -12.744 -39.988  1.00  0.00     0.163 HD
HETATM   21  O   UNL     1      -4.254 -12.201 -37.174  1.00  0.00    -0.267 OA
BRANCH  19  22
HETATM   22  C   UNL     1      -1.719 -12.261 -38.304  1.00  0.00     0.162 C 
BRANCH  22  23
HETATM   23  C   UNL     1      -1.068 -13.548 -37.889  1.00  0.00    -0.023 A 
HETATM   24  C   UNL     1      -0.069 -14.121 -38.672  1.00  0.00     0.125 A 
HETATM   25  N   UNL     1       0.608 -15.246 -38.346  1.00  0.00    -0.273 NA
HETATM   26  C   UNL     1       0.287 -15.826 -37.170  1.00  0.00     0.116 A 
HETATM   27  C   UNL     1      -0.678 -15.336 -36.310  1.00  0.00     0.020 A 
HETATM   28  C   UNL     1      -1.361 -14.178 -36.674  1.00  0.00     0.012 A 
ENDBRANCH  22  23
ENDBRANCH  19  22
ENDBRANCH   3  18
TORSDOF 5
ENDMDL
MODEL 10
REMARK VINA RESULT:      -7.1      5.316      7.315
REMARK  5 active torsions:
REMARK  status: ('A' for Active; 'I' for Inactive)
REMARK    1  A    between atoms: C_4  and  N_5 
REMARK       I    between atoms: N_5  and  C_6 
REMARK       I    between atoms: C_6  and  N_7 
REMARK    2  A    between atoms: N_7  and  C_8 
REMARK    3  A    between atoms: C_10  and  C_11 
REMARK       I    between atoms: C_11  and  N_12 
REMARK    4  A    between atoms: N_12  and  C_13 
REMARK    5  A    between atoms: C_13  and  C_14 
ROOT
HETATM    1  C   UNL     1      -9.537   1.332 -33.747  1.00  0.00     0.078 A 
HETATM    2  S   UNL     1      -8.129   2.278 -33.715  1.00  0.00    -0.067 SA
HETATM    3  C   UNL     1      -7.343   1.206 -32.625  1.00  0.00     0.074 A 
HETATM    4  C   UNL     1      -8.218   0.222 -32.195  1.00  0.00     0.027 A 
HETATM    5  C   UNL     1      -9.494   0.297 -32.846  1.00  0.00     0.039 A 
ENDROOT
BRANCH   1   6
HETATM    6  N   UNL     1     -10.465   1.787 -34.646  1.00  0.00    -0.303 N 
HETATM    7  C   UNL     1     -11.690   2.361 -34.446  1.00  0.00     0.325 C 
HETATM    8  N   UNL     1     -12.224   2.260 -33.188  1.00  0.00    -0.309 N 
HETATM    9  O   UNL     1     -12.252   2.844 -35.427  1.00  0.00    -0.247 OA
HETATM   10  H   UNL     1     -11.696   1.715 -32.530  1.00  0.00     0.170 HD
HETATM   11  H   UNL     1     -10.258   1.632 -35.626  1.00  0.00     0.171 HD
BRANCH   8  12
HETATM   12  C   UNL     1     -13.519   2.624 -32.763  1.00  0.00     0.036 A 
HETATM   13  C   UNL     1     -13.849   3.869 -32.223  1.00  0.00     0.029 A 
HETATM   14  C   UNL     1     -15.173   4.164 -31.878  1.00  0.00     0.002 A 
HETATM   15  C   UNL     1     -16.175   3.213 -32.054  1.00  0.00     0.000 A 
HETATM   16  C   UNL     1     -15.855   1.964 -32.575  1.00  0.00     0.002 A 
HETATM   17  C   UNL     1     -14.535   1.672 -32.930  1.00  0.00     0.029 A 
ENDBRANCH   8  12
ENDBRANCH   1   6
BRANCH   3  18
HETATM   18  C   UNL     1      -5.935   1.431 -32.325  1.00  0.00     0.258 C 
HETATM   19  N   UNL     1      -5.541   2.754 -32.271  1.00  0.00    -0.352 N 
HETATM   20  H   UNL     1      -6.161   3.479 -32.602  1.00  0.00     0.163 HD
HETATM   21  O   UNL     1      -5.131   0.526 -32.114  1.00  0.00    -0.267 OA
BRANCH  19  22
HETATM   22  C   UNL     1      -4.202   3.131 -31.871  1.00  0.00     0.162 C 
BRANCH  22  23
HETATM   23  C   UNL     1      -3.580   4.160 -32.770  1.00  0.00    -0.023 A 
HETATM   24  C   UNL     1      -4.309   5.272 -33.184  1.00  0.00     0.125 A 
HETATM   25  N   UNL     1      -3.810   6.273 -33.945  1.00  0.00    -0.273 NA
HETATM   26  C   UNL     1      -2.513   6.173 -34.303  1.00  0.00     0.116 A 
HETATM   27  C   UNL     1      -1.694   5.120 -33.936  1.00  0.00     0.020 A 
HETATM   28  C   UNL     1      -2.236   4.103 -33.155  1.00  0.00     0.012 A 
ENDBRANCH  22  23
ENDBRANCH  19  22
ENDBRANCH   3  18
TORSDOF 5
ENDMDL
