MODEL 1
REMARK VINA RESULT:      -9.3      0.000      0.000
REMARK  6 active torsions:
REMARK  status: ('A' for Active; 'I' for Inactive)
REMARK    1  A    between atoms: C_2  and  O_3 
REMARK    2  A    between atoms: O_3  and  C_4 
REMARK    3  A    between atoms: C_4  and  C_5 
REMARK    4  A    between atoms: C_10  and  N_11 
REMARK       I    between atoms: N_11  and  C_12 
REMARK    5  A    between atoms: C_12  and  C_13 
REMARK    6  A    between atoms: C_13  and  N_14 
ROOT
HETATM    1  N   UNL     1      -5.235   0.531 -33.528  1.00  0.00    -0.322 N 
HETATM    2  C   UNL     1      -5.143   0.943 -32.217  1.00  0.00     0.253 C 
HETATM    3  O   UNL     1      -5.441   0.233 -31.261  1.00  0.00    -0.271 OA
HETATM    4  H   UNL     1      -4.646   0.961 -34.238  1.00  0.00     0.169 HD
ENDROOT
BRANCH   2   5
HETATM    5  C   UNL     1      -4.644   2.407 -31.979  1.00  0.00     0.275 C 
HETATM    6  C   UNL     1      -3.260   2.462 -31.309  1.00  0.00     0.050 C 
BRANCH   5   7
HETATM    7  N   UNL     1      -5.594   3.345 -31.116  1.00  0.00    -0.058 N 
HETATM    8  H   UNL     1      -5.956   2.690 -30.410  1.00  0.00     0.281 HD
HETATM    9  C   UNL     1      -4.852   4.427 -30.330  1.00  0.00     0.246 C 
HETATM   10  C   UNL     1      -4.759   5.783 -31.062  1.00  0.00     0.062 C 
HETATM   11  C   UNL     1      -6.155   6.267 -31.429  1.00  0.00     0.020 C 
HETATM   12  C   UNL     1      -3.877   5.697 -32.290  1.00  0.00     0.020 A 
HETATM   13  C   UNL     1      -6.738   5.258 -32.410  1.00  0.00     0.031 C 
HETATM   14  C   UNL     1      -5.905   5.284 -33.691  1.00  0.00     0.138 C 
HETATM   15  C   UNL     1      -6.871   3.888 -31.735  1.00  0.00     0.242 C 
HETATM   16  N   UNL     1      -4.453   5.345 -33.513  1.00  0.00    -0.317 N 
HETATM   17  C   UNL     1      -3.694   5.222 -34.688  1.00  0.00     0.247 A 
HETATM   18  O   UNL     1      -4.160   4.917 -35.781  1.00  0.00    -0.268 OA
HETATM   19  C   UNL     1      -2.237   5.467 -34.559  1.00  0.00     0.074 A 
HETATM   20  C   UNL     1      -1.716   5.812 -33.377  1.00  0.00     0.007 A 
HETATM   21  C   UNL     1      -2.554   5.932 -32.214  1.00  0.00     0.026 A 
ENDBRANCH   5   7
ENDBRANCH   2   5
BRANCH   1  22
HETATM   22  C   UNL     1      -5.858  -0.632 -33.985  1.00  0.00     0.080 A 
HETATM   23  C   UNL     1      -7.191  -0.606 -34.376  1.00  0.00     0.137 A 
HETATM   24  N   UNL     1      -7.523  -1.876 -34.777  1.00  0.00    -0.349 N 
HETATM   25  H   UNL     1      -8.436  -2.144 -35.124  1.00  0.00     0.166 HD
HETATM   26  C   UNL     1      -6.462  -2.732 -34.619  1.00  0.00     0.045 A 
HETATM   27  C   UNL     1      -5.394  -1.984 -34.107  1.00  0.00     0.023 A 
HETATM   28  C   UNL     1      -6.387  -4.108 -34.879  1.00  0.00     0.033 A 
HETATM   29  C   UNL     1      -4.203  -2.679 -33.806  1.00  0.00     0.058 A 
HETATM   30  C   UNL     1      -4.119  -4.048 -34.065  1.00  0.00     0.117 A 
HETATM   31  C   UNL     1      -5.186  -4.756 -34.596  1.00  0.00     0.044 A 
HETATM   32  F   UNL     1      -2.980  -4.696 -33.786  1.00  0.00    -0.206 F 
BRANCH  23  33
HETATM   33  C   UNL     1      -8.088   0.524 -34.407  1.00  0.00     0.312 C 
HETATM   34  O   UNL     1      -7.792   1.615 -34.881  1.00  0.00    -0.258 OA
BRANCH  33  35
HETATM   35  O   UNL     1      -9.281   0.189 -33.849  1.00  0.00    -0.317 OA
BRANCH  35  36
HETATM   36  C   UNL     1      -9.737   1.038 -32.785  1.00  0.00     0.175 C 
HETATM   37  C   UNL     1      -8.948   0.765 -31.519  1.00  0.00     0.034 C 
ENDBRANCH  35  36
ENDBRANCH  33  35
ENDBRANCH  23  33
ENDBRANCH   1  22
TORSDOF 6
ENDMDL
MODEL 2
REMARK VINA RESULT:      -9.0      3.412      6.482
REMARK  6 active torsions:
REMARK  status: ('A' for Active; 'I' for Inactive)
REMARK    1  A    between atoms: C_2  and  O_3 
REMARK    2  A    between atoms: O_3  and  C_4 
REMARK    3  A    between atoms: C_4  and  C_5 
REMARK    4  A    between atoms: C_10  and  N_11 
REMARK       I    between atoms: N_11  and  C_12 
REMARK    5  A    between atoms: C_12  and  C_13 
REMARK    6  A    between atoms: C_13  and  N_14 
ROOT
HETATM    1  N   UNL     1      -8.129   0.732 -33.844  1.00  0.00    -0.322 N 
HETATM    2  C   UNL     1      -9.107   0.767 -32.876  1.00  0.00     0.253 C 
HETATM    3  O   UNL     1      -8.935   0.376 -31.724  1.00  0.00    -0.271 OA
HETATM    4  H   UNL     1      -8.165   1.384 -34.625  1.00  0.00     0.169 HD
ENDROOT
BRANCH   2   5
HETATM    5  C   UNL     1     -10.503   1.326 -33.312  1.00  0.00     0.275 C 
HETATM    6  C   UNL     1     -11.594   0.242 -33.342  1.00  0.00     0.050 C 
BRANCH   5   7
HETATM    7  N   UNL     1     -10.560   2.056 -34.723  1.00  0.00    -0.058 N 
HETATM    8  H   UNL     1     -10.003   1.425 -35.313  1.00  0.00     0.281 HD
HETATM    9  C   UNL     1     -11.954   2.083 -35.352  1.00  0.00     0.246 C 
HETATM   10  C   UNL     1     -12.757   3.365 -35.046  1.00  0.00     0.062 C 
HETATM   11  C   UNL     1     -11.961   4.588 -35.483  1.00  0.00     0.020 C 
HETATM   12  C   UNL     1     -13.128   3.458 -33.581  1.00  0.00     0.020 A 
HETATM   13  C   UNL     1     -10.697   4.628 -34.636  1.00  0.00     0.031 C 
HETATM   14  C   UNL     1     -11.092   4.852 -33.178  1.00  0.00     0.138 C 
HETATM   15  C   UNL     1      -9.844   3.383 -34.908  1.00  0.00     0.242 C 
HETATM   16  N   UNL     1     -12.244   4.085 -32.698  1.00  0.00    -0.317 N 
HETATM   17  C   UNL     1     -12.508   4.187 -31.323  1.00  0.00     0.247 A 
HETATM   18  O   UNL     1     -11.761   4.729 -30.516  1.00  0.00    -0.268 OA
HETATM   19  C   UNL     1     -13.773   3.574 -30.849  1.00  0.00     0.074 A 
HETATM   20  C   UNL     1     -14.603   2.989 -31.719  1.00  0.00     0.007 A 
HETATM   21  C   UNL     1     -14.276   2.931 -33.118  1.00  0.00     0.026 A 
ENDBRANCH   5   7
ENDBRANCH   2   5
BRANCH   1  22
HETATM   22  C   UNL     1      -6.899   0.079 -33.750  1.00  0.00     0.080 A 
HETATM   23  C   UNL     1      -5.777   0.760 -33.294  1.00  0.00     0.137 A 
HETATM   24  N   UNL     1      -4.730  -0.128 -33.304  1.00  0.00    -0.349 N 
HETATM   25  H   UNL     1      -3.787   0.098 -33.008  1.00  0.00     0.166 HD
HETATM   26  C   UNL     1      -5.127  -1.348 -33.791  1.00  0.00     0.045 A 
HETATM   27  C   UNL     1      -6.491  -1.252 -34.096  1.00  0.00     0.023 A 
HETATM   28  C   UNL     1      -4.370  -2.511 -33.992  1.00  0.00     0.033 A 
HETATM   29  C   UNL     1      -7.105  -2.384 -34.675  1.00  0.00     0.058 A 
HETATM   30  C   UNL     1      -6.360  -3.547 -34.875  1.00  0.00     0.117 A 
HETATM   31  C   UNL     1      -5.017  -3.618 -34.538  1.00  0.00     0.044 A 
HETATM   32  F   UNL     1      -6.956  -4.619 -35.414  1.00  0.00    -0.206 F 
BRANCH  23  33
HETATM   33  C   UNL     1      -5.686   2.129 -32.849  1.00  0.00     0.312 C 
HETATM   34  O   UNL     1      -6.031   3.089 -33.530  1.00  0.00    -0.258 OA
BRANCH  33  35
HETATM   35  O   UNL     1      -5.179   2.180 -31.589  1.00  0.00    -0.317 OA
BRANCH  35  36
HETATM   36  C   UNL     1      -6.132   2.043 -30.524  1.00  0.00     0.175 C 
HETATM   37  C   UNL     1      -5.854   0.782 -29.728  1.00  0.00     0.034 C 
ENDBRANCH  35  36
ENDBRANCH  33  35
ENDBRANCH  23  33
ENDBRANCH   1  22
TORSDOF 6
ENDMDL
MODEL 3
REMARK VINA RESULT:      -8.7      3.240      5.243
REMARK  6 active torsions:
REMARK  status: ('A' for Active; 'I' for Inactive)
REMARK    1  A    between atoms: C_2  and  O_3 
REMARK    2  A    between atoms: O_3  and  C_4 
REMARK    3  A    between atoms: C_4  and  C_5 
REMARK    4  A    between atoms: C_10  and  N_11 
REMARK       I    between atoms: N_11  and  C_12 
REMARK    5  A    between atoms: C_12  and  C_13 
REMARK    6  A    between atoms: C_13  and  N_14 
ROOT
HETATM    1  N   UNL     1      -4.680   3.111 -31.989  1.00  0.00    -0.322 N 
HETATM    2  C   UNL     1      -4.881   3.908 -30.884  1.00  0.00     0.253 C 
HETATM    3  O   UNL     1      -5.642   3.615 -29.966  1.00  0.00    -0.271 OA
HETATM    4  H   UNL     1      -3.807   3.175 -32.508  1.00  0.00     0.169 HD
ENDROOT
BRANCH   2   5
HETATM    5  C   UNL     1      -4.089   5.258 -30.843  1.00  0.00     0.275 C 
HETATM    6  C   UNL     1      -4.615   6.224 -29.767  1.00  0.00     0.050 C 
BRANCH   5   7
HETATM    7  N   UNL     1      -4.039   6.087 -32.199  1.00  0.00    -0.058 N 
HETATM    8  H   UNL     1      -5.021   6.061 -32.502  1.00  0.00     0.281 HD
HETATM    9  C   UNL     1      -3.707   7.568 -32.009  1.00  0.00     0.246 C 
HETATM   10  C   UNL     1      -2.207   7.900 -32.156  1.00  0.00     0.062 C 
HETATM   11  C   UNL     1      -1.703   7.419 -33.511  1.00  0.00     0.020 C 
HETATM   12  C   UNL     1      -1.387   7.301 -31.033  1.00  0.00     0.020 A 
HETATM   13  C   UNL     1      -1.839   5.903 -33.530  1.00  0.00     0.031 C 
HETATM   14  C   UNL     1      -0.905   5.315 -32.473  1.00  0.00     0.138 C 
HETATM   15  C   UNL     1      -3.315   5.508 -33.403  1.00  0.00     0.242 C 
HETATM   16  N   UNL     1      -0.874   6.010 -31.184  1.00  0.00    -0.317 N 
HETATM   17  C   UNL     1      -0.127   5.380 -30.176  1.00  0.00     0.247 A 
HETATM   18  O   UNL     1       0.342   4.250 -30.269  1.00  0.00    -0.268 OA
HETATM   19  C   UNL     1       0.075   6.153 -28.926  1.00  0.00     0.074 A 
HETATM   20  C   UNL     1      -0.421   7.389 -28.814  1.00  0.00     0.007 A 
HETATM   21  C   UNL     1      -1.168   7.980 -29.892  1.00  0.00     0.026 A 
ENDBRANCH   5   7
ENDBRANCH   2   5
BRANCH   1  22
HETATM   22  C   UNL     1      -5.433   1.991 -32.345  1.00  0.00     0.080 A 
HETATM   23  C   UNL     1      -4.948   0.713 -32.095  1.00  0.00     0.137 A 
HETATM   24  N   UNL     1      -5.894  -0.176 -32.541  1.00  0.00    -0.349 N 
HETATM   25  H   UNL     1      -5.808  -1.183 -32.475  1.00  0.00     0.166 HD
HETATM   26  C   UNL     1      -6.956   0.483 -33.108  1.00  0.00     0.045 A 
HETATM   27  C   UNL     1      -6.694   1.856 -33.014  1.00  0.00     0.023 A 
HETATM   28  C   UNL     1      -8.110  -0.044 -33.705  1.00  0.00     0.033 A 
HETATM   29  C   UNL     1      -7.635   2.736 -33.594  1.00  0.00     0.058 A 
HETATM   30  C   UNL     1      -8.788   2.219 -34.187  1.00  0.00     0.117 A 
HETATM   31  C   UNL     1      -9.030   0.855 -34.242  1.00  0.00     0.044 A 
HETATM   32  F   UNL     1      -9.679   3.063 -34.725  1.00  0.00    -0.206 F 
BRANCH  23  33
HETATM   33  C   UNL     1      -3.708   0.339 -31.460  1.00  0.00     0.312 C 
HETATM   34  O   UNL     1      -2.818   1.136 -31.184  1.00  0.00    -0.258 OA
BRANCH  33  35
HETATM   35  O   UNL     1      -3.691  -0.998 -31.216  1.00  0.00    -0.317 OA
BRANCH  35  36
HETATM   36  C   UNL     1      -2.717  -1.757 -31.948  1.00  0.00     0.175 C 
HETATM   37  C   UNL     1      -3.048  -3.236 -31.887  1.00  0.00     0.034 C 
ENDBRANCH  35  36
ENDBRANCH  33  35
ENDBRANCH  23  33
ENDBRANCH   1  22
TORSDOF 6
ENDMDL
MODEL 4
REMARK VINA RESULT:      -8.6      2.650      4.067
REMARK  6 active torsions:
REMARK  status: ('A' for Active; 'I' for Inactive)
REMARK    1  A    between atoms: C_2  and  O_3 
REMARK    2  A    between atoms: O_3  and  C_4 
REMARK    3  A    between atoms: C_4  and  C_5 
REMARK    4  A    between atoms: C_10  and  N_11 
REMARK       I    between atoms: N_11  and  C_12 
REMARK    5  A    between atoms: C_12  and  C_13 
REMARK    6  A    between atoms: C_13  and  N_14 
ROOT
HETATM    1  N   UNL     1      -4.728   3.432 -32.554  1.00  0.00    -0.322 N 
HETATM    2  C   UNL     1      -4.728   3.901 -31.259  1.00  0.00     0.253 C 
HETATM    3  O   UNL     1      -5.311   3.340 -30.335  1.00  0.00    -0.271 OA
HETATM    4  H   UNL     1      -3.962   3.673 -33.180  1.00  0.00     0.169 HD
ENDROOT
BRANCH   2   5
HETATM    5  C   UNL     1      -3.947   5.232 -30.997  1.00  0.00     0.275 C 
HETATM    6  C   UNL     1      -4.537   6.049 -29.834  1.00  0.00     0.050 C 
BRANCH   5   7
HETATM    7  N   UNL     1      -3.827   6.232 -32.227  1.00  0.00    -0.058 N 
HETATM    8  H   UNL     1      -4.785   6.229 -32.600  1.00  0.00     0.281 HD
HETATM    9  C   UNL     1      -3.546   7.680 -31.825  1.00  0.00     0.246 C 
HETATM   10  C   UNL     1      -2.048   8.054 -31.822  1.00  0.00     0.062 C 
HETATM   11  C   UNL     1      -1.442   7.763 -33.189  1.00  0.00     0.020 C 
HETATM   12  C   UNL     1      -1.292   7.326 -30.731  1.00  0.00     0.020 A 
HETATM   13  C   UNL     1      -1.538   6.260 -33.413  1.00  0.00     0.031 C 
HETATM   14  C   UNL     1      -0.663   5.554 -32.379  1.00  0.00     0.138 C 
HETATM   15  C   UNL     1      -3.009   5.827 -33.443  1.00  0.00     0.242 C 
HETATM   16  N   UNL     1      -0.736   6.074 -31.012  1.00  0.00    -0.317 N 
HETATM   17  C   UNL     1      -0.043   5.331 -30.043  1.00  0.00     0.247 A 
HETATM   18  O   UNL     1       0.459   4.231 -30.248  1.00  0.00    -0.268 OA
HETATM   19  C   UNL     1       0.054   5.937 -28.693  1.00  0.00     0.074 A 
HETATM   20  C   UNL     1      -0.480   7.140 -28.457  1.00  0.00     0.007 A 
HETATM   21  C   UNL     1      -1.167   7.854 -29.500  1.00  0.00     0.026 A 
ENDBRANCH   5   7
ENDBRANCH   2   5
BRANCH   1  22
HETATM   22  C   UNL     1      -5.528   2.406 -33.059  1.00  0.00     0.080 A 
HETATM   23  C   UNL     1      -6.808   2.682 -33.525  1.00  0.00     0.137 A 
HETATM   24  N   UNL     1      -7.347   1.497 -33.960  1.00  0.00    -0.349 N 
HETATM   25  H   UNL     1      -8.272   1.404 -34.362  1.00  0.00     0.166 HD
HETATM   26  C   UNL     1      -6.475   0.457 -33.753  1.00  0.00     0.045 A 
HETATM   27  C   UNL     1      -5.318   0.992 -33.172  1.00  0.00     0.023 A 
HETATM   28  C   UNL     1      -6.643  -0.908 -34.026  1.00  0.00     0.033 A 
HETATM   29  C   UNL     1      -4.297   0.086 -32.812  1.00  0.00     0.058 A 
HETATM   30  C   UNL     1      -4.454  -1.274 -33.083  1.00  0.00     0.117 A 
HETATM   31  C   UNL     1      -5.602  -1.769 -33.683  1.00  0.00     0.044 A 
HETATM   32  F   UNL     1      -3.474  -2.124 -32.748  1.00  0.00    -0.206 F 
BRANCH  23  33
HETATM   33  C   UNL     1      -7.476   3.959 -33.592  1.00  0.00     0.312 C 
HETATM   34  O   UNL     1      -7.023   4.933 -34.183  1.00  0.00    -0.258 OA
BRANCH  33  35
HETATM   35  O   UNL     1      -8.657   3.906 -32.922  1.00  0.00    -0.317 OA
BRANCH  35  36
HETATM   36  C   UNL     1      -8.581   4.101 -31.501  1.00  0.00     0.175 C 
HETATM   37  C   UNL     1      -9.185   2.915 -30.774  1.00  0.00     0.034 C 
ENDBRANCH  35  36
ENDBRANCH  33  35
ENDBRANCH  23  33
ENDBRANCH   1  22
TORSDOF 6
ENDMDL
MODEL 5
REMARK VINA RESULT:      -8.3      3.552      6.184
REMARK  6 active torsions:
REMARK  status: ('A' for Active; 'I' for Inactive)
REMARK    1  A    between atoms: C_2  and  O_3 
REMARK    2  A    between atoms: O_3  and  C_4 
REMARK    3  A    between atoms: C_4  and  C_5 
REMARK    4  A    between atoms: C_10  and  N_11 
REMARK       I    between atoms: N_11  and  C_12 
REMARK    5  A    between atoms: C_12  and  C_13 
REMARK    6  A    between atoms: C_13  and  N_14 
ROOT
HETATM    1  N   UNL     1      -7.761   2.350 -33.026  1.00  0.00    -0.322 N 
HETATM    2  C   UNL     1      -8.638   2.456 -31.970  1.00  0.00     0.253 C 
HETATM    3  O   UNL     1      -8.398   2.026 -30.845  1.00  0.00    -0.271 OA
HETATM    4  H   UNL     1      -7.806   3.020 -33.792  1.00  0.00     0.169 HD
ENDROOT
BRANCH   2   5
HETATM    5  C   UNL     1     -10.008   3.154 -32.265  1.00  0.00     0.275 C 
HETATM    6  C   UNL     1     -10.546   3.942 -31.059  1.00  0.00     0.050 C 
BRANCH   5   7
HETATM    7  N   UNL     1     -11.192   2.209 -32.745  1.00  0.00    -0.058 N 
HETATM    8  H   UNL     1     -11.084   1.398 -32.122  1.00  0.00     0.281 HD
HETATM    9  C   UNL     1     -12.586   2.766 -32.458  1.00  0.00     0.246 C 
HETATM   10  C   UNL     1     -13.204   3.553 -33.633  1.00  0.00     0.062 C 
HETATM   11  C   UNL     1     -13.236   2.677 -34.879  1.00  0.00     0.020 C 
HETATM   12  C   UNL     1     -12.455   4.842 -33.899  1.00  0.00     0.020 A 
HETATM   13  C   UNL     1     -11.792   2.365 -35.247  1.00  0.00     0.031 C 
HETATM   14  C   UNL     1     -11.093   3.667 -35.635  1.00  0.00     0.138 C 
HETATM   15  C   UNL     1     -11.126   1.566 -34.121  1.00  0.00     0.242 C 
HETATM   16  N   UNL     1     -11.375   4.826 -34.786  1.00  0.00    -0.317 N 
HETATM   17  C   UNL     1     -10.619   5.977 -35.062  1.00  0.00     0.247 A 
HETATM   18  O   UNL     1      -9.666   6.006 -35.834  1.00  0.00    -0.268 OA
HETATM   19  C   UNL     1     -11.016   7.213 -34.345  1.00  0.00     0.074 A 
HETATM   20  C   UNL     1     -12.059   7.199 -33.510  1.00  0.00     0.007 A 
HETATM   21  C   UNL     1     -12.799   5.987 -33.281  1.00  0.00     0.026 A 
ENDBRANCH   5   7
ENDBRANCH   2   5
BRANCH   1  22
HETATM   22  C   UNL     1      -6.597   1.582 -33.057  1.00  0.00     0.080 A 
HETATM   23  C   UNL     1      -5.376   2.145 -32.706  1.00  0.00     0.137 A 
HETATM   24  N   UNL     1      -4.425   1.162 -32.824  1.00  0.00    -0.349 N 
HETATM   25  H   UNL     1      -3.441   1.292 -32.620  1.00  0.00     0.166 HD
HETATM   26  C   UNL     1      -4.982  -0.006 -33.280  1.00  0.00     0.045 A 
HETATM   27  C   UNL     1      -6.353   0.224 -33.451  1.00  0.00     0.023 A 
HETATM   28  C   UNL     1      -4.364  -1.232 -33.562  1.00  0.00     0.033 A 
HETATM   29  C   UNL     1      -7.127  -0.834 -33.976  1.00  0.00     0.058 A 
HETATM   30  C   UNL     1      -6.519  -2.059 -34.257  1.00  0.00     0.117 A 
HETATM   31  C   UNL     1      -5.164  -2.264 -34.052  1.00  0.00     0.044 A 
HETATM   32  F   UNL     1      -7.264  -3.061 -34.744  1.00  0.00    -0.206 F 
BRANCH  23  33
HETATM   33  C   UNL     1      -5.111   3.491 -32.262  1.00  0.00     0.312 C 
HETATM   34  O   UNL     1      -5.606   3.985 -31.254  1.00  0.00    -0.258 OA
BRANCH  33  35
HETATM   35  O   UNL     1      -4.244   4.103 -33.111  1.00  0.00    -0.317 OA
BRANCH  35  36
HETATM   36  C   UNL     1      -4.838   4.852 -34.183  1.00  0.00     0.175 C 
HETATM   37  C   UNL     1      -3.786   5.224 -35.210  1.00  0.00     0.034 C 
ENDBRANCH  35  36
ENDBRANCH  33  35
ENDBRANCH  23  33
ENDBRANCH   1  22
TORSDOF 6
ENDMDL
MODEL 6
REMARK VINA RESULT:      -8.1      3.662      5.982
REMARK  6 active torsions:
REMARK  status: ('A' for Active; 'I' for Inactive)
REMARK    1  A    between atoms: C_2  and  O_3 
REMARK    2  A    between atoms: O_3  and  C_4 
REMARK    3  A    between atoms: C_4  and  C_5 
REMARK    4  A    between atoms: C_10  and  N_11 
REMARK       I    between atoms: N_11  and  C_12 
REMARK    5  A    between atoms: C_12  and  C_13 
REMARK    6  A    between atoms: C_13  and  N_14 
ROOT
HETATM    1  N   UNL     1      -4.344   4.553 -30.455  1.00  0.00    -0.322 N 
HETATM    2  C   UNL     1      -5.119   5.463 -29.770  1.00  0.00     0.253 C 
HETATM    3  O   UNL     1      -6.347   5.438 -29.766  1.00  0.00    -0.271 OA
HETATM    4  H   UNL     1      -3.394   4.362 -30.144  1.00  0.00     0.169 HD
ENDROOT
BRANCH   2   5
HETATM    5  C   UNL     1      -4.356   6.580 -28.984  1.00  0.00     0.275 C 
HETATM    6  C   UNL     1      -4.802   6.683 -27.515  1.00  0.00     0.050 C 
BRANCH   5   7
HETATM    7  N   UNL     1      -4.447   8.051 -29.581  1.00  0.00    -0.058 N 
HETATM    8  H   UNL     1      -5.462   8.209 -29.606  1.00  0.00     0.281 HD
HETATM    9  C   UNL     1      -3.884   9.132 -28.658  1.00  0.00     0.246 C 
HETATM   10  C   UNL     1      -2.407   9.487 -28.931  1.00  0.00     0.062 C 
HETATM   11  C   UNL     1      -2.238   9.901 -30.387  1.00  0.00     0.020 C 
HETATM   12  C   UNL     1      -1.482   8.339 -28.585  1.00  0.00     0.020 A 
HETATM   13  C   UNL     1      -2.583   8.689 -31.242  1.00  0.00     0.031 C 
HETATM   14  C   UNL     1      -1.557   7.590 -30.970  1.00  0.00     0.138 C 
HETATM   15  C   UNL     1      -4.049   8.296 -31.027  1.00  0.00     0.242 C 
HETATM   16  N   UNL     1      -1.189   7.387 -29.567  1.00  0.00    -0.317 N 
HETATM   17  C   UNL     1      -0.360   6.283 -29.312  1.00  0.00     0.247 A 
HETATM   18  O   UNL     1      -0.077   5.427 -30.144  1.00  0.00    -0.268 OA
HETATM   19  C   UNL     1       0.176   6.166 -27.934  1.00  0.00     0.074 A 
HETATM   20  C   UNL     1      -0.115   7.097 -27.020  1.00  0.00     0.007 A 
HETATM   21  C   UNL     1      -0.961   8.211 -27.352  1.00  0.00     0.026 A 
ENDBRANCH   5   7
ENDBRANCH   2   5
BRANCH   1  22
HETATM   22  C   UNL     1      -4.797   3.623 -31.391  1.00  0.00     0.080 A 
HETATM   23  C   UNL     1      -4.777   3.927 -32.747  1.00  0.00     0.137 A 
HETATM   24  N   UNL     1      -5.270   2.835 -33.417  1.00  0.00    -0.349 N 
HETATM   25  H   UNL     1      -5.359   2.775 -34.424  1.00  0.00     0.166 HD
HETATM   26  C   UNL     1      -5.647   1.851 -32.538  1.00  0.00     0.045 A 
HETATM   27  C   UNL     1      -5.376   2.319 -31.246  1.00  0.00     0.023 A 
HETATM   28  C   UNL     1      -6.220   0.599 -32.802  1.00  0.00     0.033 A 
HETATM   29  C   UNL     1      -5.744   1.487 -30.166  1.00  0.00     0.058 A 
HETATM   30  C   UNL     1      -6.311   0.237 -30.420  1.00  0.00     0.117 A 
HETATM   31  C   UNL     1      -6.544  -0.208 -31.711  1.00  0.00     0.044 A 
HETATM   32  F   UNL     1      -6.646  -0.549 -29.388  1.00  0.00    -0.206 F 
BRANCH  23  33
HETATM   33  C   UNL     1      -4.304   5.133 -33.383  1.00  0.00     0.312 C 
HETATM   34  O   UNL     1      -4.978   5.801 -34.160  1.00  0.00    -0.258 OA
BRANCH  33  35
HETATM   35  O   UNL     1      -3.034   5.405 -32.985  1.00  0.00    -0.317 OA
BRANCH  35  36
HETATM   36  C   UNL     1      -2.001   4.622 -33.603  1.00  0.00     0.175 C 
HETATM   37  C   UNL     1      -1.429   5.357 -34.800  1.00  0.00     0.034 C 
ENDBRANCH  35  36
ENDBRANCH  33  35
ENDBRANCH  23  33
ENDBRANCH   1  22
TORSDOF 6
ENDMDL
MODEL 7
REMARK VINA RESULT:      -8.1      3.214      7.716
REMARK  6 active torsions:
REMARK  status: ('A' for Active; 'I' for Inactive)
REMARK    1  A    between atoms: C_2  and  O_3 
REMARK    2  A    between atoms: O_3  and  C_4 
REMARK    3  A    between atoms: C_4  and  C_5 
REMARK    4  A    between atoms: C_10  and  N_11 
REMARK       I    between atoms: N_11  and  C_12 
REMARK    5  A    between atoms: C_12  and  C_13 
REMARK    6  A    between atoms: C_13  and  N_14 
ROOT
HETATM    1  N   UNL     1      -4.592   5.165 -31.817  1.00  0.00    -0.322 N 
HETATM    2  C   UNL     1      -4.663   3.790 -31.859  1.00  0.00     0.253 C 
HETATM    3  O   UNL     1      -4.108   3.058 -31.044  1.00  0.00    -0.271 OA
HETATM    4  H   UNL     1      -5.334   5.723 -32.234  1.00  0.00     0.169 HD
ENDROOT
BRANCH   2   5
HETATM    5  C   UNL     1      -5.489   3.168 -33.035  1.00  0.00     0.275 C 
HETATM    6  C   UNL     1      -5.347   3.960 -34.346  1.00  0.00     0.050 C 
BRANCH   5   7
HETATM    7  N   UNL     1      -7.049   2.994 -32.786  1.00  0.00    -0.058 N 
HETATM    8  H   UNL     1      -7.414   3.914 -33.066  1.00  0.00     0.281 HD
HETATM    9  C   UNL     1      -7.718   1.985 -33.718  1.00  0.00     0.246 C 
HETATM   10  C   UNL     1      -7.820   0.559 -33.134  1.00  0.00     0.062 C 
HETATM   11  C   UNL     1      -8.549   0.602 -31.798  1.00  0.00     0.020 C 
HETATM   12  C   UNL     1      -6.457  -0.083 -32.985  1.00  0.00     0.020 A 
HETATM   13  C   UNL     1      -7.695   1.427 -30.845  1.00  0.00     0.031 C 
HETATM   14  C   UNL     1      -6.376   0.692 -30.609  1.00  0.00     0.138 C 
HETATM   15  C   UNL     1      -7.570   2.864 -31.364  1.00  0.00     0.242 C 
HETATM   16  N   UNL     1      -5.750   0.100 -31.793  1.00  0.00    -0.317 N 
HETATM   17  C   UNL     1      -4.471  -0.444 -31.593  1.00  0.00     0.247 A 
HETATM   18  O   UNL     1      -3.818  -0.309 -30.564  1.00  0.00    -0.268 OA
HETATM   19  C   UNL     1      -3.897  -1.212 -32.725  1.00  0.00     0.074 A 
HETATM   20  C   UNL     1      -4.602  -1.378 -33.849  1.00  0.00     0.007 A 
HETATM   21  C   UNL     1      -5.913  -0.803 -33.983  1.00  0.00     0.026 A 
ENDBRANCH   5   7
ENDBRANCH   2   5
BRANCH   1  22
HETATM   22  C   UNL     1      -3.744   5.922 -31.008  1.00  0.00     0.080 A 
HETATM   23  C   UNL     1      -4.259   6.929 -30.202  1.00  0.00     0.137 A 
HETATM   24  N   UNL     1      -3.204   7.490 -29.526  1.00  0.00    -0.349 N 
HETATM   25  H   UNL     1      -3.291   8.245 -28.857  1.00  0.00     0.166 HD
HETATM   26  C   UNL     1      -2.018   6.907 -29.899  1.00  0.00     0.045 A 
HETATM   27  C   UNL     1      -2.319   5.919 -30.846  1.00  0.00     0.023 A 
HETATM   28  C   UNL     1      -0.715   7.200 -29.475  1.00  0.00     0.033 A 
HETATM   29  C   UNL     1      -1.233   5.222 -31.421  1.00  0.00     0.058 A 
HETATM   30  C   UNL     1       0.068   5.506 -31.001  1.00  0.00     0.117 A 
HETATM   31  C   UNL     1       0.330   6.472 -30.043  1.00  0.00     0.044 A 
HETATM   32  F   UNL     1       1.090   4.830 -31.545  1.00  0.00    -0.206 F 
BRANCH  23  33
HETATM   33  C   UNL     1      -5.636   7.326 -30.043  1.00  0.00     0.312 C 
HETATM   34  O   UNL     1      -6.014   8.493 -30.055  1.00  0.00    -0.258 OA
BRANCH  33  35
HETATM   35  O   UNL     1      -6.425   6.230 -29.892  1.00  0.00    -0.317 OA
BRANCH  35  36
HETATM   36  C   UNL     1      -6.763   5.881 -28.541  1.00  0.00     0.175 C 
HETATM   37  C   UNL     1      -8.178   6.325 -28.221  1.00  0.00     0.034 C 
ENDBRANCH  35  36
ENDBRANCH  33  35
ENDBRANCH  23  33
ENDBRANCH   1  22
TORSDOF 6
ENDMDL
MODEL 8
REMARK VINA RESULT:      -7.9      3.034      4.647
REMARK  6 active torsions:
REMARK  status: ('A' for Active; 'I' for Inactive)
REMARK    1  A    between atoms: C_2  and  O_3 
REMARK    2  A    between atoms: O_3  and  C_4 
REMARK    3  A    between atoms: C_4  and  C_5 
REMARK    4  A    between atoms: C_10  and  N_11 
REMARK       I    between atoms: N_11  and  C_12 
REMARK    5  A    between atoms: C_12  and  C_13 
REMARK    6  A    between atoms: C_13  and  N_14 
ROOT
HETATM    1  N   UNL     1      -4.678   3.603 -32.839  1.00  0.00    -0.322 N 
HETATM    2  C   UNL     1      -4.611   4.210 -31.605  1.00  0.00     0.253 C 
HETATM    3  O   UNL     1      -5.185   3.781 -30.607  1.00  0.00    -0.271 OA
HETATM    4  H   UNL     1      -3.926   3.738 -33.512  1.00  0.00     0.169 HD
ENDROOT
BRANCH   2   5
HETATM    5  C   UNL     1      -3.763   5.523 -31.516  1.00  0.00     0.275 C 
HETATM    6  C   UNL     1      -4.533   6.762 -32.002  1.00  0.00     0.050 C 
BRANCH   5   7
HETATM    7  N   UNL     1      -2.379   5.522 -32.299  1.00  0.00    -0.058 N 
HETATM    8  H   UNL     1      -2.595   4.933 -33.113  1.00  0.00     0.281 HD
HETATM    9  C   UNL     1      -1.989   6.886 -32.870  1.00  0.00     0.246 C 
HETATM   10  C   UNL     1      -1.069   7.715 -31.949  1.00  0.00     0.062 C 
HETATM   11  C   UNL     1       0.180   6.911 -31.611  1.00  0.00     0.020 C 
HETATM   12  C   UNL     1      -1.786   8.153 -30.689  1.00  0.00     0.020 A 
HETATM   13  C   UNL     1      -0.271   5.687 -30.825  1.00  0.00     0.031 C 
HETATM   14  C   UNL     1      -0.874   6.151 -29.501  1.00  0.00     0.138 C 
HETATM   15  C   UNL     1      -1.179   4.811 -31.696  1.00  0.00     0.242 C 
HETATM   16  N   UNL     1      -1.759   7.316 -29.570  1.00  0.00    -0.317 N 
HETATM   17  C   UNL     1      -2.421   7.645 -28.376  1.00  0.00     0.247 A 
HETATM   18  O   UNL     1      -2.422   6.941 -27.372  1.00  0.00    -0.268 OA
HETATM   19  C   UNL     1      -3.172   8.924 -28.370  1.00  0.00     0.074 A 
HETATM   20  C   UNL     1      -3.171   9.707 -29.454  1.00  0.00     0.007 A 
HETATM   21  C   UNL     1      -2.461   9.316 -30.641  1.00  0.00     0.026 A 
ENDBRANCH   5   7
ENDBRANCH   2   5
BRANCH   1  22
HETATM   22  C   UNL     1      -5.541   2.569 -33.204  1.00  0.00     0.080 A 
HETATM   23  C   UNL     1      -6.836   2.851 -33.621  1.00  0.00     0.137 A 
HETATM   24  N   UNL     1      -7.439   1.654 -33.915  1.00  0.00    -0.349 N 
HETATM   25  H   UNL     1      -8.389   1.561 -34.255  1.00  0.00     0.166 HD
HETATM   26  C   UNL     1      -6.592   0.604 -33.663  1.00  0.00     0.045 A 
HETATM   27  C   UNL     1      -5.385   1.143 -33.198  1.00  0.00     0.023 A 
HETATM   28  C   UNL     1      -6.821  -0.773 -33.799  1.00  0.00     0.033 A 
HETATM   29  C   UNL     1      -4.376   0.234 -32.814  1.00  0.00     0.058 A 
HETATM   30  C   UNL     1      -4.595  -1.138 -32.950  1.00  0.00     0.117 A 
HETATM   31  C   UNL     1      -5.791  -1.640 -33.437  1.00  0.00     0.044 A 
HETATM   32  F   UNL     1      -3.625  -1.992 -32.594  1.00  0.00    -0.206 F 
BRANCH  23  33
HETATM   33  C   UNL     1      -7.463   4.142 -33.767  1.00  0.00     0.312 C 
HETATM   34  O   UNL     1      -6.877   5.141 -34.171  1.00  0.00    -0.258 OA
BRANCH  33  35
HETATM   35  O   UNL     1      -8.771   4.071 -33.405  1.00  0.00    -0.317 OA
BRANCH  35  36
HETATM   36  C   UNL     1      -9.723   4.431 -34.417  1.00  0.00     0.175 C 
HETATM   37  C   UNL     1     -10.682   3.282 -34.669  1.00  0.00     0.034 C 
ENDBRANCH  35  36
ENDBRANCH  33  35
ENDBRANCH  23  33
ENDBRANCH   1  22
TORSDOF 6
ENDMDL
MODEL 9
REMARK VINA RESULT:      -7.8      3.702      8.785
REMARK  6 active torsions:
REMARK  status: ('A' for Active; 'I' for Inactive)
REMARK    1  A    between atoms: C_2  and  O_3 
REMARK    2  A    between atoms: O_3  and  C_4 
REMARK    3  A    between atoms: C_4  and  C_5 
REMARK    4  A    between atoms: C_10  and  N_11 
REMARK       I    between atoms: N_11  and  C_12 
REMARK    5  A    between atoms: C_12  and  C_13 
REMARK    6  A    between atoms: C_13  and  N_14 
ROOT
HETATM    1  N   UNL     1      -3.975   4.899 -30.608  1.00  0.00    -0.322 N 
HETATM    2  C   UNL     1      -5.002   4.674 -31.498  1.00  0.00     0.253 C 
HETATM    3  O   UNL     1      -5.275   5.433 -32.424  1.00  0.00    -0.271 OA
HETATM    4  H   UNL     1      -3.541   4.115 -30.126  1.00  0.00     0.169 HD
ENDROOT
BRANCH   2   5
HETATM    5  C   UNL     1      -5.851   3.378 -31.273  1.00  0.00     0.275 C 
HETATM    6  C   UNL     1      -7.117   3.635 -30.438  1.00  0.00     0.050 C 
BRANCH   5   7
HETATM    7  N   UNL     1      -5.103   2.156 -30.583  1.00  0.00    -0.058 N 
HETATM    8  H   UNL     1      -4.582   2.622 -29.829  1.00  0.00     0.281 HD
HETATM    9  C   UNL     1      -6.040   1.169 -29.886  1.00  0.00     0.246 C 
HETATM   10  C   UNL     1      -6.455  -0.031 -30.763  1.00  0.00     0.062 C 
HETATM   11  C   UNL     1      -5.213  -0.754 -31.268  1.00  0.00     0.020 C 
HETATM   12  C   UNL     1      -7.336   0.397 -31.918  1.00  0.00     0.020 A 
HETATM   13  C   UNL     1      -4.455   0.222 -32.157  1.00  0.00     0.031 C 
HETATM   14  C   UNL     1      -5.314   0.538 -33.381  1.00  0.00     0.138 C 
HETATM   15  C   UNL     1      -3.999   1.433 -31.336  1.00  0.00     0.242 C 
HETATM   16  N   UNL     1      -6.737   0.769 -33.124  1.00  0.00    -0.317 N 
HETATM   17  C   UNL     1      -7.488   1.201 -34.229  1.00  0.00     0.247 A 
HETATM   18  O   UNL     1      -7.003   1.535 -35.305  1.00  0.00    -0.268 OA
HETATM   19  C   UNL     1      -8.959   1.261 -34.043  1.00  0.00     0.074 A 
HETATM   20  C   UNL     1      -9.503   0.889 -32.879  1.00  0.00     0.007 A 
HETATM   21  C   UNL     1      -8.675   0.445 -31.791  1.00  0.00     0.026 A 
ENDBRANCH   5   7
ENDBRANCH   2   5
BRANCH   1  22
HETATM   22  C   UNL     1      -3.242   6.079 -30.477  1.00  0.00     0.080 A 
HETATM   23  C   UNL     1      -1.943   6.154 -30.964  1.00  0.00     0.137 A 
HETATM   24  N   UNL     1      -1.482   7.420 -30.702  1.00  0.00    -0.349 N 
HETATM   25  H   UNL     1      -0.562   7.758 -30.959  1.00  0.00     0.166 HD
HETATM   26  C   UNL     1      -2.424   8.154 -30.025  1.00  0.00     0.045 A 
HETATM   27  C   UNL     1      -3.547   7.334 -29.853  1.00  0.00     0.023 A 
HETATM   28  C   UNL     1      -2.347   9.470 -29.547  1.00  0.00     0.033 A 
HETATM   29  C   UNL     1      -4.630   7.867 -29.121  1.00  0.00     0.058 A 
HETATM   30  C   UNL     1      -4.563   9.177 -28.644  1.00  0.00     0.117 A 
HETATM   31  C   UNL     1      -3.447   9.972 -28.853  1.00  0.00     0.044 A 
HETATM   32  F   UNL     1      -5.602   9.676 -27.960  1.00  0.00    -0.206 F 
BRANCH  23  33
HETATM   33  C   UNL     1      -1.189   5.135 -31.653  1.00  0.00     0.312 C 
HETATM   34  O   UNL     1      -0.105   4.712 -31.265  1.00  0.00    -0.258 OA
BRANCH  33  35
HETATM   35  O   UNL     1      -1.860   4.725 -32.761  1.00  0.00    -0.317 OA
BRANCH  35  36
HETATM   36  C   UNL     1      -1.978   5.690 -33.817  1.00  0.00     0.175 C 
HETATM   37  C   UNL     1      -1.240   5.211 -35.053  1.00  0.00     0.034 C 
ENDBRANCH  35  36
ENDBRANCH  33  35
ENDBRANCH  23  33
ENDBRANCH   1  22
TORSDOF 6
ENDMDL
MODEL 10
REMARK VINA RESULT:      -7.8      3.576      8.367
REMARK  6 active torsions:
REMARK  status: ('A' for Active; 'I' for Inactive)
REMARK    1  A    between atoms: C_2  and  O_3 
REMARK    2  A    between atoms: O_3  and  C_4 
REMARK    3  A    between atoms: C_4  and  C_5 
REMARK    4  A    between atoms: C_10  and  N_11 
REMARK       I    between atoms: N_11  and  C_12 
REMARK    5  A    between atoms: C_12  and  C_13 
REMARK    6  A    between atoms: C_13  and  N_14 
ROOT
HETATM    1  N   UNL     1      -4.033   4.603 -31.473  1.00  0.00    -0.322 N 
HETATM    2  C   UNL     1      -5.113   4.619 -32.327  1.00  0.00     0.253 C 
HETATM    3  O   UNL     1      -5.629   5.651 -32.748  1.00  0.00    -0.271 OA
HETATM    4  H   UNL     1      -3.413   3.797 -31.455  1.00  0.00     0.169 HD
ENDROOT
BRANCH   2   5
HETATM    5  C   UNL     1      -5.693   3.227 -32.746  1.00  0.00     0.275 C 
HETATM    6  C   UNL     1      -6.036   3.152 -34.244  1.00  0.00     0.050 C 
BRANCH   5   7
HETATM    7  N   UNL     1      -6.991   2.740 -31.968  1.00  0.00    -0.058 N 
HETATM    8  H   UNL     1      -7.637   3.525 -32.117  1.00  0.00     0.281 HD
HETATM    9  C   UNL     1      -7.671   1.523 -32.594  1.00  0.00     0.246 C 
HETATM   10  C   UNL     1      -7.227   0.173 -31.991  1.00  0.00     0.062 C 
HETATM   11  C   UNL     1      -7.455   0.183 -30.485  1.00  0.00     0.020 C 
HETATM   12  C   UNL     1      -5.781  -0.137 -32.316  1.00  0.00     0.020 A 
HETATM   13  C   UNL     1      -6.555   1.263 -29.901  1.00  0.00     0.031 C 
HETATM   14  C   UNL     1      -5.098   0.862 -30.128  1.00  0.00     0.138 C 
HETATM   15  C   UNL     1      -6.958   2.636 -30.452  1.00  0.00     0.242 C 
HETATM   16  N   UNL     1      -4.782   0.311 -31.448  1.00  0.00    -0.317 N 
HETATM   17  C   UNL     1      -3.419   0.082 -31.697  1.00  0.00     0.247 A 
HETATM   18  O   UNL     1      -2.511   0.456 -30.962  1.00  0.00    -0.268 OA
HETATM   19  C   UNL     1      -3.091  -0.647 -32.947  1.00  0.00     0.074 A 
HETATM   20  C   UNL     1      -4.070  -1.071 -33.753  1.00  0.00     0.007 A 
HETATM   21  C   UNL     1      -5.448  -0.813 -33.431  1.00  0.00     0.026 A 
ENDBRANCH   5   7
ENDBRANCH   2   5
BRANCH   1  22
HETATM   22  C   UNL     1      -3.500   5.702 -30.798  1.00  0.00     0.080 A 
HETATM   23  C   UNL     1      -2.189   6.100 -31.031  1.00  0.00     0.137 A 
HETATM   24  N   UNL     1      -1.949   7.196 -30.241  1.00  0.00    -0.349 N 
HETATM   25  H   UNL     1      -1.072   7.701 -30.217  1.00  0.00     0.166 HD
HETATM   26  C   UNL     1      -3.047   7.496 -29.474  1.00  0.00     0.045 A 
HETATM   27  C   UNL     1      -4.044   6.564 -29.789  1.00  0.00     0.023 A 
HETATM   28  C   UNL     1      -3.211   8.512 -28.521  1.00  0.00     0.033 A 
HETATM   29  C   UNL     1      -5.256   6.644 -29.068  1.00  0.00     0.058 A 
HETATM   30  C   UNL     1      -5.428   7.655 -28.120  1.00  0.00     0.117 A 
HETATM   31  C   UNL     1      -4.431   8.578 -27.849  1.00  0.00     0.044 A 
HETATM   32  F   UNL     1      -6.586   7.729 -27.449  1.00  0.00    -0.206 F 
BRANCH  23  33
HETATM   33  C   UNL     1      -1.234   5.524 -31.945  1.00  0.00     0.312 C 
HETATM   34  O   UNL     1      -0.378   4.711 -31.612  1.00  0.00    -0.258 OA
BRANCH  33  35
HETATM   35  O   UNL     1      -1.435   6.007 -33.199  1.00  0.00    -0.317 OA
BRANCH  35  36
HETATM   36  C   UNL     1      -1.642   5.025 -34.225  1.00  0.00     0.175 C 
HETATM   37  C   UNL     1      -2.915   5.328 -34.994  1.00  0.00     0.034 C 
ENDBRANCH  35  36
ENDBRANCH  33  35
ENDBRANCH  23  33
ENDBRANCH   1  22
TORSDOF 6
ENDMDL
