MODEL 1
REMARK VINA RESULT:      -8.1      0.000      0.000
REMARK  8 active torsions:
REMARK  status: ('A' for Active; 'I' for Inactive)
REMARK    1  A    between atoms: C_2  and  N_3 
REMARK       I    between atoms: N_3  and  C_4 
REMARK    2  A    between atoms: C_4  and  C_5 
REMARK    3  A    between atoms: C_5  and  O_6 
REMARK    4  A    between atoms: O_6  and  C_7 
REMARK    5  A    between atoms: C_11  and  C_12 
REMARK    6  A    between atoms: C_12  and  N_13 
REMARK    7  A    between atoms: N_13  and  C_14 
REMARK    8  A    between atoms: C_25  and  O_26 
ROOT
HETATM    1  C   UNL     1      -4.266   4.598 -31.165  1.00  0.00     0.124 A 
HETATM    2  C   UNL     1      -5.493   4.112 -30.697  1.00  0.00     0.070 A 
HETATM    3 CL   UNL     1      -6.774   5.193 -30.268  1.00  0.00    -0.081 Cl
HETATM    4  C   UNL     1      -5.720   2.736 -30.582  1.00  0.00     0.035 A 
HETATM    5  C   UNL     1      -4.714   1.817 -30.911  1.00  0.00    -0.041 A 
HETATM    6  C   UNL     1      -3.485   2.302 -31.381  1.00  0.00     0.048 A 
HETATM    7  C   UNL     1      -3.256   3.678 -31.478  1.00  0.00     0.103 A 
ENDROOT
BRANCH   5   8
HETATM    8  C   UNL     1      -4.961   0.332 -30.791  1.00  0.00     0.131 C 
BRANCH   8   9
HETATM    9  N   UNL     1      -5.172  -0.228 -32.117  1.00  0.00    -0.289 NA
HETATM   10  H   UNL     1      -4.921  -1.213 -32.166  1.00  0.00     0.128 HD
BRANCH   9  11
HETATM   11  C   UNL     1      -6.374   0.039 -32.789  1.00  0.00     0.010 A 
HETATM   12  C   UNL     1      -7.620   0.095 -32.140  1.00  0.00     0.055 A 
HETATM   13  C   UNL     1      -8.718   0.452 -32.891  1.00  0.00     0.065 A 
HETATM   14  C   UNL     1      -8.628   0.773 -34.242  1.00  0.00     0.063 A 
HETATM   15  N   UNL     1     -10.051   0.577 -32.510  1.00  0.00    -0.306 N 
HETATM   16  N   UNL     1      -9.902   1.092 -34.694  1.00  0.00    -0.307 N 
HETATM   17  C   UNL     1      -7.431   0.766 -34.909  1.00  0.00     0.034 A 
HETATM   18  C   UNL     1     -10.802   0.979 -33.625  1.00  0.00     0.325 A 
HETATM   19  H   UNL     1     -10.168   1.378 -35.623  1.00  0.00     0.170 HD
HETATM   20  O   UNL     1     -12.000   1.189 -33.656  1.00  0.00    -0.247 OA
HETATM   21  C   UNL     1      -6.300   0.410 -34.162  1.00  0.00     0.026 A 
HETATM   22  H   UNL     1     -10.444   0.428 -31.596  1.00  0.00     0.170 HD
ENDBRANCH   9  11
ENDBRANCH   8   9
ENDBRANCH   5   8
BRANCH   7  23
HETATM   23  O   UNL     1      -2.030   4.087 -31.933  1.00  0.00    -0.353 OA
HETATM   24  C   UNL     1      -2.116   4.463 -33.308  1.00  0.00     0.210 C 
ENDBRANCH   7  23
BRANCH   1  25
HETATM   25  O   UNL     1      -4.095   5.958 -31.211  1.00  0.00    -0.337 OA
BRANCH  25  26
HETATM   26  C   UNL     1      -3.710   6.546 -29.966  1.00  0.00     0.278 C 
BRANCH  26  27
HETATM   27  C   UNL     1      -2.270   7.059 -30.038  1.00  0.00     0.242 C 
HETATM   28  N   UNL     1      -1.315   6.092 -29.800  1.00  0.00    -0.351 N 
HETATM   29  H   UNL     1      -1.664   5.137 -29.775  1.00  0.00     0.163 HD
HETATM   30  O   UNL     1      -2.018   8.242 -30.250  1.00  0.00    -0.271 OA
BRANCH  28  31
HETATM   31  C   UNL     1       0.138   6.296 -29.859  1.00  0.00     0.022 C 
HETATM   32  C   UNL     1       0.599   7.322 -28.812  1.00  0.00     0.037 C 
HETATM   33  C   UNL     1       0.566   6.747 -31.264  1.00  0.00     0.037 C 
HETATM   34  C   UNL     1       0.821   4.951 -29.547  1.00  0.00     0.037 C 
ENDBRANCH  28  31
ENDBRANCH  26  27
ENDBRANCH  25  26
ENDBRANCH   1  25
TORSDOF 8
ENDMDL
MODEL 2
REMARK VINA RESULT:      -7.9      2.504      3.158
REMARK  8 active torsions:
REMARK  status: ('A' for Active; 'I' for Inactive)
REMARK    1  A    between atoms: C_2  and  N_3 
REMARK       I    between atoms: N_3  and  C_4 
REMARK    2  A    between atoms: C_4  and  C_5 
REMARK    3  A    between atoms: C_5  and  O_6 
REMARK    4  A    between atoms: O_6  and  C_7 
REMARK    5  A    between atoms: C_11  and  C_12 
REMARK    6  A    between atoms: C_12  and  N_13 
REMARK    7  A    between atoms: N_13  and  C_14 
REMARK    8  A    between atoms: C_25  and  O_26 
ROOT
HETATM    1  C   UNL     1      -4.665   5.437 -31.111  1.00  0.00     0.124 A 
HETATM    2  C   UNL     1      -6.043   5.283 -30.911  1.00  0.00     0.070 A 
HETATM    3 CL   UNL     1      -7.064   6.655 -30.655  1.00  0.00    -0.081 Cl
HETATM    4  C   UNL     1      -6.631   4.014 -30.932  1.00  0.00     0.035 A 
HETATM    5  C   UNL     1      -5.847   2.868 -31.130  1.00  0.00    -0.041 A 
HETATM    6  C   UNL     1      -4.468   3.021 -31.332  1.00  0.00     0.048 A 
HETATM    7  C   UNL     1      -3.882   4.290 -31.292  1.00  0.00     0.103 A 
ENDROOT
BRANCH   5   8
HETATM    8  C   UNL     1      -6.484   1.498 -31.157  1.00  0.00     0.131 C 
BRANCH   8   9
HETATM    9  N   UNL     1      -6.730   1.111 -32.538  1.00  0.00    -0.289 NA
HETATM   10  H   UNL     1      -6.557   1.872 -33.191  1.00  0.00     0.128 HD
BRANCH   9  11
HETATM   11  C   UNL     1      -6.218  -0.108 -33.008  1.00  0.00     0.010 A 
HETATM   12  C   UNL     1      -7.021  -1.103 -33.591  1.00  0.00     0.055 A 
HETATM   13  C   UNL     1      -6.393  -2.221 -34.093  1.00  0.00     0.065 A 
HETATM   14  C   UNL     1      -5.011  -2.380 -34.060  1.00  0.00     0.063 A 
HETATM   15  N   UNL     1      -6.937  -3.345 -34.708  1.00  0.00    -0.306 N 
HETATM   16  N   UNL     1      -4.704  -3.601 -34.649  1.00  0.00    -0.307 N 
HETATM   17  C   UNL     1      -4.184  -1.423 -33.532  1.00  0.00     0.034 A 
HETATM   18  C   UNL     1      -5.895  -4.214 -35.062  1.00  0.00     0.325 A 
HETATM   19  H   UNL     1      -3.790  -4.000 -34.787  1.00  0.00     0.170 HD
HETATM   20  O   UNL     1      -6.004  -5.289 -35.622  1.00  0.00    -0.247 OA
HETATM   21  C   UNL     1      -4.804  -0.275 -33.019  1.00  0.00     0.026 A 
HETATM   22  H   UNL     1      -7.908  -3.530 -34.897  1.00  0.00     0.170 HD
ENDBRANCH   9  11
ENDBRANCH   8   9
ENDBRANCH   5   8
BRANCH   7  23
HETATM   23  O   UNL     1      -2.528   4.369 -31.484  1.00  0.00    -0.353 OA
HETATM   24  C   UNL     1      -2.230   4.404 -32.881  1.00  0.00     0.210 C 
ENDBRANCH   7  23
BRANCH   1  25
HETATM   25  O   UNL     1      -4.148   6.706 -31.033  1.00  0.00    -0.337 OA
BRANCH  25  26
HETATM   26  C   UNL     1      -3.667   7.067 -29.736  1.00  0.00     0.278 C 
BRANCH  26  27
HETATM   27  C   UNL     1      -2.187   7.454 -29.802  1.00  0.00     0.242 C 
HETATM   28  N   UNL     1      -1.320   6.396 -29.620  1.00  0.00    -0.351 N 
HETATM   29  H   UNL     1      -1.753   5.476 -29.634  1.00  0.00     0.163 HD
HETATM   30  O   UNL     1      -1.833   8.618 -29.963  1.00  0.00    -0.271 OA
BRANCH  28  31
HETATM   31  C   UNL     1       0.145   6.473 -29.687  1.00  0.00     0.022 C 
HETATM   32  C   UNL     1       0.694   7.506 -28.691  1.00  0.00     0.037 C 
HETATM   33  C   UNL     1       0.605   6.818 -31.112  1.00  0.00     0.037 C 
HETATM   34  C   UNL     1       0.712   5.092 -29.309  1.00  0.00     0.037 C 
ENDBRANCH  28  31
ENDBRANCH  26  27
ENDBRANCH  25  26
ENDBRANCH   1  25
TORSDOF 8
ENDMDL
MODEL 3
REMARK VINA RESULT:      -7.9      1.205      1.961
REMARK  8 active torsions:
REMARK  status: ('A' for Active; 'I' for Inactive)
REMARK    1  A    between atoms: C_2  and  N_3 
REMARK       I    between atoms: N_3  and  C_4 
REMARK    2  A    between atoms: C_4  and  C_5 
REMARK    3  A    between atoms: C_5  and  O_6 
REMARK    4  A    between atoms: O_6  and  C_7 
REMARK    5  A    between atoms: C_11  and  C_12 
REMARK    6  A    between atoms: C_12  and  N_13 
REMARK    7  A    between atoms: N_13  and  C_14 
REMARK    8  A    between atoms: C_25  and  O_26 
ROOT
HETATM    1  C   UNL     1      -4.333   4.448 -31.028  1.00  0.00     0.124 A 
HETATM    2  C   UNL     1      -3.432   3.633 -31.725  1.00  0.00     0.070 A 
HETATM    3 CL   UNL     1      -2.132   4.320 -32.637  1.00  0.00    -0.081 Cl
HETATM    4  C   UNL     1      -3.550   2.240 -31.687  1.00  0.00     0.035 A 
HETATM    5  C   UNL     1      -4.588   1.631 -30.967  1.00  0.00    -0.041 A 
HETATM    6  C   UNL     1      -5.491   2.445 -30.267  1.00  0.00     0.048 A 
HETATM    7  C   UNL     1      -5.379   3.838 -30.323  1.00  0.00     0.103 A 
ENDROOT
BRANCH   5   8
HETATM    8  C   UNL     1      -4.713   0.127 -30.922  1.00  0.00     0.131 C 
BRANCH   8   9
HETATM    9  N   UNL     1      -4.975  -0.373 -32.263  1.00  0.00    -0.289 NA
HETATM   10  H   UNL     1      -4.730  -1.356 -32.365  1.00  0.00     0.128 HD
BRANCH   9  11
HETATM   11  C   UNL     1      -6.199  -0.071 -32.878  1.00  0.00     0.010 A 
HETATM   12  C   UNL     1      -7.420  -0.048 -32.184  1.00  0.00     0.055 A 
HETATM   13  C   UNL     1      -8.544   0.346 -32.877  1.00  0.00     0.065 A 
HETATM   14  C   UNL     1      -8.501   0.735 -34.212  1.00  0.00     0.063 A 
HETATM   15  N   UNL     1      -9.863   0.453 -32.444  1.00  0.00    -0.306 N 
HETATM   16  N   UNL     1      -9.789   1.077 -34.603  1.00  0.00    -0.307 N 
HETATM   17  C   UNL     1      -7.328   0.761 -34.921  1.00  0.00     0.034 A 
HETATM   18  C   UNL     1     -10.651   0.910 -33.510  1.00  0.00     0.325 A 
HETATM   19  H   UNL     1     -10.087   1.409 -35.506  1.00  0.00     0.170 HD
HETATM   20  O   UNL     1     -11.849   1.122 -33.489  1.00  0.00    -0.247 OA
HETATM   21  C   UNL     1      -6.172   0.367 -34.233  1.00  0.00     0.026 A 
HETATM   22  H   UNL     1     -10.223   0.259 -31.525  1.00  0.00     0.170 HD
ENDBRANCH   9  11
ENDBRANCH   8   9
ENDBRANCH   5   8
BRANCH   7  23
HETATM   23  O   UNL     1      -6.301   4.576 -29.628  1.00  0.00    -0.353 OA
HETATM   24  C   UNL     1      -7.603   4.389 -30.185  1.00  0.00     0.210 C 
ENDBRANCH   7  23
BRANCH   1  25
HETATM   25  O   UNL     1      -4.186   5.806 -31.146  1.00  0.00    -0.337 OA
BRANCH  25  26
HETATM   26  C   UNL     1      -3.735   6.456 -29.955  1.00  0.00     0.278 C 
BRANCH  26  27
HETATM   27  C   UNL     1      -2.308   6.978 -30.137  1.00  0.00     0.242 C 
HETATM   28  N   UNL     1      -1.329   6.105 -29.710  1.00  0.00    -0.351 N 
HETATM   29  H   UNL     1      -1.654   5.167 -29.488  1.00  0.00     0.163 HD
HETATM   30  O   UNL     1      -2.086   8.098 -30.589  1.00  0.00    -0.271 OA
BRANCH  28  31
HETATM   31  C   UNL     1       0.119   6.328 -29.816  1.00  0.00     0.022 C 
HETATM   32  C   UNL     1       0.586   7.423 -28.844  1.00  0.00     0.037 C 
HETATM   33  C   UNL     1       0.506   6.702 -31.255  1.00  0.00     0.037 C 
HETATM   34  C   UNL     1       0.832   5.016 -29.441  1.00  0.00     0.037 C 
ENDBRANCH  28  31
ENDBRANCH  26  27
ENDBRANCH  25  26
ENDBRANCH   1  25
TORSDOF 8
ENDMDL
MODEL 4
REMARK VINA RESULT:      -7.6      2.866      4.057
REMARK  8 active torsions:
REMARK  status: ('A' for Active; 'I' for Inactive)
REMARK    1  A    between atoms: C_2  and  N_3 
REMARK       I    between atoms: N_3  and  C_4 
REMARK    2  A    between atoms: C_4  and  C_5 
REMARK    3  A    between atoms: C_5  and  O_6 
REMARK    4  A    between atoms: O_6  and  C_7 
REMARK    5  A    between atoms: C_11  and  C_12 
REMARK    6  A    between atoms: C_12  and  N_13 
REMARK    7  A    between atoms: N_13  and  C_14 
REMARK    8  A    between atoms: C_25  and  O_26 
ROOT
HETATM    1  C   UNL     1      -3.044   5.489 -32.391  1.00  0.00     0.124 A 
HETATM    2  C   UNL     1      -3.209   5.147 -33.739  1.00  0.00     0.070 A 
HETATM    3 CL   UNL     1      -1.874   5.185 -34.838  1.00  0.00    -0.081 Cl
HETATM    4  C   UNL     1      -4.458   4.747 -34.227  1.00  0.00     0.035 A 
HETATM    5  C   UNL     1      -5.575   4.703 -33.379  1.00  0.00    -0.041 A 
HETATM    6  C   UNL     1      -5.410   5.045 -32.029  1.00  0.00     0.048 A 
HETATM    7  C   UNL     1      -4.164   5.461 -31.550  1.00  0.00     0.103 A 
ENDROOT
BRANCH   5   8
HETATM    8  C   UNL     1      -6.921   4.267 -33.906  1.00  0.00     0.131 C 
BRANCH   8   9
HETATM    9  N   UNL     1      -7.349   3.071 -33.196  1.00  0.00    -0.289 NA
HETATM   10  H   UNL     1      -8.333   3.104 -32.939  1.00  0.00     0.128 HD
BRANCH   9  11
HETATM   11  C   UNL     1      -6.979   1.813 -33.693  1.00  0.00     0.010 A 
HETATM   12  C   UNL     1      -5.876   1.090 -33.209  1.00  0.00     0.055 A 
HETATM   13  C   UNL     1      -5.663  -0.173 -33.716  1.00  0.00     0.065 A 
HETATM   14  C   UNL     1      -6.506  -0.751 -34.659  1.00  0.00     0.063 A 
HETATM   15  N   UNL     1      -4.658  -1.090 -33.422  1.00  0.00    -0.306 N 
HETATM   16  N   UNL     1      -6.020  -2.020 -34.950  1.00  0.00    -0.307 N 
HETATM   17  C   UNL     1      -7.613  -0.099 -35.137  1.00  0.00     0.034 A 
HETATM   18  C   UNL     1      -4.869  -2.249 -34.183  1.00  0.00     0.325 A 
HETATM   19  H   UNL     1      -6.413  -2.694 -35.586  1.00  0.00     0.170 HD
HETATM   20  O   UNL     1      -4.187  -3.257 -34.177  1.00  0.00    -0.247 OA
HETATM   21  C   UNL     1      -7.849   1.186 -34.630  1.00  0.00     0.026 A 
HETATM   22  H   UNL     1      -3.900  -0.981 -32.768  1.00  0.00     0.170 HD
ENDBRANCH   9  11
ENDBRANCH   8   9
ENDBRANCH   5   8
BRANCH   7  23
HETATM   23  O   UNL     1      -4.073   5.793 -30.223  1.00  0.00    -0.353 OA
HETATM   24  C   UNL     1      -4.542   7.127 -30.017  1.00  0.00     0.210 C 
ENDBRANCH   7  23
BRANCH   1  25
HETATM   25  O   UNL     1      -1.803   5.915 -31.990  1.00  0.00    -0.337 OA
BRANCH  25  26
HETATM   26  C   UNL     1      -1.009   4.908 -31.360  1.00  0.00     0.278 C 
BRANCH  26  27
HETATM   27  C   UNL     1      -0.277   5.483 -30.144  1.00  0.00     0.242 C 
HETATM   28  N   UNL     1      -0.974   6.475 -29.485  1.00  0.00    -0.351 N 
HETATM   29  H   UNL     1      -1.942   6.587 -29.774  1.00  0.00     0.163 HD
HETATM   30  O   UNL     1       0.848   5.103 -29.832  1.00  0.00    -0.271 OA
BRANCH  28  31
HETATM   31  C   UNL     1      -0.532   7.159 -28.263  1.00  0.00     0.022 C 
HETATM   32  C   UNL     1       0.762   7.952 -28.506  1.00  0.00     0.037 C 
HETATM   33  C   UNL     1      -0.326   6.151 -27.122  1.00  0.00     0.037 C 
HETATM   34  C   UNL     1      -1.633   8.152 -27.848  1.00  0.00     0.037 C 
ENDBRANCH  28  31
ENDBRANCH  26  27
ENDBRANCH  25  26
ENDBRANCH   1  25
TORSDOF 8
ENDMDL
MODEL 5
REMARK VINA RESULT:      -7.6      2.879      3.894
REMARK  8 active torsions:
REMARK  status: ('A' for Active; 'I' for Inactive)
REMARK    1  A    between atoms: C_2  and  N_3 
REMARK       I    between atoms: N_3  and  C_4 
REMARK    2  A    between atoms: C_4  and  C_5 
REMARK    3  A    between atoms: C_5  and  O_6 
REMARK    4  A    between atoms: O_6  and  C_7 
REMARK    5  A    between atoms: C_11  and  C_12 
REMARK    6  A    between atoms: C_12  and  N_13 
REMARK    7  A    between atoms: N_13  and  C_14 
REMARK    8  A    between atoms: C_25  and  O_26 
ROOT
HETATM    1  C   UNL     1      -4.988   5.875 -31.916  1.00  0.00     0.124 A 
HETATM    2  C   UNL     1      -4.357   5.477 -33.102  1.00  0.00     0.070 A 
HETATM    3 CL   UNL     1      -2.956   6.306 -33.687  1.00  0.00    -0.081 Cl
HETATM    4  C   UNL     1      -4.835   4.385 -33.834  1.00  0.00     0.035 A 
HETATM    5  C   UNL     1      -5.971   3.682 -33.407  1.00  0.00    -0.041 A 
HETATM    6  C   UNL     1      -6.602   4.078 -32.220  1.00  0.00     0.048 A 
HETATM    7  C   UNL     1      -6.131   5.181 -31.500  1.00  0.00     0.103 A 
ENDROOT
BRANCH   5   8
HETATM    8  C   UNL     1      -6.484   2.500 -34.196  1.00  0.00     0.131 C 
BRANCH   8   9
HETATM    9  N   UNL     1      -6.830   1.425 -33.279  1.00  0.00    -0.289 NA
HETATM   10  H   UNL     1      -7.827   1.395 -33.076  1.00  0.00     0.128 HD
BRANCH   9  11
HETATM   11  C   UNL     1      -6.300   0.145 -33.495  1.00  0.00     0.010 A 
HETATM   12  C   UNL     1      -7.043  -0.908 -34.056  1.00  0.00     0.055 A 
HETATM   13  C   UNL     1      -6.389  -2.096 -34.299  1.00  0.00     0.065 A 
HETATM   14  C   UNL     1      -5.035  -2.273 -34.031  1.00  0.00     0.063 A 
HETATM   15  N   UNL     1      -6.877  -3.285 -34.833  1.00  0.00    -0.306 N 
HETATM   16  N   UNL     1      -4.690  -3.568 -34.395  1.00  0.00    -0.307 N 
HETATM   17  C   UNL     1      -4.262  -1.265 -33.516  1.00  0.00     0.034 A 
HETATM   18  C   UNL     1      -5.827  -4.213 -34.901  1.00  0.00     0.325 A 
HETATM   19  H   UNL     1      -3.781  -3.998 -34.335  1.00  0.00     0.170 HD
HETATM   20  O   UNL     1      -5.892  -5.354 -35.320  1.00  0.00    -0.247 OA
HETATM   21  C   UNL     1      -4.908  -0.046 -33.265  1.00  0.00     0.026 A 
HETATM   22  H   UNL     1      -7.815  -3.478 -35.143  1.00  0.00     0.170 HD
ENDBRANCH   9  11
ENDBRANCH   8   9
ENDBRANCH   5   8
BRANCH   7  23
HETATM   23  O   UNL     1      -6.801   5.524 -30.355  1.00  0.00    -0.353 OA
HETATM   24  C   UNL     1      -6.495   4.598 -29.310  1.00  0.00     0.210 C 
ENDBRANCH   7  23
BRANCH   1  25
HETATM   25  O   UNL     1      -4.494   6.981 -31.272  1.00  0.00    -0.337 OA
BRANCH  25  26
HETATM   26  C   UNL     1      -3.724   6.688 -30.104  1.00  0.00     0.278 C 
BRANCH  26  27
HETATM   27  C   UNL     1      -2.274   7.144 -30.289  1.00  0.00     0.242 C 
HETATM   28  N   UNL     1      -1.344   6.323 -29.686  1.00  0.00    -0.351 N 
HETATM   29  H   UNL     1      -1.708   5.437 -29.344  1.00  0.00     0.163 HD
HETATM   30  O   UNL     1      -1.998   8.178 -30.890  1.00  0.00    -0.271 OA
BRANCH  28  31
HETATM   31  C   UNL     1       0.113   6.494 -29.750  1.00  0.00     0.022 C 
HETATM   32  C   UNL     1       0.576   7.657 -28.858  1.00  0.00     0.037 C 
HETATM   33  C   UNL     1       0.569   6.728 -31.198  1.00  0.00     0.037 C 
HETATM   34  C   UNL     1       0.768   5.200 -29.232  1.00  0.00     0.037 C 
ENDBRANCH  28  31
ENDBRANCH  26  27
ENDBRANCH  25  26
ENDBRANCH   1  25
TORSDOF 8
ENDMDL
MODEL 6
REMARK VINA RESULT:      -7.5      6.110     10.971
REMARK  8 active torsions:
REMARK  status: ('A' for Active; 'I' for Inactive)
REMARK    1  A    between atoms: C_2  and  N_3 
REMARK       I    between atoms: N_3  and  C_4 
REMARK    2  A    between atoms: C_4  and  C_5 
REMARK    3  A    between atoms: C_5  and  O_6 
REMARK    4  A    between atoms: O_6  and  C_7 
REMARK    5  A    between atoms: C_11  and  C_12 
REMARK    6  A    between atoms: C_12  and  N_13 
REMARK    7  A    between atoms: N_13  and  C_14 
REMARK    8  A    between atoms: C_25  and  O_26 
ROOT
HETATM    1  C   UNL     1     -13.575   2.060 -33.601  1.00  0.00     0.124 A 
HETATM    2  C   UNL     1     -12.787   0.903 -33.652  1.00  0.00     0.070 A 
HETATM    3 CL   UNL     1     -13.508  -0.669 -33.594  1.00  0.00    -0.081 Cl
HETATM    4  C   UNL     1     -11.396   0.990 -33.768  1.00  0.00     0.035 A 
HETATM    5  C   UNL     1     -10.760   2.239 -33.814  1.00  0.00    -0.041 A 
HETATM    6  C   UNL     1     -11.548   3.398 -33.764  1.00  0.00     0.048 A 
HETATM    7  C   UNL     1     -12.937   3.306 -33.630  1.00  0.00     0.103 A 
ENDROOT
BRANCH   5   8
HETATM    8  C   UNL     1      -9.258   2.332 -33.944  1.00  0.00     0.131 C 
BRANCH   8   9
HETATM    9  N   UNL     1      -8.789   1.285 -34.839  1.00  0.00    -0.289 NA
HETATM   10  H   UNL     1      -8.721   1.602 -35.804  1.00  0.00     0.128 HD
BRANCH   9  11
HETATM   11  C   UNL     1      -7.683   0.509 -34.464  1.00  0.00     0.010 A 
HETATM   12  C   UNL     1      -7.447  -0.782 -34.963  1.00  0.00     0.055 A 
HETATM   13  C   UNL     1      -6.281  -1.413 -34.587  1.00  0.00     0.065 A 
HETATM   14  C   UNL     1      -5.339  -0.810 -33.760  1.00  0.00     0.063 A 
HETATM   15  N   UNL     1      -5.806  -2.677 -34.924  1.00  0.00    -0.306 N 
HETATM   16  N   UNL     1      -4.287  -1.700 -33.583  1.00  0.00    -0.307 N 
HETATM   17  C   UNL     1      -5.509   0.461 -33.275  1.00  0.00     0.034 A 
HETATM   18  C   UNL     1      -4.562  -2.870 -34.307  1.00  0.00     0.325 A 
HETATM   19  H   UNL     1      -3.447  -1.557 -33.048  1.00  0.00     0.170 HD
HETATM   20  O   UNL     1      -3.857  -3.859 -34.385  1.00  0.00    -0.247 OA
HETATM   21  C   UNL     1      -6.687   1.122 -33.650  1.00  0.00     0.026 A 
HETATM   22  H   UNL     1      -6.247  -3.358 -35.519  1.00  0.00     0.170 HD
ENDBRANCH   9  11
ENDBRANCH   8   9
ENDBRANCH   5   8
BRANCH   7  23
HETATM   23  O   UNL     1     -13.647   4.477 -33.575  1.00  0.00    -0.353 OA
HETATM   24  C   UNL     1     -13.232   5.252 -32.449  1.00  0.00     0.210 C 
ENDBRANCH   7  23
BRANCH   1  25
HETATM   25  O   UNL     1     -14.928   1.902 -33.441  1.00  0.00    -0.337 OA
BRANCH  25  26
HETATM   26  C   UNL     1     -15.377   2.001 -32.088  1.00  0.00     0.278 C 
BRANCH  26  27
HETATM   27  C   UNL     1     -16.724   2.726 -32.021  1.00  0.00     0.242 C 
HETATM   28  N   UNL     1     -16.667   4.056 -32.384  1.00  0.00    -0.351 N 
HETATM   29  H   UNL     1     -15.791   4.350 -32.808  1.00  0.00     0.163 HD
HETATM   30  O   UNL     1     -17.741   2.157 -31.635  1.00  0.00    -0.271 OA
BRANCH  28  31
HETATM   31  C   UNL     1     -17.815   4.968 -32.462  1.00  0.00     0.022 C 
HETATM   32  C   UNL     1     -18.954   4.360 -33.296  1.00  0.00     0.037 C 
HETATM   33  C   UNL     1     -17.393   6.322 -33.053  1.00  0.00     0.037 C 
HETATM   34  C   UNL     1     -18.337   5.199 -31.032  1.00  0.00     0.037 C 
ENDBRANCH  28  31
ENDBRANCH  26  27
ENDBRANCH  25  26
ENDBRANCH   1  25
TORSDOF 8
ENDMDL
MODEL 7
REMARK VINA RESULT:      -7.4      2.472      3.889
REMARK  8 active torsions:
REMARK  status: ('A' for Active; 'I' for Inactive)
REMARK    1  A    between atoms: C_2  and  N_3 
REMARK       I    between atoms: N_3  and  C_4 
REMARK    2  A    between atoms: C_4  and  C_5 
REMARK    3  A    between atoms: C_5  and  O_6 
REMARK    4  A    between atoms: O_6  and  C_7 
REMARK    5  A    between atoms: C_11  and  C_12 
REMARK    6  A    between atoms: C_12  and  N_13 
REMARK    7  A    between atoms: N_13  and  C_14 
REMARK    8  A    between atoms: C_25  and  O_26 
ROOT
HETATM    1  C   UNL     1      -5.205   2.306 -31.639  1.00  0.00     0.124 A 
HETATM    2  C   UNL     1      -5.257   0.907 -31.651  1.00  0.00     0.070 A 
HETATM    3 CL   UNL     1      -4.018  -0.037 -30.900  1.00  0.00    -0.081 Cl
HETATM    4  C   UNL     1      -6.325   0.236 -32.257  1.00  0.00     0.035 A 
HETATM    5  C   UNL     1      -7.354   0.954 -32.886  1.00  0.00    -0.041 A 
HETATM    6  C   UNL     1      -7.303   2.355 -32.873  1.00  0.00     0.048 A 
HETATM    7  C   UNL     1      -6.224   3.021 -32.282  1.00  0.00     0.103 A 
ENDROOT
BRANCH   5   8
HETATM    8  C   UNL     1      -8.509   0.230 -33.536  1.00  0.00     0.131 C 
BRANCH   8   9
HETATM    9  N   UNL     1      -9.108   1.091 -34.543  1.00  0.00    -0.289 NA
HETATM   10  H   UNL     1      -8.999   0.720 -35.485  1.00  0.00     0.128 HD
BRANCH   9  11
HETATM   11  C   UNL     1     -10.397   1.601 -34.328  1.00  0.00     0.010 A 
HETATM   12  C   UNL     1     -11.430   0.853 -33.739  1.00  0.00     0.055 A 
HETATM   13  C   UNL     1     -12.628   1.490 -33.500  1.00  0.00     0.065 A 
HETATM   14  C   UNL     1     -12.833   2.833 -33.800  1.00  0.00     0.063 A 
HETATM   15  N   UNL     1     -13.802   0.993 -32.942  1.00  0.00    -0.306 N 
HETATM   16  N   UNL     1     -14.131   3.163 -33.432  1.00  0.00    -0.307 N 
HETATM   17  C   UNL     1     -11.846   3.612 -34.345  1.00  0.00     0.034 A 
HETATM   18  C   UNL     1     -14.749   2.026 -32.891  1.00  0.00     0.325 A 
HETATM   19  H   UNL     1     -14.580   4.061 -33.510  1.00  0.00     0.170 HD
HETATM   20  O   UNL     1     -15.885   1.951 -32.459  1.00  0.00    -0.247 OA
HETATM   21  C   UNL     1     -10.617   2.983 -34.591  1.00  0.00     0.026 A 
HETATM   22  H   UNL     1     -13.974   0.060 -32.606  1.00  0.00     0.170 HD
ENDBRANCH   9  11
ENDBRANCH   8   9
ENDBRANCH   5   8
BRANCH   7  23
HETATM   23  O   UNL     1      -6.229   4.390 -32.315  1.00  0.00    -0.353 OA
HETATM   24  C   UNL     1      -6.429   4.849 -33.653  1.00  0.00     0.210 C 
ENDBRANCH   7  23
BRANCH   1  25
HETATM   25  O   UNL     1      -4.107   2.898 -31.068  1.00  0.00    -0.337 OA
BRANCH  25  26
HETATM   26  C   UNL     1      -3.068   3.229 -31.992  1.00  0.00     0.278 C 
BRANCH  26  27
HETATM   27  C   UNL     1      -2.556   4.649 -31.736  1.00  0.00     0.242 C 
HETATM   28  N   UNL     1      -1.548   4.723 -30.796  1.00  0.00    -0.351 N 
HETATM   29  H   UNL     1      -1.154   3.829 -30.514  1.00  0.00     0.163 HD
HETATM   30  O   UNL     1      -3.046   5.621 -32.303  1.00  0.00    -0.271 OA
BRANCH  28  31
HETATM   31  C   UNL     1      -0.841   5.948 -30.399  1.00  0.00     0.022 C 
HETATM   32  C   UNL     1       0.318   5.635 -29.439  1.00  0.00     0.037 C 
HETATM   33  C   UNL     1      -1.810   6.946 -29.747  1.00  0.00     0.037 C 
HETATM   34  C   UNL     1      -0.254   6.591 -31.669  1.00  0.00     0.037 C 
ENDBRANCH  28  31
ENDBRANCH  26  27
ENDBRANCH  25  26
ENDBRANCH   1  25
TORSDOF 8
ENDMDL
MODEL 8
REMARK VINA RESULT:      -7.1      6.339     12.751
REMARK  8 active torsions:
REMARK  status: ('A' for Active; 'I' for Inactive)
REMARK    1  A    between atoms: C_2  and  N_3 
REMARK       I    between atoms: N_3  and  C_4 
REMARK    2  A    between atoms: C_4  and  C_5 
REMARK    3  A    between atoms: C_5  and  O_6 
REMARK    4  A    between atoms: O_6  and  C_7 
REMARK    5  A    between atoms: C_11  and  C_12 
REMARK    6  A    between atoms: C_12  and  N_13 
REMARK    7  A    between atoms: N_13  and  C_14 
REMARK    8  A    between atoms: C_25  and  O_26 
ROOT
HETATM    1  C   UNL     1      -1.349   7.933 -26.030  1.00  0.00     0.124 A 
HETATM    2  C   UNL     1      -2.015   8.603 -24.996  1.00  0.00     0.070 A 
HETATM    3 CL   UNL     1      -3.682   8.288 -24.660  1.00  0.00    -0.081 Cl
HETATM    4  C   UNL     1      -1.341   9.532 -24.195  1.00  0.00     0.035 A 
HETATM    5  C   UNL     1       0.010   9.827 -24.428  1.00  0.00    -0.041 A 
HETATM    6  C   UNL     1       0.678   9.157 -25.462  1.00  0.00     0.048 A 
HETATM    7  C   UNL     1      -0.004   8.242 -26.271  1.00  0.00     0.103 A 
ENDROOT
BRANCH   5   8
HETATM    8  C   UNL     1       0.737  10.827 -23.560  1.00  0.00     0.131 C 
BRANCH   8   9
HETATM    9  N   UNL     1       1.331  10.135 -22.427  1.00  0.00    -0.289 NA
HETATM   10  H   UNL     1       0.692   9.467 -22.001  1.00  0.00     0.128 HD
BRANCH   9  11
HETATM   11  C   UNL     1       2.628   9.613 -22.548  1.00  0.00     0.010 A 
HETATM   12  C   UNL     1       3.013   8.380 -21.994  1.00  0.00     0.055 A 
HETATM   13  C   UNL     1       4.290   7.932 -22.252  1.00  0.00     0.065 A 
HETATM   14  C   UNL     1       5.184   8.640 -23.049  1.00  0.00     0.063 A 
HETATM   15  N   UNL     1       4.925   6.768 -21.830  1.00  0.00    -0.306 N 
HETATM   16  N   UNL     1       6.368   7.918 -23.115  1.00  0.00    -0.307 N 
HETATM   17  C   UNL     1       4.843   9.830 -23.638  1.00  0.00     0.034 A 
HETATM   18  C   UNL     1       6.222   6.744 -22.362  1.00  0.00     0.325 A 
HETATM   19  H   UNL     1       7.204   8.158 -23.622  1.00  0.00     0.170 HD
HETATM   20  O   UNL     1       7.057   5.872 -22.203  1.00  0.00    -0.247 OA
HETATM   21  C   UNL     1       3.546  10.301 -23.391  1.00  0.00     0.026 A 
HETATM   22  H   UNL     1       4.544   6.037 -21.252  1.00  0.00     0.170 HD
ENDBRANCH   9  11
ENDBRANCH   8   9
ENDBRANCH   5   8
BRANCH   7  23
HETATM   23  O   UNL     1       0.704   7.630 -27.272  1.00  0.00    -0.353 OA
HETATM   24  C   UNL     1       1.622   8.554 -27.860  1.00  0.00     0.210 C 
ENDBRANCH   7  23
BRANCH   1  25
HETATM   25  O   UNL     1      -2.081   7.069 -26.804  1.00  0.00    -0.337 OA
BRANCH  25  26
HETATM   26  C   UNL     1      -2.765   7.691 -27.894  1.00  0.00     0.278 C 
BRANCH  26  27
HETATM   27  C   UNL     1      -2.137   7.276 -29.228  1.00  0.00     0.242 C 
HETATM   28  N   UNL     1      -1.097   6.378 -29.106  1.00  0.00    -0.351 N 
HETATM   29  H   UNL     1      -0.983   5.973 -28.180  1.00  0.00     0.163 HD
HETATM   30  O   UNL     1      -2.521   7.750 -30.294  1.00  0.00    -0.271 OA
BRANCH  28  31
HETATM   31  C   UNL     1      -0.356   5.775 -30.221  1.00  0.00     0.022 C 
HETATM   32  C   UNL     1       0.390   6.844 -31.036  1.00  0.00     0.037 C 
HETATM   33  C   UNL     1      -1.302   4.981 -31.135  1.00  0.00     0.037 C 
HETATM   34  C   UNL     1       0.686   4.806 -29.632  1.00  0.00     0.037 C 
ENDBRANCH  28  31
ENDBRANCH  26  27
ENDBRANCH  25  26
ENDBRANCH   1  25
TORSDOF 8
ENDMDL
MODEL 9
REMARK VINA RESULT:      -7.1      2.288      3.540
REMARK  8 active torsions:
REMARK  status: ('A' for Active; 'I' for Inactive)
REMARK    1  A    between atoms: C_2  and  N_3 
REMARK       I    between atoms: N_3  and  C_4 
REMARK    2  A    between atoms: C_4  and  C_5 
REMARK    3  A    between atoms: C_5  and  O_6 
REMARK    4  A    between atoms: O_6  and  C_7 
REMARK    5  A    between atoms: C_11  and  C_12 
REMARK    6  A    between atoms: C_12  and  N_13 
REMARK    7  A    between atoms: N_13  and  C_14 
REMARK    8  A    between atoms: C_25  and  O_26 
ROOT
HETATM    1  C   UNL     1      -4.887   2.887 -32.058  1.00  0.00     0.124 A 
HETATM    2  C   UNL     1      -5.787   3.695 -32.764  1.00  0.00     0.070 A 
HETATM    3 CL   UNL     1      -5.686   5.420 -32.686  1.00  0.00    -0.081 Cl
HETATM    4  C   UNL     1      -6.782   3.125 -33.566  1.00  0.00     0.035 A 
HETATM    5  C   UNL     1      -6.911   1.732 -33.660  1.00  0.00    -0.041 A 
HETATM    6  C   UNL     1      -6.009   0.922 -32.955  1.00  0.00     0.048 A 
HETATM    7  C   UNL     1      -5.028   1.496 -32.141  1.00  0.00     0.103 A 
ENDROOT
BRANCH   5   8
HETATM    8  C   UNL     1      -7.982   1.117 -34.530  1.00  0.00     0.131 C 
BRANCH   8   9
HETATM    9  N   UNL     1      -9.030   0.568 -33.683  1.00  0.00    -0.289 NA
HETATM   10  H   UNL     1      -8.722   0.436 -32.722  1.00  0.00     0.128 HD
BRANCH   9  11
HETATM   11  C   UNL     1     -10.320   1.115 -33.749  1.00  0.00     0.010 A 
HETATM   12  C   UNL     1     -11.479   0.389 -33.426  1.00  0.00     0.055 A 
HETATM   13  C   UNL     1     -12.682   1.059 -33.446  1.00  0.00     0.065 A 
HETATM   14  C   UNL     1     -12.778   2.413 -33.750  1.00  0.00     0.063 A 
HETATM   15  N   UNL     1     -13.965   0.590 -33.178  1.00  0.00    -0.306 N 
HETATM   16  N   UNL     1     -14.117   2.778 -33.674  1.00  0.00    -0.307 N 
HETATM   17  C   UNL     1     -11.673   3.171 -34.038  1.00  0.00     0.034 A 
HETATM   18  C   UNL     1     -14.871   1.651 -33.315  1.00  0.00     0.325 A 
HETATM   19  H   UNL     1     -14.512   3.691 -33.827  1.00  0.00     0.170 HD
HETATM   20  O   UNL     1     -16.076   1.604 -33.151  1.00  0.00    -0.247 OA
HETATM   21  C   UNL     1     -10.438   2.508 -34.019  1.00  0.00     0.026 A 
HETATM   22  H   UNL     1     -14.233  -0.344 -32.914  1.00  0.00     0.170 HD
ENDBRANCH   9  11
ENDBRANCH   8   9
ENDBRANCH   5   8
BRANCH   7  23
HETATM   23  O   UNL     1      -4.186   0.649 -31.469  1.00  0.00    -0.353 OA
HETATM   24  C   UNL     1      -4.009  -0.559 -32.211  1.00  0.00     0.210 C 
ENDBRANCH   7  23
BRANCH   1  25
HETATM   25  O   UNL     1      -3.965   3.511 -31.256  1.00  0.00    -0.337 OA
BRANCH  25  26
HETATM   26  C   UNL     1      -2.671   3.652 -31.844  1.00  0.00     0.278 C 
BRANCH  26  27
HETATM   27  C   UNL     1      -2.075   5.022 -31.510  1.00  0.00     0.242 C 
HETATM   28  N   UNL     1      -1.212   5.013 -30.434  1.00  0.00    -0.351 N 
HETATM   29  H   UNL     1      -0.944   4.090 -30.103  1.00  0.00     0.163 HD
HETATM   30  O   UNL     1      -2.389   6.030 -32.137  1.00  0.00    -0.271 OA
BRANCH  28  31
HETATM   31  C   UNL     1      -0.462   6.173 -29.933  1.00  0.00     0.022 C 
HETATM   32  C   UNL     1      -1.410   7.270 -29.424  1.00  0.00     0.037 C 
HETATM   33  C   UNL     1       0.458   6.737 -31.027  1.00  0.00     0.037 C 
HETATM   34  C   UNL     1       0.409   5.703 -28.753  1.00  0.00     0.037 C 
ENDBRANCH  28  31
ENDBRANCH  26  27
ENDBRANCH  25  26
ENDBRANCH   1  25
TORSDOF 8
ENDMDL
MODEL 10
REMARK VINA RESULT:      -7.1      2.426      3.487
REMARK  8 active torsions:
REMARK  status: ('A' for Active; 'I' for Inactive)
REMARK    1  A    between atoms: C_2  and  N_3 
REMARK       I    between atoms: N_3  and  C_4 
REMARK    2  A    between atoms: C_4  and  C_5 
REMARK    3  A    between atoms: C_5  and  O_6 
REMARK    4  A    between atoms: O_6  and  C_7 
REMARK    5  A    between atoms: C_11  and  C_12 
REMARK    6  A    between atoms: C_12  and  N_13 
REMARK    7  A    between atoms: N_13  and  C_14 
REMARK    8  A    between atoms: C_25  and  O_26 
ROOT
HETATM    1  C   UNL     1      -2.346   5.828 -32.522  1.00  0.00     0.124 A 
HETATM    2  C   UNL     1      -2.536   5.360 -33.828  1.00  0.00     0.070 A 
HETATM    3 CL   UNL     1      -1.228   5.321 -34.959  1.00  0.00    -0.081 Cl
HETATM    4  C   UNL     1      -3.787   4.894 -34.246  1.00  0.00     0.035 A 
HETATM    5  C   UNL     1      -4.883   4.909 -33.371  1.00  0.00    -0.041 A 
HETATM    6  C   UNL     1      -4.694   5.376 -32.063  1.00  0.00     0.048 A 
HETATM    7  C   UNL     1      -3.446   5.857 -31.655  1.00  0.00     0.103 A 
ENDROOT
BRANCH   5   8
HETATM    8  C   UNL     1      -6.233   4.402 -33.822  1.00  0.00     0.131 C 
BRANCH   8   9
HETATM    9  N   UNL     1      -6.342   2.986 -33.508  1.00  0.00    -0.289 NA
HETATM   10  H   UNL     1      -5.718   2.707 -32.753  1.00  0.00     0.128 HD
BRANCH   9  11
HETATM   11  C   UNL     1      -7.614   2.411 -33.375  1.00  0.00     0.010 A 
HETATM   12  C   UNL     1      -8.667   2.661 -34.271  1.00  0.00     0.055 A 
HETATM   13  C   UNL     1      -9.845   1.972 -34.086  1.00  0.00     0.065 A 
HETATM   14  C   UNL     1     -10.012   1.036 -33.070  1.00  0.00     0.063 A 
HETATM   15  N   UNL     1     -11.031   2.029 -34.812  1.00  0.00    -0.306 N 
HETATM   16  N   UNL     1     -11.299   0.522 -33.164  1.00  0.00    -0.307 N 
HETATM   17  C   UNL     1      -9.004   0.734 -32.192  1.00  0.00     0.034 A 
HETATM   18  C   UNL     1     -11.948   1.129 -34.249  1.00  0.00     0.325 A 
HETATM   19  H   UNL     1     -11.721  -0.181 -32.581  1.00  0.00     0.170 HD
HETATM   20  O   UNL     1     -13.083   0.915 -34.631  1.00  0.00    -0.247 OA
HETATM   21  C   UNL     1      -7.795   1.422 -32.366  1.00  0.00     0.026 A 
HETATM   22  H   UNL     1     -11.229   2.599 -35.618  1.00  0.00     0.170 HD
ENDBRANCH   9  11
ENDBRANCH   8   9
ENDBRANCH   5   8
BRANCH   7  23
HETATM   23  O   UNL     1      -3.331   6.311 -30.367  1.00  0.00    -0.353 OA
HETATM   24  C   UNL     1      -4.553   6.925 -29.952  1.00  0.00     0.210 C 
ENDBRANCH   7  23
BRANCH   1  25
HETATM   25  O   UNL     1      -1.106   6.312 -32.193  1.00  0.00    -0.337 OA
BRANCH  25  26
HETATM   26  C   UNL     1      -0.256   5.362 -31.546  1.00  0.00     0.278 C 
BRANCH  26  27
HETATM   27  C   UNL     1       0.061   5.810 -30.117  1.00  0.00     0.242 C 
HETATM   28  N   UNL     1      -0.417   7.065 -29.802  1.00  0.00    -0.351 N 
HETATM   29  H   UNL     1      -1.057   7.467 -30.483  1.00  0.00     0.163 HD
HETATM   30  O   UNL     1       0.720   5.109 -29.355  1.00  0.00    -0.271 OA
BRANCH  28  31
HETATM   31  C   UNL     1      -0.303   7.716 -28.491  1.00  0.00     0.022 C 
HETATM   32  C   UNL     1       1.144   8.150 -28.209  1.00  0.00     0.037 C 
HETATM   33  C   UNL     1      -0.800   6.783 -27.376  1.00  0.00     0.037 C 
HETATM   34  C   UNL     1      -1.188   8.976 -28.506  1.00  0.00     0.037 C 
ENDBRANCH  28  31
ENDBRANCH  26  27
ENDBRANCH  25  26
ENDBRANCH   1  25
TORSDOF 8
ENDMDL
