MODEL 1
REMARK VINA RESULT:      -9.1      0.000      0.000
REMARK  6 active torsions:
REMARK  status: ('A' for Active; 'I' for Inactive)
REMARK    1  A    between atoms: C_2  and  O_3 
REMARK    2  A    between atoms: C_2  and  C_4 
REMARK    3  A    between atoms: C_7  and  N_8 
REMARK       I    between atoms: N_8  and  C_9 
REMARK    4  A    between atoms: C_9  and  C_10 
REMARK    5  A    between atoms: C_15  and  C_16 
REMARK    6  A    between atoms: C_22  and  C_23 
ROOT
HETATM    1  C   UNL     1      -4.885   3.157 -32.006  1.00  0.00     0.148 A 
HETATM    2  N   UNL     1      -4.318   3.950 -32.944  1.00  0.00    -0.165 NA
HETATM    3  N   UNL     1      -3.831   4.982 -32.226  1.00  0.00    -0.240 N 
HETATM    4  C   UNL     1      -4.162   4.939 -30.900  1.00  0.00     0.123 A 
HETATM    5  N   UNL     1      -3.859   5.946 -30.056  1.00  0.00    -0.364 N 
HETATM    6  C   UNL     1      -3.006   7.066 -30.452  1.00  0.00     0.143 C 
HETATM    7  C   UNL     1      -3.121   7.320 -31.965  1.00  0.00     0.068 C 
HETATM    8  C   UNL     1      -3.060   6.049 -32.834  1.00  0.00     0.221 C 
HETATM    9  C   UNL     1      -4.810   3.748 -30.714  1.00  0.00     0.089 A 
HETATM   10  H   UNL     1      -3.992   5.840 -29.051  1.00  0.00     0.162 HD
ENDROOT
BRANCH   1  11
HETATM   11  C   UNL     1      -5.513   1.863 -32.333  1.00  0.00     0.276 C 
HETATM   12  N   UNL     1      -4.655   1.022 -33.014  1.00  0.00    -0.322 N 
HETATM   13  H   UNL     1      -3.745   1.434 -33.202  1.00  0.00     0.169 HD
HETATM   14  O   UNL     1      -6.679   1.632 -32.031  1.00  0.00    -0.266 OA
BRANCH  12  15
HETATM   15  C   UNL     1      -4.918  -0.267 -33.509  1.00  0.00     0.035 A 
HETATM   16  C   UNL     1      -6.036  -0.588 -34.280  1.00  0.00     0.030 A 
HETATM   17  C   UNL     1      -6.224  -1.892 -34.756  1.00  0.00     0.012 A 
HETATM   18  C   UNL     1      -5.298  -2.902 -34.471  1.00  0.00    -0.030 A 
HETATM   19  C   UNL     1      -4.177  -2.575 -33.696  1.00  0.00     0.012 A 
HETATM   20  C   UNL     1      -3.996  -1.274 -33.210  1.00  0.00     0.030 A 
BRANCH  18  21
HETATM   21  C   UNL     1      -5.495  -4.290 -35.041  1.00  0.00     0.147 C 
HETATM   22  C   UNL     1      -6.940  -4.620 -35.391  1.00  0.00     0.044 C 
BRANCH  21  23
HETATM   23  O   UNL     1      -5.019  -5.257 -34.106  1.00  0.00    -0.391 OA
HETATM   24  H   UNL     1      -5.532  -6.072 -34.246  1.00  0.00     0.210 HD
ENDBRANCH  21  23
ENDBRANCH  18  21
ENDBRANCH  12  15
ENDBRANCH   1  11
BRANCH   8  25
HETATM   25  C   UNL     1      -1.654   5.566 -33.118  1.00  0.00     0.409 C 
HETATM   26  F   UNL     1      -1.252   4.561 -32.318  1.00  0.00    -0.169 F 
HETATM   27  F   UNL     1      -1.520   5.142 -34.397  1.00  0.00    -0.169 F 
HETATM   28  F   UNL     1      -0.768   6.583 -32.964  1.00  0.00    -0.169 F 
ENDBRANCH   8  25
BRANCH   6  29
HETATM   29  C   UNL     1      -1.594   6.973 -29.968  1.00  0.00     0.075 A 
HETATM   30  O   UNL     1      -1.125   5.719 -29.703  1.00  0.00    -0.325 OA
HETATM   31  C   UNL     1       0.172   5.851 -29.323  1.00  0.00     0.142 A 
HETATM   32  C   UNL     1       0.548   7.173 -29.341  1.00  0.00     0.027 A 
HETATM   33  C   UNL     1      -0.590   7.899 -29.765  1.00  0.00     0.037 A 
ENDBRANCH   6  29
TORSDOF 6
ENDMDL
MODEL 2
REMARK VINA RESULT:      -8.7      0.350      1.190
REMARK  6 active torsions:
REMARK  status: ('A' for Active; 'I' for Inactive)
REMARK    1  A    between atoms: C_2  and  O_3 
REMARK    2  A    between atoms: C_2  and  C_4 
REMARK    3  A    between atoms: C_7  and  N_8 
REMARK       I    between atoms: N_8  and  C_9 
REMARK    4  A    between atoms: C_9  and  C_10 
REMARK    5  A    between atoms: C_15  and  C_16 
REMARK    6  A    between atoms: C_22  and  C_23 
ROOT
HETATM    1  C   UNL     1      -4.820   2.996 -31.936  1.00  0.00     0.148 A 
HETATM    2  N   UNL     1      -4.269   3.778 -32.894  1.00  0.00    -0.165 NA
HETATM    3  N   UNL     1      -3.855   4.863 -32.210  1.00  0.00    -0.240 N 
HETATM    4  C   UNL     1      -4.218   4.858 -30.892  1.00  0.00     0.123 A 
HETATM    5  N   UNL     1      -3.989   5.915 -30.085  1.00  0.00    -0.364 N 
HETATM    6  C   UNL     1      -3.183   7.060 -30.509  1.00  0.00     0.143 C 
HETATM    7  C   UNL     1      -3.272   7.243 -32.035  1.00  0.00     0.068 C 
HETATM    8  C   UNL     1      -3.123   5.942 -32.846  1.00  0.00     0.221 C 
HETATM    9  C   UNL     1      -4.808   3.645 -30.670  1.00  0.00     0.089 A 
HETATM   10  H   UNL     1      -4.142   5.845 -29.081  1.00  0.00     0.162 HD
ENDROOT
BRANCH   1  11
HETATM   11  C   UNL     1      -5.372   1.659 -32.222  1.00  0.00     0.276 C 
HETATM   12  N   UNL     1      -4.545   0.915 -33.042  1.00  0.00    -0.322 N 
HETATM   13  H   UNL     1      -3.709   1.413 -33.336  1.00  0.00     0.169 HD
HETATM   14  O   UNL     1      -6.461   1.315 -31.774  1.00  0.00    -0.266 OA
BRANCH  12  15
HETATM   15  C   UNL     1      -4.761  -0.381 -33.542  1.00  0.00     0.035 A 
HETATM   16  C   UNL     1      -3.909  -1.458 -33.296  1.00  0.00     0.030 A 
HETATM   17  C   UNL     1      -4.198  -2.728 -33.811  1.00  0.00     0.012 A 
HETATM   18  C   UNL     1      -5.346  -2.948 -34.581  1.00  0.00    -0.030 A 
HETATM   19  C   UNL     1      -6.199  -1.863 -34.825  1.00  0.00     0.012 A 
HETATM   20  C   UNL     1      -5.903  -0.591 -34.320  1.00  0.00     0.030 A 
BRANCH  18  21
HETATM   21  C   UNL     1      -5.665  -4.340 -35.081  1.00  0.00     0.147 C 
HETATM   22  C   UNL     1      -7.154  -4.617 -35.242  1.00  0.00     0.044 C 
BRANCH  21  23
HETATM   23  O   UNL     1      -5.116  -5.302 -34.182  1.00  0.00    -0.391 OA
HETATM   24  H   UNL     1      -5.584  -6.142 -34.335  1.00  0.00     0.210 HD
ENDBRANCH  21  23
ENDBRANCH  18  21
ENDBRANCH  12  15
ENDBRANCH   1  11
BRANCH   8  25
HETATM   25  C   UNL     1      -1.688   5.522 -33.074  1.00  0.00     0.409 C 
HETATM   26  F   UNL     1      -0.834   6.553 -33.214  1.00  0.00    -0.169 F 
HETATM   27  F   UNL     1      -1.225   4.751 -32.062  1.00  0.00    -0.169 F 
HETATM   28  F   UNL     1      -1.593   4.764 -34.197  1.00  0.00    -0.169 F 
ENDBRANCH   8  25
BRANCH   6  29
HETATM   29  C   UNL     1      -1.782   7.061 -29.988  1.00  0.00     0.075 A 
HETATM   30  O   UNL     1      -1.533   6.257 -28.914  1.00  0.00    -0.325 OA
HETATM   31  C   UNL     1      -0.211   6.371 -28.629  1.00  0.00     0.142 A 
HETATM   32  C   UNL     1       0.399   7.236 -29.506  1.00  0.00     0.027 A 
HETATM   33  C   UNL     1      -0.614   7.678 -30.390  1.00  0.00     0.037 A 
ENDBRANCH   6  29
TORSDOF 6
ENDMDL
MODEL 3
REMARK VINA RESULT:      -8.5      2.902      9.586
REMARK  6 active torsions:
REMARK  status: ('A' for Active; 'I' for Inactive)
REMARK    1  A    between atoms: C_2  and  O_3 
REMARK    2  A    between atoms: C_2  and  C_4 
REMARK    3  A    between atoms: C_7  and  N_8 
REMARK       I    between atoms: N_8  and  C_9 
REMARK    4  A    between atoms: C_9  and  C_10 
REMARK    5  A    between atoms: C_15  and  C_16 
REMARK    6  A    between atoms: C_22  and  C_23 
ROOT
HETATM    1  C   UNL     1      -3.392   4.131 -31.765  1.00  0.00     0.148 A 
HETATM    2  N   UNL     1      -4.298   3.667 -30.873  1.00  0.00    -0.165 NA
HETATM    3  N   UNL     1      -5.226   3.075 -31.651  1.00  0.00    -0.240 N 
HETATM    4  C   UNL     1      -5.012   3.242 -32.992  1.00  0.00     0.123 A 
HETATM    5  N   UNL     1      -5.900   2.816 -33.913  1.00  0.00    -0.364 N 
HETATM    6  C   UNL     1      -7.058   1.995 -33.561  1.00  0.00     0.143 C 
HETATM    7  C   UNL     1      -7.506   2.290 -32.119  1.00  0.00     0.068 C 
HETATM    8  C   UNL     1      -6.359   2.362 -31.094  1.00  0.00     0.221 C 
HETATM    9  C   UNL     1      -3.811   3.886 -33.102  1.00  0.00     0.089 A 
HETATM   10  H   UNL     1      -5.665   2.827 -34.905  1.00  0.00     0.162 HD
ENDROOT
BRANCH   1  11
HETATM   11  C   UNL     1      -2.155   4.821 -31.355  1.00  0.00     0.276 C 
HETATM   12  N   UNL     1      -2.342   5.614 -30.240  1.00  0.00    -0.322 N 
HETATM   13  H   UNL     1      -3.300   5.616 -29.898  1.00  0.00     0.169 HD
HETATM   14  O   UNL     1      -1.114   4.685 -31.991  1.00  0.00    -0.266 OA
BRANCH  12  15
HETATM   15  C   UNL     1      -1.401   6.433 -29.593  1.00  0.00     0.035 A 
HETATM   16  C   UNL     1      -1.590   7.796 -29.359  1.00  0.00     0.030 A 
HETATM   17  C   UNL     1      -0.615   8.546 -28.689  1.00  0.00     0.012 A 
HETATM   18  C   UNL     1       0.568   7.950 -28.238  1.00  0.00    -0.030 A 
HETATM   19  C   UNL     1       0.753   6.581 -28.475  1.00  0.00     0.012 A 
HETATM   20  C   UNL     1      -0.216   5.834 -29.155  1.00  0.00     0.030 A 
BRANCH  18  21
HETATM   21  C   UNL     1       1.582   8.769 -27.469  1.00  0.00     0.147 C 
HETATM   22  C   UNL     1       2.032   8.134 -26.161  1.00  0.00     0.044 C 
BRANCH  21  23
HETATM   23  O   UNL     1       1.034  10.055 -27.187  1.00  0.00    -0.391 OA
HETATM   24  H   UNL     1       0.171  10.106 -27.633  1.00  0.00     0.210 HD
ENDBRANCH  21  23
ENDBRANCH  18  21
ENDBRANCH  12  15
ENDBRANCH   1  11
BRANCH   8  25
HETATM   25  C   UNL     1      -5.911   1.012 -30.578  1.00  0.00     0.409 C 
HETATM   26  F   UNL     1      -4.806   0.537 -31.184  1.00  0.00    -0.169 F 
HETATM   27  F   UNL     1      -5.659   1.043 -29.248  1.00  0.00    -0.169 F 
HETATM   28  F   UNL     1      -6.894   0.092 -30.753  1.00  0.00    -0.169 F 
ENDBRANCH   8  25
BRANCH   6  29
HETATM   29  C   UNL     1      -6.897   0.537 -33.849  1.00  0.00     0.075 A 
HETATM   30  O   UNL     1      -5.620   0.094 -34.044  1.00  0.00    -0.325 OA
HETATM   31  C   UNL     1      -5.690  -1.246 -34.246  1.00  0.00     0.142 A 
HETATM   32  C   UNL     1      -6.994  -1.676 -34.183  1.00  0.00     0.027 A 
HETATM   33  C   UNL     1      -7.775  -0.526 -33.920  1.00  0.00     0.037 A 
ENDBRANCH   6  29
TORSDOF 6
ENDMDL
MODEL 4
REMARK VINA RESULT:      -8.3      1.700      2.183
REMARK  6 active torsions:
REMARK  status: ('A' for Active; 'I' for Inactive)
REMARK    1  A    between atoms: C_2  and  O_3 
REMARK    2  A    between atoms: C_2  and  C_4 
REMARK    3  A    between atoms: C_7  and  N_8 
REMARK       I    between atoms: N_8  and  C_9 
REMARK    4  A    between atoms: C_9  and  C_10 
REMARK    5  A    between atoms: C_15  and  C_16 
REMARK    6  A    between atoms: C_22  and  C_23 
ROOT
HETATM    1  C   UNL     1      -3.453   3.046 -31.768  1.00  0.00     0.148 A 
HETATM    2  N   UNL     1      -2.331   3.612 -32.271  1.00  0.00    -0.165 NA
HETATM    3  N   UNL     1      -2.491   4.921 -31.991  1.00  0.00    -0.240 N 
HETATM    4  C   UNL     1      -3.706   5.225 -31.442  1.00  0.00     0.123 A 
HETATM    5  N   UNL     1      -4.083   6.499 -31.206  1.00  0.00    -0.364 N 
HETATM    6  C   UNL     1      -3.161   7.625 -31.349  1.00  0.00     0.143 C 
HETATM    7  C   UNL     1      -2.087   7.308 -32.406  1.00  0.00     0.068 C 
HETATM    8  C   UNL     1      -1.467   5.904 -32.288  1.00  0.00     0.221 C 
HETATM    9  C   UNL     1      -4.339   4.029 -31.246  1.00  0.00     0.089 A 
HETATM   10  H   UNL     1      -4.930   6.700 -30.677  1.00  0.00     0.162 HD
ENDROOT
BRANCH   1  11
HETATM   11  C   UNL     1      -3.694   1.591 -31.805  1.00  0.00     0.276 C 
HETATM   12  N   UNL     1      -4.281   1.187 -32.988  1.00  0.00    -0.322 N 
HETATM   13  H   UNL     1      -4.475   1.952 -33.628  1.00  0.00     0.169 HD
HETATM   14  O   UNL     1      -3.408   0.879 -30.848  1.00  0.00    -0.266 OA
BRANCH  12  15
HETATM   15  C   UNL     1      -4.678  -0.110 -33.358  1.00  0.00     0.035 A 
HETATM   16  C   UNL     1      -3.832  -1.219 -33.321  1.00  0.00     0.030 A 
HETATM   17  C   UNL     1      -4.302  -2.487 -33.686  1.00  0.00     0.012 A 
HETATM   18  C   UNL     1      -5.628  -2.672 -34.093  1.00  0.00    -0.030 A 
HETATM   19  C   UNL     1      -6.474  -1.556 -34.128  1.00  0.00     0.012 A 
HETATM   20  C   UNL     1      -6.000  -0.286 -33.775  1.00  0.00     0.030 A 
BRANCH  18  21
HETATM   21  C   UNL     1      -6.128  -4.061 -34.430  1.00  0.00     0.147 C 
HETATM   22  C   UNL     1      -5.030  -5.111 -34.527  1.00  0.00     0.044 C 
BRANCH  21  23
HETATM   23  O   UNL     1      -6.833  -4.022 -35.669  1.00  0.00    -0.391 OA
HETATM   24  H   UNL     1      -6.582  -3.196 -36.119  1.00  0.00     0.210 HD
ENDBRANCH  21  23
ENDBRANCH  18  21
ENDBRANCH  12  15
ENDBRANCH   1  11
BRANCH   8  25
HETATM   25  C   UNL     1      -0.355   5.808 -31.266  1.00  0.00     0.409 C 
HETATM   26  F   UNL     1       0.290   6.970 -31.051  1.00  0.00    -0.169 F 
HETATM   27  F   UNL     1      -0.812   5.373 -30.068  1.00  0.00    -0.169 F 
HETATM   28  F   UNL     1       0.573   4.900 -31.665  1.00  0.00    -0.169 F 
ENDBRANCH   8  25
BRANCH   6  29
HETATM   29  C   UNL     1      -2.598   8.135 -30.061  1.00  0.00     0.075 A 
HETATM   30  O   UNL     1      -2.764   7.336 -28.967  1.00  0.00    -0.325 OA
HETATM   31  C   UNL     1      -2.152   7.954 -27.925  1.00  0.00     0.142 A 
HETATM   32  C   UNL     1      -1.591   9.142 -28.332  1.00  0.00     0.027 A 
HETATM   33  C   UNL     1      -1.872   9.257 -29.713  1.00  0.00     0.037 A 
ENDBRANCH   6  29
TORSDOF 6
ENDMDL
MODEL 5
REMARK VINA RESULT:      -8.2      3.353      4.198
REMARK  6 active torsions:
REMARK  status: ('A' for Active; 'I' for Inactive)
REMARK    1  A    between atoms: C_2  and  O_3 
REMARK    2  A    between atoms: C_2  and  C_4 
REMARK    3  A    between atoms: C_7  and  N_8 
REMARK       I    between atoms: N_8  and  C_9 
REMARK    4  A    between atoms: C_9  and  C_10 
REMARK    5  A    between atoms: C_15  and  C_16 
REMARK    6  A    between atoms: C_22  and  C_23 
ROOT
HETATM    1  C   UNL     1      -5.524   3.668 -32.701  1.00  0.00     0.148 A 
HETATM    2  N   UNL     1      -4.956   4.504 -33.601  1.00  0.00    -0.165 NA
HETATM    3  N   UNL     1      -4.076   5.209 -32.862  1.00  0.00    -0.240 N 
HETATM    4  C   UNL     1      -4.141   4.942 -31.522  1.00  0.00     0.123 A 
HETATM    5  N   UNL     1      -3.416   5.636 -30.621  1.00  0.00    -0.364 N 
HETATM    6  C   UNL     1      -2.385   6.593 -31.020  1.00  0.00     0.143 C 
HETATM    7  C   UNL     1      -2.720   7.202 -32.393  1.00  0.00     0.068 C 
HETATM    8  C   UNL     1      -3.178   6.182 -33.452  1.00  0.00     0.221 C 
HETATM    9  C   UNL     1      -5.039   3.919 -31.387  1.00  0.00     0.089 A 
HETATM   10  H   UNL     1      -3.374   5.338 -29.648  1.00  0.00     0.162 HD
ENDROOT
BRANCH   1  11
HETATM   11  C   UNL     1      -6.531   2.660 -33.077  1.00  0.00     0.276 C 
HETATM   12  N   UNL     1      -7.815   3.169 -33.054  1.00  0.00    -0.322 N 
HETATM   13  H   UNL     1      -7.863   4.140 -32.761  1.00  0.00     0.169 HD
HETATM   14  O   UNL     1      -6.204   1.507 -33.342  1.00  0.00    -0.266 OA
BRANCH  12  15
HETATM   15  C   UNL     1      -9.018   2.493 -33.325  1.00  0.00     0.035 A 
HETATM   16  C   UNL     1      -9.969   2.942 -34.243  1.00  0.00     0.030 A 
HETATM   17  C   UNL     1     -11.137   2.206 -34.476  1.00  0.00     0.012 A 
HETATM   18  C   UNL     1     -11.379   1.005 -33.798  1.00  0.00    -0.030 A 
HETATM   19  C   UNL     1     -10.421   0.559 -32.878  1.00  0.00     0.012 A 
HETATM   20  C   UNL     1      -9.259   1.302 -32.636  1.00  0.00     0.030 A 
BRANCH  18  21
HETATM   21  C   UNL     1     -12.623   0.200 -34.107  1.00  0.00     0.147 C 
HETATM   22  C   UNL     1     -13.869   1.043 -34.342  1.00  0.00     0.044 C 
BRANCH  21  23
HETATM   23  O   UNL     1     -12.879  -0.704 -33.034  1.00  0.00    -0.391 OA
HETATM   24  H   UNL     1     -13.545  -0.289 -32.459  1.00  0.00     0.210 HD
ENDBRANCH  21  23
ENDBRANCH  18  21
ENDBRANCH  12  15
ENDBRANCH   1  11
BRANCH   8  25
HETATM   25  C   UNL     1      -2.041   5.470 -34.151  1.00  0.00     0.409 C 
HETATM   26  F   UNL     1      -2.329   5.088 -35.409  1.00  0.00    -0.169 F 
HETATM   27  F   UNL     1      -0.928   6.241 -34.209  1.00  0.00    -0.169 F 
HETATM   28  F   UNL     1      -1.689   4.355 -33.461  1.00  0.00    -0.169 F 
ENDBRANCH   8  25
BRANCH   6  29
HETATM   29  C   UNL     1      -0.985   6.075 -30.923  1.00  0.00     0.075 A 
HETATM   30  O   UNL     1      -0.845   4.781 -30.513  1.00  0.00    -0.325 OA
HETATM   31  C   UNL     1       0.483   4.499 -30.533  1.00  0.00     0.142 A 
HETATM   32  C   UNL     1       1.202   5.593 -30.952  1.00  0.00     0.027 A 
HETATM   33  C   UNL     1       0.254   6.611 -31.211  1.00  0.00     0.037 A 
ENDBRANCH   6  29
TORSDOF 6
ENDMDL
MODEL 6
REMARK VINA RESULT:      -8.1      6.350      8.034
REMARK  6 active torsions:
REMARK  status: ('A' for Active; 'I' for Inactive)
REMARK    1  A    between atoms: C_2  and  O_3 
REMARK    2  A    between atoms: C_2  and  C_4 
REMARK    3  A    between atoms: C_7  and  N_8 
REMARK       I    between atoms: N_8  and  C_9 
REMARK    4  A    between atoms: C_9  and  C_10 
REMARK    5  A    between atoms: C_15  and  C_16 
REMARK    6  A    between atoms: C_22  and  C_23 
ROOT
HETATM    1  C   UNL     1      -9.515   2.057 -32.794  1.00  0.00     0.148 A 
HETATM    2  N   UNL     1     -10.686   1.913 -33.457  1.00  0.00    -0.165 NA
HETATM    3  N   UNL     1     -11.169   3.170 -33.515  1.00  0.00    -0.240 N 
HETATM    4  C   UNL     1     -10.420   4.082 -32.824  1.00  0.00     0.123 A 
HETATM    5  N   UNL     1     -10.815   5.364 -32.677  1.00  0.00    -0.364 N 
HETATM    6  C   UNL     1     -11.968   5.911 -33.390  1.00  0.00     0.143 C 
HETATM    7  C   UNL     1     -12.996   4.803 -33.679  1.00  0.00     0.068 C 
HETATM    8  C   UNL     1     -12.392   3.495 -34.223  1.00  0.00     0.221 C 
HETATM    9  C   UNL     1      -9.319   3.404 -32.379  1.00  0.00     0.089 A 
HETATM   10  H   UNL     1     -10.186   6.059 -32.278  1.00  0.00     0.162 HD
ENDROOT
BRANCH   1  11
HETATM   11  C   UNL     1      -8.603   0.928 -32.537  1.00  0.00     0.276 C 
HETATM   12  N   UNL     1      -7.814   0.632 -33.632  1.00  0.00    -0.322 N 
HETATM   13  H   UNL     1      -8.004   1.217 -34.440  1.00  0.00     0.169 HD
HETATM   14  O   UNL     1      -8.611   0.341 -31.459  1.00  0.00    -0.266 OA
BRANCH  12  15
HETATM   15  C   UNL     1      -6.859  -0.392 -33.758  1.00  0.00     0.035 A 
HETATM   16  C   UNL     1      -5.560  -0.307 -33.256  1.00  0.00     0.030 A 
HETATM   17  C   UNL     1      -4.667  -1.376 -33.402  1.00  0.00     0.012 A 
HETATM   18  C   UNL     1      -5.055  -2.553 -34.052  1.00  0.00    -0.030 A 
HETATM   19  C   UNL     1      -6.360  -2.635 -34.554  1.00  0.00     0.012 A 
HETATM   20  C   UNL     1      -7.249  -1.561 -34.419  1.00  0.00     0.030 A 
BRANCH  18  21
HETATM   21  C   UNL     1      -4.090  -3.715 -34.149  1.00  0.00     0.147 C 
HETATM   22  C   UNL     1      -4.756  -5.056 -34.424  1.00  0.00     0.044 C 
BRANCH  21  23
HETATM   23  O   UNL     1      -3.346  -3.815 -32.936  1.00  0.00    -0.391 OA
HETATM   24  H   UNL     1      -3.852  -4.386 -32.333  1.00  0.00     0.210 HD
ENDBRANCH  21  23
ENDBRANCH  18  21
ENDBRANCH  12  15
ENDBRANCH   1  11
BRANCH   8  25
HETATM   25  C   UNL     1     -12.132   3.512 -35.713  1.00  0.00     0.409 C 
HETATM   26  F   UNL     1     -12.905   4.380 -36.392  1.00  0.00    -0.169 F 
HETATM   27  F   UNL     1     -10.842   3.818 -35.993  1.00  0.00    -0.169 F 
HETATM   28  F   UNL     1     -12.348   2.280 -36.242  1.00  0.00    -0.169 F 
ENDBRANCH   8  25
BRANCH   6  29
HETATM   29  C   UNL     1     -11.625   6.734 -34.591  1.00  0.00     0.075 A 
HETATM   30  O   UNL     1     -12.657   7.399 -35.186  1.00  0.00    -0.325 OA
HETATM   31  C   UNL     1     -12.131   8.109 -36.217  1.00  0.00     0.142 A 
HETATM   32  C   UNL     1     -10.773   7.914 -36.293  1.00  0.00     0.027 A 
HETATM   33  C   UNL     1     -10.442   7.031 -35.239  1.00  0.00     0.037 A 
ENDBRANCH   6  29
TORSDOF 6
ENDMDL
MODEL 7
REMARK VINA RESULT:      -8.0      6.162     10.141
REMARK  6 active torsions:
REMARK  status: ('A' for Active; 'I' for Inactive)
REMARK    1  A    between atoms: C_2  and  O_3 
REMARK    2  A    between atoms: C_2  and  C_4 
REMARK    3  A    between atoms: C_7  and  N_8 
REMARK       I    between atoms: N_8  and  C_9 
REMARK    4  A    between atoms: C_9  and  C_10 
REMARK    5  A    between atoms: C_15  and  C_16 
REMARK    6  A    between atoms: C_22  and  C_23 
ROOT
HETATM    1  C   UNL     1      -8.438   2.362 -33.442  1.00  0.00     0.148 A 
HETATM    2  N   UNL     1      -9.118   2.919 -34.472  1.00  0.00    -0.165 NA
HETATM    3  N   UNL     1     -10.348   2.378 -34.361  1.00  0.00    -0.240 N 
HETATM    4  C   UNL     1     -10.447   1.423 -33.387  1.00  0.00     0.123 A 
HETATM    5  N   UNL     1     -11.570   0.697 -33.212  1.00  0.00    -0.364 N 
HETATM    6  C   UNL     1     -12.812   0.996 -33.924  1.00  0.00     0.143 C 
HETATM    7  C   UNL     1     -12.506   1.653 -35.283  1.00  0.00     0.068 C 
HETATM    8  C   UNL     1     -11.442   2.765 -35.231  1.00  0.00     0.221 C 
HETATM    9  C   UNL     1      -9.239   1.417 -32.745  1.00  0.00     0.089 A 
HETATM   10  H   UNL     1     -11.674   0.088 -32.402  1.00  0.00     0.162 HD
ENDROOT
BRANCH   1  11
HETATM   11  C   UNL     1      -7.036   2.705 -33.138  1.00  0.00     0.276 C 
HETATM   12  N   UNL     1      -6.690   3.958 -33.605  1.00  0.00    -0.322 N 
HETATM   13  H   UNL     1      -7.442   4.429 -34.101  1.00  0.00     0.169 HD
HETATM   14  O   UNL     1      -6.303   1.912 -32.557  1.00  0.00    -0.266 OA
BRANCH  12  15
HETATM   15  C   UNL     1      -5.441   4.598 -33.523  1.00  0.00     0.035 A 
HETATM   16  C   UNL     1      -4.856   5.004 -32.323  1.00  0.00     0.030 A 
HETATM   17  C   UNL     1      -3.598   5.619 -32.315  1.00  0.00     0.012 A 
HETATM   18  C   UNL     1      -2.898   5.839 -33.506  1.00  0.00    -0.030 A 
HETATM   19  C   UNL     1      -3.488   5.429 -34.709  1.00  0.00     0.012 A 
HETATM   20  C   UNL     1      -4.752   4.826 -34.717  1.00  0.00     0.030 A 
BRANCH  18  21
HETATM   21  C   UNL     1      -1.515   6.455 -33.468  1.00  0.00     0.147 C 
HETATM   22  C   UNL     1      -0.957   6.643 -32.064  1.00  0.00     0.044 C 
BRANCH  21  23
HETATM   23  O   UNL     1      -1.545   7.723 -34.121  1.00  0.00    -0.391 OA
HETATM   24  H   UNL     1      -2.262   7.693 -34.779  1.00  0.00     0.210 HD
ENDBRANCH  21  23
ENDBRANCH  18  21
ENDBRANCH  12  15
ENDBRANCH   1  11
BRANCH   8  25
HETATM   25  C   UNL     1     -11.981   4.113 -34.806  1.00  0.00     0.409 C 
HETATM   26  F   UNL     1     -13.314   4.236 -34.952  1.00  0.00    -0.169 F 
HETATM   27  F   UNL     1     -11.691   4.383 -33.511  1.00  0.00    -0.169 F 
HETATM   28  F   UNL     1     -11.402   5.102 -35.535  1.00  0.00    -0.169 F 
ENDBRANCH   8  25
BRANCH   6  29
HETATM   29  C   UNL     1     -13.828   1.738 -33.117  1.00  0.00     0.075 A 
HETATM   30  O   UNL     1     -13.344   2.638 -32.212  1.00  0.00    -0.325 OA
HETATM   31  C   UNL     1     -14.417   3.226 -31.623  1.00  0.00     0.142 A 
HETATM   32  C   UNL     1     -15.587   2.720 -32.137  1.00  0.00     0.027 A 
HETATM   33  C   UNL     1     -15.208   1.763 -33.108  1.00  0.00     0.037 A 
ENDBRANCH   6  29
TORSDOF 6
ENDMDL
MODEL 8
REMARK VINA RESULT:      -7.9      2.829      9.533
REMARK  6 active torsions:
REMARK  status: ('A' for Active; 'I' for Inactive)
REMARK    1  A    between atoms: C_2  and  O_3 
REMARK    2  A    between atoms: C_2  and  C_4 
REMARK    3  A    between atoms: C_7  and  N_8 
REMARK       I    between atoms: N_8  and  C_9 
REMARK    4  A    between atoms: C_9  and  C_10 
REMARK    5  A    between atoms: C_15  and  C_16 
REMARK    6  A    between atoms: C_22  and  C_23 
ROOT
HETATM    1  C   UNL     1      -4.406   4.485 -32.112  1.00  0.00     0.148 A 
HETATM    2  N   UNL     1      -5.124   3.843 -31.160  1.00  0.00    -0.165 NA
HETATM    3  N   UNL     1      -5.848   2.951 -31.866  1.00  0.00    -0.240 N 
HETATM    4  C   UNL     1      -5.712   3.076 -33.221  1.00  0.00     0.123 A 
HETATM    5  N   UNL     1      -6.449   2.345 -34.082  1.00  0.00    -0.364 N 
HETATM    6  C   UNL     1      -7.310   1.249 -33.637  1.00  0.00     0.143 C 
HETATM    7  C   UNL     1      -7.804   1.504 -32.202  1.00  0.00     0.068 C 
HETATM    8  C   UNL     1      -6.714   1.981 -31.224  1.00  0.00     0.221 C 
HETATM    9  C   UNL     1      -4.754   4.033 -33.415  1.00  0.00     0.089 A 
HETATM   10  H   UNL     1      -6.242   2.352 -35.079  1.00  0.00     0.162 HD
ENDROOT
BRANCH   1  11
HETATM   11  C   UNL     1      -3.420   5.534 -31.791  1.00  0.00     0.276 C 
HETATM   12  N   UNL     1      -2.883   5.378 -30.528  1.00  0.00    -0.322 N 
HETATM   13  H   UNL     1      -3.267   4.588 -30.016  1.00  0.00     0.169 HD
HETATM   14  O   UNL     1      -3.169   6.432 -32.588  1.00  0.00    -0.266 OA
BRANCH  12  15
HETATM   15  C   UNL     1      -1.943   6.199 -29.880  1.00  0.00     0.035 A 
HETATM   16  C   UNL     1      -0.563   6.074 -30.042  1.00  0.00     0.030 A 
HETATM   17  C   UNL     1       0.314   6.942 -29.379  1.00  0.00     0.012 A 
HETATM   18  C   UNL     1      -0.171   7.953 -28.542  1.00  0.00    -0.030 A 
HETATM   19  C   UNL     1      -1.557   8.075 -28.382  1.00  0.00     0.012 A 
HETATM   20  C   UNL     1      -2.433   7.199 -29.035  1.00  0.00     0.030 A 
BRANCH  18  21
HETATM   21  C   UNL     1       0.794   8.913 -27.879  1.00  0.00     0.147 C 
HETATM   22  C   UNL     1       1.751   8.254 -26.896  1.00  0.00     0.044 C 
BRANCH  21  23
HETATM   23  O   UNL     1       0.059   9.924 -27.193  1.00  0.00    -0.391 OA
HETATM   24  H   UNL     1      -0.836   9.575 -27.037  1.00  0.00     0.210 HD
ENDBRANCH  21  23
ENDBRANCH  18  21
ENDBRANCH  12  15
ENDBRANCH   1  11
BRANCH   8  25
HETATM   25  C   UNL     1      -5.882   0.861 -30.638  1.00  0.00     0.409 C 
HETATM   26  F   UNL     1      -4.668   0.731 -31.205  1.00  0.00    -0.169 F 
HETATM   27  F   UNL     1      -5.691   1.024 -29.307  1.00  0.00    -0.169 F 
HETATM   28  F   UNL     1      -6.524  -0.326 -30.783  1.00  0.00    -0.169 F 
ENDBRANCH   8  25
BRANCH   6  29
HETATM   29  C   UNL     1      -6.732  -0.115 -33.836  1.00  0.00     0.075 A 
HETATM   30  O   UNL     1      -7.626  -1.139 -33.968  1.00  0.00    -0.325 OA
HETATM   31  C   UNL     1      -6.906  -2.271 -34.179  1.00  0.00     0.142 A 
HETATM   32  C   UNL     1      -5.560  -1.992 -34.186  1.00  0.00     0.027 A 
HETATM   33  C   UNL     1      -5.446  -0.598 -33.971  1.00  0.00     0.037 A 
ENDBRANCH   6  29
TORSDOF 6
ENDMDL
MODEL 9
REMARK VINA RESULT:      -7.8      4.616      5.829
REMARK  6 active torsions:
REMARK  status: ('A' for Active; 'I' for Inactive)
REMARK    1  A    between atoms: C_2  and  O_3 
REMARK    2  A    between atoms: C_2  and  C_4 
REMARK    3  A    between atoms: C_7  and  N_8 
REMARK       I    between atoms: N_8  and  C_9 
REMARK    4  A    between atoms: C_9  and  C_10 
REMARK    5  A    between atoms: C_15  and  C_16 
REMARK    6  A    between atoms: C_22  and  C_23 
ROOT
HETATM    1  C   UNL     1      -6.819   2.360 -32.693  1.00  0.00     0.148 A 
HETATM    2  N   UNL     1      -6.828   3.594 -32.135  1.00  0.00    -0.165 NA
HETATM    3  N   UNL     1      -5.518   3.874 -31.978  1.00  0.00    -0.240 N 
HETATM    4  C   UNL     1      -4.688   2.836 -32.300  1.00  0.00     0.123 A 
HETATM    5  N   UNL     1      -3.356   2.899 -32.095  1.00  0.00    -0.364 N 
HETATM    6  C   UNL     1      -2.687   4.133 -31.686  1.00  0.00     0.143 C 
HETATM    7  C   UNL     1      -3.647   5.021 -30.875  1.00  0.00     0.068 C 
HETATM    8  C   UNL     1      -5.058   5.154 -31.477  1.00  0.00     0.221 C 
HETATM    9  C   UNL     1      -5.495   1.854 -32.806  1.00  0.00     0.089 A 
HETATM   10  H   UNL     1      -2.740   2.175 -32.462  1.00  0.00     0.162 HD
ENDROOT
BRANCH   1  11
HETATM   11  C   UNL     1      -8.054   1.660 -33.092  1.00  0.00     0.276 C 
HETATM   12  N   UNL     1      -9.169   2.470 -32.999  1.00  0.00    -0.322 N 
HETATM   13  H   UNL     1      -8.966   3.403 -32.650  1.00  0.00     0.169 HD
HETATM   14  O   UNL     1      -8.031   0.481 -33.433  1.00  0.00    -0.266 OA
BRANCH  12  15
HETATM   15  C   UNL     1     -10.507   2.134 -33.268  1.00  0.00     0.035 A 
HETATM   16  C   UNL     1     -10.946   0.830 -33.505  1.00  0.00     0.030 A 
HETATM   17  C   UNL     1     -12.300   0.567 -33.747  1.00  0.00     0.012 A 
HETATM   18  C   UNL     1     -13.244   1.600 -33.755  1.00  0.00    -0.030 A 
HETATM   19  C   UNL     1     -12.799   2.907 -33.515  1.00  0.00     0.012 A 
HETATM   20  C   UNL     1     -11.443   3.172 -33.286  1.00  0.00     0.030 A 
BRANCH  18  21
HETATM   21  C   UNL     1     -14.709   1.284 -33.964  1.00  0.00     0.147 C 
HETATM   22  C   UNL     1     -15.607   1.700 -32.807  1.00  0.00     0.044 C 
BRANCH  21  23
HETATM   23  O   UNL     1     -14.863  -0.118 -34.181  1.00  0.00    -0.391 OA
HETATM   24  H   UNL     1     -15.764  -0.261 -34.519  1.00  0.00     0.210 HD
ENDBRANCH  21  23
ENDBRANCH  18  21
ENDBRANCH  12  15
ENDBRANCH   1  11
BRANCH   8  25
HETATM   25  C   UNL     1      -5.165   6.198 -32.567  1.00  0.00     0.409 C 
HETATM   26  F   UNL     1      -4.263   7.192 -32.459  1.00  0.00    -0.169 F 
HETATM   27  F   UNL     1      -5.018   5.653 -33.798  1.00  0.00    -0.169 F 
HETATM   28  F   UNL     1      -6.397   6.769 -32.554  1.00  0.00    -0.169 F 
ENDBRANCH   8  25
BRANCH   6  29
HETATM   29  C   UNL     1      -1.993   4.860 -32.793  1.00  0.00     0.075 A 
HETATM   30  O   UNL     1      -2.168   4.360 -34.051  1.00  0.00    -0.325 OA
HETATM   31  C   UNL     1      -1.499   5.179 -34.902  1.00  0.00     0.142 A 
HETATM   32  C   UNL     1      -0.896   6.203 -34.211  1.00  0.00     0.027 A 
HETATM   33  C   UNL     1      -1.220   6.003 -32.849  1.00  0.00     0.037 A 
ENDBRANCH   6  29
TORSDOF 6
ENDMDL
MODEL 10
REMARK VINA RESULT:      -7.8      6.872      9.036
REMARK  6 active torsions:
REMARK  status: ('A' for Active; 'I' for Inactive)
REMARK    1  A    between atoms: C_2  and  O_3 
REMARK    2  A    between atoms: C_2  and  C_4 
REMARK    3  A    between atoms: C_7  and  N_8 
REMARK       I    between atoms: N_8  and  C_9 
REMARK    4  A    between atoms: C_9  and  C_10 
REMARK    5  A    between atoms: C_15  and  C_16 
REMARK    6  A    between atoms: C_22  and  C_23 
ROOT
HETATM    1  C   UNL     1     -10.139   2.665 -32.525  1.00  0.00     0.148 A 
HETATM    2  N   UNL     1      -9.084   3.506 -32.626  1.00  0.00    -0.165 NA
HETATM    3  N   UNL     1      -8.053   2.770 -32.164  1.00  0.00    -0.240 N 
HETATM    4  C   UNL     1      -8.423   1.550 -31.668  1.00  0.00     0.123 A 
HETATM    5  N   UNL     1      -7.540   0.731 -31.060  1.00  0.00    -0.364 N 
HETATM    6  C   UNL     1      -6.104   1.004 -31.046  1.00  0.00     0.143 C 
HETATM    7  C   UNL     1      -5.845   2.519 -31.118  1.00  0.00     0.068 C 
HETATM    8  C   UNL     1      -6.690   3.264 -32.168  1.00  0.00     0.221 C 
HETATM    9  C   UNL     1      -9.761   1.432 -31.924  1.00  0.00     0.089 A 
HETATM   10  H   UNL     1      -7.800  -0.224 -30.819  1.00  0.00     0.162 HD
ENDROOT
BRANCH   1  11
HETATM   11  C   UNL     1     -11.496   3.034 -32.970  1.00  0.00     0.276 C 
HETATM   12  N   UNL     1     -12.419   2.972 -31.944  1.00  0.00    -0.322 N 
HETATM   13  H   UNL     1     -12.025   2.660 -31.061  1.00  0.00     0.169 HD
HETATM   14  O   UNL     1     -11.719   3.327 -34.141  1.00  0.00    -0.266 OA
BRANCH  12  15
HETATM   15  C   UNL     1     -13.800   3.225 -32.008  1.00  0.00     0.035 A 
HETATM   16  C   UNL     1     -14.364   4.491 -31.841  1.00  0.00     0.030 A 
HETATM   17  C   UNL     1     -15.750   4.672 -31.937  1.00  0.00     0.012 A 
HETATM   18  C   UNL     1     -16.600   3.592 -32.202  1.00  0.00    -0.030 A 
HETATM   19  C   UNL     1     -16.029   2.323 -32.369  1.00  0.00     0.012 A 
HETATM   20  C   UNL     1     -14.645   2.140 -32.260  1.00  0.00     0.030 A 
BRANCH  18  21
HETATM   21  C   UNL     1     -18.088   3.821 -32.355  1.00  0.00     0.147 C 
HETATM   22  C   UNL     1     -18.733   4.534 -31.174  1.00  0.00     0.044 C 
BRANCH  21  23
HETATM   23  O   UNL     1     -18.742   2.569 -32.545  1.00  0.00    -0.391 OA
HETATM   24  H   UNL     1     -19.567   2.592 -32.030  1.00  0.00     0.210 HD
ENDBRANCH  21  23
ENDBRANCH  18  21
ENDBRANCH  12  15
ENDBRANCH   1  11
BRANCH   8  25
HETATM   25  C   UNL     1      -6.126   3.197 -33.570  1.00  0.00     0.409 C 
HETATM   26  F   UNL     1      -6.572   2.147 -34.287  1.00  0.00    -0.169 F 
HETATM   27  F   UNL     1      -6.408   4.316 -34.278  1.00  0.00    -0.169 F 
HETATM   28  F   UNL     1      -4.772   3.109 -33.529  1.00  0.00    -0.169 F 
ENDBRANCH   8  25
BRANCH   6  29
HETATM   29  C   UNL     1      -5.311   0.215 -32.038  1.00  0.00     0.075 A 
HETATM   30  O   UNL     1      -3.968   0.457 -32.071  1.00  0.00    -0.325 OA
HETATM   31  C   UNL     1      -3.435  -0.381 -32.997  1.00  0.00     0.142 A 
HETATM   32  C   UNL     1      -4.416  -1.162 -33.562  1.00  0.00     0.027 A 
HETATM   33  C   UNL     1      -5.628  -0.783 -32.939  1.00  0.00     0.037 A 
ENDBRANCH   6  29
TORSDOF 6
ENDMDL
