MODEL 1
REMARK VINA RESULT:      -8.7      0.000      0.000
REMARK  5 active torsions:
REMARK  status: ('A' for Active; 'I' for Inactive)
REMARK    1  A    between atoms: C_2  and  O_3 
REMARK    2  A    between atoms: O_3  and  C_4 
REMARK    3  A    between atoms: C_7  and  C_8 
REMARK       I    between atoms: C_8  and  N_9 
REMARK    4  A    between atoms: N_12  and  C_13 
REMARK    5  A    between atoms: C_17  and  C_18 
ROOT
HETATM    1  C   UNL     1      -1.783   7.643 -31.742  1.00  0.00     0.253 C 
HETATM    2  N   UNL     1      -2.214   6.332 -31.920  1.00  0.00    -0.345 N 
HETATM    3  C   UNL     1      -2.625   5.931 -33.270  1.00  0.00     0.146 C 
HETATM    4  C   UNL     1      -2.409   4.427 -33.503  1.00  0.00     0.144 C 
HETATM    5  N   UNL     1      -3.039   3.635 -32.429  1.00  0.00    -0.363 N 
HETATM    6  C   UNL     1      -2.626   4.017 -31.068  1.00  0.00     0.144 C 
HETATM    7  C   UNL     1      -2.829   5.530 -30.849  1.00  0.00     0.146 C 
HETATM    8  O   UNL     1      -1.822   8.490 -32.631  1.00  0.00    -0.267 OA
ENDROOT
BRANCH   5   9
HETATM    9  C   UNL     1      -3.925   2.640 -32.706  1.00  0.00     0.122 A 
HETATM   10  N   UNL     1      -5.283   2.771 -32.577  1.00  0.00    -0.262 N 
HETATM   11  H   UNL     1      -5.798   3.576 -32.247  1.00  0.00     0.191 HD
HETATM   12  N   UNL     1      -5.984   1.675 -32.908  1.00  0.00    -0.173 NA
HETATM   13  C   UNL     1      -5.052   0.778 -33.267  1.00  0.00     0.090 A 
HETATM   14  C   UNL     1      -3.752   1.342 -33.134  1.00  0.00     0.084 A 
BRANCH  13  15
HETATM   15  C   UNL     1      -5.412  -0.570 -33.718  1.00  0.00    -0.005 A 
HETATM   16  C   UNL     1      -4.437  -1.580 -33.786  1.00  0.00     0.015 A 
HETATM   17  C   UNL     1      -4.769  -2.869 -34.217  1.00  0.00     0.024 A 
HETATM   18  C   UNL     1      -6.081  -3.160 -34.580  1.00  0.00     0.034 A 
HETATM   19 CL   UNL     1      -6.492  -4.744 -35.108  1.00  0.00    -0.084 Cl
HETATM   20  C   UNL     1      -7.063  -2.175 -34.515  1.00  0.00     0.024 A 
HETATM   21  C   UNL     1      -6.729  -0.886 -34.087  1.00  0.00     0.015 A 
ENDBRANCH  13  15
ENDBRANCH   5   9
BRANCH   1  22
HETATM   22  C   UNL     1      -1.177   8.029 -30.445  1.00  0.00     0.032 A 
HETATM   23  C   UNL     1      -1.833   8.911 -29.581  1.00  0.00     0.020 A 
HETATM   24  C   UNL     1      -1.271   9.212 -28.339  1.00  0.00     0.038 A 
HETATM   25  C   UNL     1      -0.082   8.602 -27.935  1.00  0.00     0.068 A 
HETATM   26  C   UNL     1       0.568   7.712 -28.792  1.00  0.00     0.038 A 
HETATM   27  C   UNL     1       0.016   7.418 -30.044  1.00  0.00     0.020 A 
BRANCH  25  28
HETATM   28  O   UNL     1       0.353   8.962 -26.689  1.00  0.00    -0.352 OA
BRANCH  28  29
HETATM   29  C   UNL     1       1.080   7.968 -25.967  1.00  0.00     0.171 C 
HETATM   30  C   UNL     1       2.393   8.586 -25.519  1.00  0.00     0.034 C 
ENDBRANCH  28  29
ENDBRANCH  25  28
ENDBRANCH   1  22
TORSDOF 5
ENDMDL
MODEL 2
REMARK VINA RESULT:      -8.6      1.186      1.569
REMARK  5 active torsions:
REMARK  status: ('A' for Active; 'I' for Inactive)
REMARK    1  A    between atoms: C_2  and  O_3 
REMARK    2  A    between atoms: O_3  and  C_4 
REMARK    3  A    between atoms: C_7  and  C_8 
REMARK       I    between atoms: C_8  and  N_9 
REMARK    4  A    between atoms: N_12  and  C_13 
REMARK    5  A    between atoms: C_17  and  C_18 
ROOT
HETATM    1  C   UNL     1      -2.133   7.709 -32.125  1.00  0.00     0.253 C 
HETATM    2  N   UNL     1      -2.607   6.401 -32.093  1.00  0.00    -0.345 N 
HETATM    3  C   UNL     1      -2.509   5.614 -33.327  1.00  0.00     0.146 C 
HETATM    4  C   UNL     1      -2.391   4.110 -33.030  1.00  0.00     0.144 C 
HETATM    5  N   UNL     1      -3.472   3.669 -32.128  1.00  0.00    -0.363 N 
HETATM    6  C   UNL     1      -3.576   4.441 -30.879  1.00  0.00     0.144 C 
HETATM    7  C   UNL     1      -3.674   5.949 -31.185  1.00  0.00     0.146 C 
HETATM    8  O   UNL     1      -1.730   8.253 -33.151  1.00  0.00    -0.267 OA
ENDROOT
BRANCH   5   9
HETATM    9  C   UNL     1      -4.289   2.630 -32.453  1.00  0.00     0.122 A 
HETATM   10  N   UNL     1      -5.647   2.640 -32.265  1.00  0.00    -0.262 N 
HETATM   11  H   UNL     1      -6.208   3.373 -31.852  1.00  0.00     0.191 HD
HETATM   12  N   UNL     1      -6.274   1.521 -32.657  1.00  0.00    -0.173 NA
HETATM   13  C   UNL     1      -5.292   0.733 -33.121  1.00  0.00     0.090 A 
HETATM   14  C   UNL     1      -4.035   1.388 -32.991  1.00  0.00     0.084 A 
BRANCH  13  15
HETATM   15  C   UNL     1      -5.564  -0.601 -33.667  1.00  0.00    -0.005 A 
HETATM   16  C   UNL     1      -4.544  -1.565 -33.730  1.00  0.00     0.015 A 
HETATM   17  C   UNL     1      -4.792  -2.839 -34.250  1.00  0.00     0.024 A 
HETATM   18  C   UNL     1      -6.066  -3.162 -34.709  1.00  0.00     0.034 A 
HETATM   19 CL   UNL     1      -6.376  -4.729 -35.347  1.00  0.00    -0.084 Cl
HETATM   20  C   UNL     1      -7.093  -2.223 -34.650  1.00  0.00     0.024 A 
HETATM   21  C   UNL     1      -6.842  -0.948 -34.132  1.00  0.00     0.015 A 
ENDBRANCH  13  15
ENDBRANCH   5   9
BRANCH   1  22
HETATM   22  C   UNL     1      -2.035   8.467 -30.855  1.00  0.00     0.032 A 
HETATM   23  C   UNL     1      -1.266   7.987 -29.790  1.00  0.00     0.020 A 
HETATM   24  C   UNL     1      -1.141   8.747 -28.627  1.00  0.00     0.038 A 
HETATM   25  C   UNL     1      -1.741  10.005 -28.536  1.00  0.00     0.068 A 
HETATM   26  C   UNL     1      -2.499  10.491 -29.603  1.00  0.00     0.038 A 
HETATM   27  C   UNL     1      -2.639   9.725 -30.766  1.00  0.00     0.020 A 
BRANCH  25  28
HETATM   28  O   UNL     1      -1.525  10.660 -27.355  1.00  0.00    -0.352 OA
BRANCH  28  29
HETATM   29  C   UNL     1      -0.325  10.322 -26.661  1.00  0.00     0.171 C 
HETATM   30  C   UNL     1       0.520  11.580 -26.553  1.00  0.00     0.034 C 
ENDBRANCH  28  29
ENDBRANCH  25  28
ENDBRANCH   1  22
TORSDOF 5
ENDMDL
MODEL 3
REMARK VINA RESULT:      -8.2      7.950     11.535
REMARK  5 active torsions:
REMARK  status: ('A' for Active; 'I' for Inactive)
REMARK    1  A    between atoms: C_2  and  O_3 
REMARK    2  A    between atoms: O_3  and  C_4 
REMARK    3  A    between atoms: C_7  and  C_8 
REMARK       I    between atoms: C_8  and  N_9 
REMARK    4  A    between atoms: N_12  and  C_13 
REMARK    5  A    between atoms: C_17  and  C_18 
ROOT
HETATM    1  C   UNL     1      -7.437   1.974 -33.842  1.00  0.00     0.253 C 
HETATM    2  N   UNL     1      -8.822   1.850 -33.777  1.00  0.00    -0.345 N 
HETATM    3  C   UNL     1      -9.626   3.028 -34.123  1.00  0.00     0.146 C 
HETATM    4  C   UNL     1     -11.002   2.629 -34.678  1.00  0.00     0.144 C 
HETATM    5  N   UNL     1     -11.683   1.692 -33.763  1.00  0.00    -0.363 N 
HETATM    6  C   UNL     1     -10.894   0.498 -33.416  1.00  0.00     0.144 C 
HETATM    7  C   UNL     1      -9.508   0.906 -32.879  1.00  0.00     0.146 C 
HETATM    8  O   UNL     1      -6.868   3.037 -34.080  1.00  0.00    -0.267 OA
ENDROOT
BRANCH   5   9
HETATM    9  C   UNL     1     -12.937   1.940 -33.297  1.00  0.00     0.122 A 
HETATM   10  N   UNL     1     -13.876   0.965 -33.077  1.00  0.00    -0.262 N 
HETATM   11  H   UNL     1     -13.787  -0.028 -33.249  1.00  0.00     0.191 HD
HETATM   12  N   UNL     1     -15.050   1.414 -32.608  1.00  0.00    -0.173 NA
HETATM   13  C   UNL     1     -14.886   2.743 -32.516  1.00  0.00     0.090 A 
HETATM   14  C   UNL     1     -13.583   3.108 -32.956  1.00  0.00     0.084 A 
BRANCH  13  15
HETATM   15  C   UNL     1     -15.953   3.621 -32.021  1.00  0.00    -0.005 A 
HETATM   16  C   UNL     1     -17.278   3.160 -31.957  1.00  0.00     0.015 A 
HETATM   17  C   UNL     1     -18.303   3.988 -31.489  1.00  0.00     0.024 A 
HETATM   18  C   UNL     1     -18.010   5.285 -31.077  1.00  0.00     0.034 A 
HETATM   19 CL   UNL     1     -19.268   6.306 -30.500  1.00  0.00    -0.084 Cl
HETATM   20  C   UNL     1     -16.702   5.760 -31.129  1.00  0.00     0.024 A 
HETATM   21  C   UNL     1     -15.678   4.931 -31.599  1.00  0.00     0.015 A 
ENDBRANCH  13  15
ENDBRANCH   5   9
BRANCH   1  22
HETATM   22  C   UNL     1      -6.601   0.760 -33.691  1.00  0.00     0.032 A 
HETATM   23  C   UNL     1      -6.698  -0.295 -34.603  1.00  0.00     0.020 A 
HETATM   24  C   UNL     1      -5.857  -1.402 -34.475  1.00  0.00     0.038 A 
HETATM   25  C   UNL     1      -4.888  -1.442 -33.470  1.00  0.00     0.068 A 
HETATM   26  C   UNL     1      -4.783  -0.383 -32.566  1.00  0.00     0.038 A 
HETATM   27  C   UNL     1      -5.633   0.722 -32.682  1.00  0.00     0.020 A 
BRANCH  25  28
HETATM   28  O   UNL     1      -4.113  -2.569 -33.464  1.00  0.00    -0.352 OA
BRANCH  28  29
HETATM   29  C   UNL     1      -4.545  -3.631 -34.314  1.00  0.00     0.171 C 
HETATM   30  C   UNL     1      -3.907  -4.915 -33.813  1.00  0.00     0.034 C 
ENDBRANCH  28  29
ENDBRANCH  25  28
ENDBRANCH   1  22
TORSDOF 5
ENDMDL
MODEL 4
REMARK VINA RESULT:      -8.2      3.773      4.391
REMARK  5 active torsions:
REMARK  status: ('A' for Active; 'I' for Inactive)
REMARK    1  A    between atoms: C_2  and  O_3 
REMARK    2  A    between atoms: O_3  and  C_4 
REMARK    3  A    between atoms: C_7  and  C_8 
REMARK       I    between atoms: C_8  and  N_9 
REMARK    4  A    between atoms: N_12  and  C_13 
REMARK    5  A    between atoms: C_17  and  C_18 
ROOT
HETATM    1  C   UNL     1      -1.772   6.643 -32.798  1.00  0.00     0.253 C 
HETATM    2  N   UNL     1      -2.980   5.968 -32.948  1.00  0.00    -0.345 N 
HETATM    3  C   UNL     1      -3.551   5.891 -34.297  1.00  0.00     0.146 C 
HETATM    4  C   UNL     1      -4.416   4.633 -34.474  1.00  0.00     0.144 C 
HETATM    5  N   UNL     1      -5.419   4.533 -33.396  1.00  0.00    -0.363 N 
HETATM    6  C   UNL     1      -4.861   4.596 -32.035  1.00  0.00     0.144 C 
HETATM    7  C   UNL     1      -3.979   5.851 -31.873  1.00  0.00     0.146 C 
HETATM    8  O   UNL     1      -1.221   7.248 -33.716  1.00  0.00    -0.267 OA
ENDROOT
BRANCH   5   9
HETATM    9  C   UNL     1      -6.745   4.395 -33.670  1.00  0.00     0.122 A 
HETATM   10  N   UNL     1      -7.551   5.426 -34.081  1.00  0.00    -0.262 N 
HETATM   11  H   UNL     1      -7.296   6.397 -34.206  1.00  0.00     0.191 HD
HETATM   12  N   UNL     1      -8.828   5.082 -34.307  1.00  0.00    -0.173 NA
HETATM   13  C   UNL     1      -8.874   3.769 -34.032  1.00  0.00     0.090 A 
HETATM   14  C   UNL     1      -7.593   3.311 -33.612  1.00  0.00     0.084 A 
BRANCH  13  15
HETATM   15  C   UNL     1     -10.111   2.994 -34.170  1.00  0.00    -0.005 A 
HETATM   16  C   UNL     1     -10.274   1.786 -33.471  1.00  0.00     0.015 A 
HETATM   17  C   UNL     1     -11.449   1.038 -33.596  1.00  0.00     0.024 A 
HETATM   18  C   UNL     1     -12.475   1.494 -34.420  1.00  0.00     0.034 A 
HETATM   19 CL   UNL     1     -13.922   0.578 -34.576  1.00  0.00    -0.084 Cl
HETATM   20  C   UNL     1     -12.335   2.692 -35.118  1.00  0.00     0.024 A 
HETATM   21  C   UNL     1     -11.158   3.438 -34.993  1.00  0.00     0.015 A 
ENDBRANCH  13  15
ENDBRANCH   5   9
BRANCH   1  22
HETATM   22  C   UNL     1      -1.069   6.574 -31.495  1.00  0.00     0.032 A 
HETATM   23  C   UNL     1      -0.273   5.472 -31.167  1.00  0.00     0.020 A 
HETATM   24  C   UNL     1       0.427   5.457 -29.959  1.00  0.00     0.038 A 
HETATM   25  C   UNL     1       0.373   6.555 -29.097  1.00  0.00     0.068 A 
HETATM   26  C   UNL     1      -0.412   7.661 -29.430  1.00  0.00     0.038 A 
HETATM   27  C   UNL     1      -1.127   7.674 -30.633  1.00  0.00     0.020 A 
BRANCH  25  28
HETATM   28  O   UNL     1       1.120   6.428 -27.959  1.00  0.00    -0.352 OA
BRANCH  28  29
HETATM   29  C   UNL     1       0.657   7.154 -26.821  1.00  0.00     0.171 C 
HETATM   30  C   UNL     1       1.845   7.888 -26.223  1.00  0.00     0.034 C 
ENDBRANCH  28  29
ENDBRANCH  25  28
ENDBRANCH   1  22
TORSDOF 5
ENDMDL
MODEL 5
REMARK VINA RESULT:      -8.2      2.548      3.198
REMARK  5 active torsions:
REMARK  status: ('A' for Active; 'I' for Inactive)
REMARK    1  A    between atoms: C_2  and  O_3 
REMARK    2  A    between atoms: O_3  and  C_4 
REMARK    3  A    between atoms: C_7  and  C_8 
REMARK       I    between atoms: C_8  and  N_9 
REMARK    4  A    between atoms: N_12  and  C_13 
REMARK    5  A    between atoms: C_17  and  C_18 
ROOT
HETATM    1  C   UNL     1      -2.108   7.488 -31.919  1.00  0.00     0.253 C 
HETATM    2  N   UNL     1      -2.745   6.258 -32.056  1.00  0.00    -0.345 N 
HETATM    3  C   UNL     1      -3.237   5.895 -33.390  1.00  0.00     0.146 C 
HETATM    4  C   UNL     1      -3.267   4.370 -33.585  1.00  0.00     0.144 C 
HETATM    5  N   UNL     1      -3.997   3.716 -32.482  1.00  0.00    -0.363 N 
HETATM    6  C   UNL     1      -3.507   4.060 -31.138  1.00  0.00     0.144 C 
HETATM    7  C   UNL     1      -3.462   5.591 -30.957  1.00  0.00     0.146 C 
HETATM    8  O   UNL     1      -2.026   8.308 -32.830  1.00  0.00    -0.267 OA
ENDROOT
BRANCH   5   9
HETATM    9  C   UNL     1      -5.035   2.868 -32.722  1.00  0.00     0.122 A 
HETATM   10  N   UNL     1      -4.890   1.517 -32.903  1.00  0.00    -0.262 N 
HETATM   11  H   UNL     1      -4.030   0.984 -32.913  1.00  0.00     0.191 HD
HETATM   12  N   UNL     1      -6.037   0.856 -33.120  1.00  0.00    -0.173 NA
HETATM   13  C   UNL     1      -6.983   1.807 -33.085  1.00  0.00     0.090 A 
HETATM   14  C   UNL     1      -6.389   3.081 -32.857  1.00  0.00     0.084 A 
BRANCH  13  15
HETATM   15  C   UNL     1      -8.404   1.491 -33.268  1.00  0.00    -0.005 A 
HETATM   16  C   UNL     1      -9.231   2.346 -34.015  1.00  0.00     0.015 A 
HETATM   17  C   UNL     1     -10.587   2.056 -34.194  1.00  0.00     0.024 A 
HETATM   18  C   UNL     1     -11.127   0.903 -33.630  1.00  0.00     0.034 A 
HETATM   19 CL   UNL     1     -12.794   0.541 -33.848  1.00  0.00    -0.084 Cl
HETATM   20  C   UNL     1     -10.323   0.039 -32.890  1.00  0.00     0.024 A 
HETATM   21  C   UNL     1      -8.967   0.333 -32.710  1.00  0.00     0.015 A 
ENDBRANCH  13  15
ENDBRANCH   5   9
BRANCH   1  22
HETATM   22  C   UNL     1      -1.427   7.803 -30.640  1.00  0.00     0.032 A 
HETATM   23  C   UNL     1      -0.188   7.236 -30.328  1.00  0.00     0.020 A 
HETATM   24  C   UNL     1       0.461   7.594 -29.146  1.00  0.00     0.038 A 
HETATM   25  C   UNL     1      -0.097   8.551 -28.295  1.00  0.00     0.068 A 
HETATM   26  C   UNL     1      -1.329   9.127 -28.612  1.00  0.00     0.038 A 
HETATM   27  C   UNL     1      -1.990   8.760 -29.789  1.00  0.00     0.020 A 
BRANCH  25  28
HETATM   28  O   UNL     1       0.646   8.832 -27.182  1.00  0.00    -0.352 OA
BRANCH  28  29
HETATM   29  C   UNL     1       1.494   7.785 -26.713  1.00  0.00     0.171 C 
HETATM   30  C   UNL     1       2.181   8.274 -25.449  1.00  0.00     0.034 C 
ENDBRANCH  28  29
ENDBRANCH  25  28
ENDBRANCH   1  22
TORSDOF 5
ENDMDL
MODEL 6
REMARK VINA RESULT:      -8.0      4.802     11.095
REMARK  5 active torsions:
REMARK  status: ('A' for Active; 'I' for Inactive)
REMARK    1  A    between atoms: C_2  and  O_3 
REMARK    2  A    between atoms: O_3  and  C_4 
REMARK    3  A    between atoms: C_7  and  C_8 
REMARK       I    between atoms: C_8  and  N_9 
REMARK    4  A    between atoms: N_12  and  C_13 
REMARK    5  A    between atoms: C_17  and  C_18 
ROOT
HETATM    1  C   UNL     1      -6.929   3.031 -33.501  1.00  0.00     0.253 C 
HETATM    2  N   UNL     1      -5.974   3.654 -32.703  1.00  0.00    -0.345 N 
HETATM    3  C   UNL     1      -6.170   5.074 -32.395  1.00  0.00     0.146 C 
HETATM    4  C   UNL     1      -5.531   5.454 -31.049  1.00  0.00     0.144 C 
HETATM    5  N   UNL     1      -4.120   5.023 -31.000  1.00  0.00    -0.363 N 
HETATM    6  C   UNL     1      -3.908   3.597 -31.295  1.00  0.00     0.144 C 
HETATM    7  C   UNL     1      -4.568   3.220 -32.637  1.00  0.00     0.146 C 
HETATM    8  O   UNL     1      -7.862   3.633 -34.027  1.00  0.00    -0.267 OA
ENDROOT
BRANCH   5   9
HETATM    9  C   UNL     1      -3.121   5.898 -30.704  1.00  0.00     0.122 A 
HETATM   10  N   UNL     1      -2.257   6.414 -31.636  1.00  0.00    -0.262 N 
HETATM   11  H   UNL     1      -2.221   6.208 -32.625  1.00  0.00     0.191 HD
HETATM   12  N   UNL     1      -1.346   7.267 -31.142  1.00  0.00    -0.173 NA
HETATM   13  C   UNL     1      -1.613   7.316 -29.827  1.00  0.00     0.090 A 
HETATM   14  C   UNL     1      -2.704   6.458 -29.516  1.00  0.00     0.084 A 
BRANCH  13  15
HETATM   15  C   UNL     1      -0.837   8.162 -28.914  1.00  0.00    -0.005 A 
HETATM   16  C   UNL     1      -1.437   9.266 -28.286  1.00  0.00     0.015 A 
HETATM   17  C   UNL     1      -0.706  10.080 -27.415  1.00  0.00     0.024 A 
HETATM   18  C   UNL     1       0.632   9.793 -27.160  1.00  0.00     0.034 A 
HETATM   19 CL   UNL     1       1.534  10.791 -26.088  1.00  0.00    -0.084 Cl
HETATM   20  C   UNL     1       1.244   8.700 -27.768  1.00  0.00     0.024 A 
HETATM   21  C   UNL     1       0.513   7.888 -28.641  1.00  0.00     0.015 A 
ENDBRANCH  13  15
ENDBRANCH   5   9
BRANCH   1  22
HETATM   22  C   UNL     1      -6.871   1.559 -33.672  1.00  0.00     0.032 A 
HETATM   23  C   UNL     1      -6.825   0.710 -32.562  1.00  0.00     0.020 A 
HETATM   24  C   UNL     1      -6.831  -0.673 -32.747  1.00  0.00     0.038 A 
HETATM   25  C   UNL     1      -6.931  -1.215 -34.031  1.00  0.00     0.068 A 
HETATM   26  C   UNL     1      -6.989  -0.367 -35.139  1.00  0.00     0.038 A 
HETATM   27  C   UNL     1      -6.968   1.020 -34.959  1.00  0.00     0.020 A 
BRANCH  25  28
HETATM   28  O   UNL     1      -6.951  -2.581 -34.078  1.00  0.00    -0.352 OA
BRANCH  28  29
HETATM   29  C   UNL     1      -5.898  -3.200 -34.817  1.00  0.00     0.171 C 
HETATM   30  C   UNL     1      -6.417  -4.525 -35.346  1.00  0.00     0.034 C 
ENDBRANCH  28  29
ENDBRANCH  25  28
ENDBRANCH   1  22
TORSDOF 5
ENDMDL
MODEL 7
REMARK VINA RESULT:      -8.0      5.041     11.018
REMARK  5 active torsions:
REMARK  status: ('A' for Active; 'I' for Inactive)
REMARK    1  A    between atoms: C_2  and  O_3 
REMARK    2  A    between atoms: O_3  and  C_4 
REMARK    3  A    between atoms: C_7  and  C_8 
REMARK       I    between atoms: C_8  and  N_9 
REMARK    4  A    between atoms: N_12  and  C_13 
REMARK    5  A    between atoms: C_17  and  C_18 
ROOT
HETATM    1  C   UNL     1      -5.395   1.252 -32.511  1.00  0.00     0.253 C 
HETATM    2  N   UNL     1      -4.816   2.514 -32.412  1.00  0.00    -0.345 N 
HETATM    3  C   UNL     1      -3.352   2.586 -32.364  1.00  0.00     0.146 C 
HETATM    4  C   UNL     1      -2.833   3.914 -32.938  1.00  0.00     0.144 C 
HETATM    5  N   UNL     1      -3.507   5.059 -32.295  1.00  0.00    -0.363 N 
HETATM    6  C   UNL     1      -4.977   5.008 -32.346  1.00  0.00     0.144 C 
HETATM    7  C   UNL     1      -5.488   3.665 -31.787  1.00  0.00     0.146 C 
HETATM    8  O   UNL     1      -4.746   0.209 -32.464  1.00  0.00    -0.267 OA
ENDROOT
BRANCH   5   9
HETATM    9  C   UNL     1      -2.798   6.065 -31.713  1.00  0.00     0.122 A 
HETATM   10  N   UNL     1      -2.582   7.285 -32.299  1.00  0.00    -0.262 N 
HETATM   11  H   UNL     1      -2.879   7.591 -33.217  1.00  0.00     0.191 HD
HETATM   12  N   UNL     1      -1.865   8.143 -31.558  1.00  0.00    -0.173 NA
HETATM   13  C   UNL     1      -1.589   7.463 -30.433  1.00  0.00     0.090 A 
HETATM   14  C   UNL     1      -2.142   6.153 -30.505  1.00  0.00     0.084 A 
BRANCH  13  15
HETATM   15  C   UNL     1      -0.820   8.062 -29.337  1.00  0.00    -0.005 A 
HETATM   16  C   UNL     1      -1.384   9.077 -28.546  1.00  0.00     0.015 A 
HETATM   17  C   UNL     1      -0.659   9.657 -27.500  1.00  0.00     0.024 A 
HETATM   18  C   UNL     1       0.637   9.223 -27.234  1.00  0.00     0.034 A 
HETATM   19 CL   UNL     1       1.531   9.932 -25.947  1.00  0.00    -0.084 Cl
HETATM   20  C   UNL     1       1.213   8.215 -28.003  1.00  0.00     0.024 A 
HETATM   21  C   UNL     1       0.487   7.638 -29.051  1.00  0.00     0.015 A 
ENDBRANCH  13  15
ENDBRANCH   5   9
BRANCH   1  22
HETATM   22  C   UNL     1      -6.853   1.150 -32.758  1.00  0.00     0.032 A 
HETATM   23  C   UNL     1      -7.385   1.398 -34.027  1.00  0.00     0.020 A 
HETATM   24  C   UNL     1      -8.753   1.237 -34.250  1.00  0.00     0.038 A 
HETATM   25  C   UNL     1      -9.588   0.785 -33.225  1.00  0.00     0.068 A 
HETATM   26  C   UNL     1      -9.056   0.525 -31.961  1.00  0.00     0.038 A 
HETATM   27  C   UNL     1      -7.687   0.699 -31.729  1.00  0.00     0.020 A 
BRANCH  25  28
HETATM   28  O   UNL     1     -10.902   0.646 -33.576  1.00  0.00    -0.352 OA
BRANCH  28  29
HETATM   29  C   UNL     1     -11.541   1.813 -34.092  1.00  0.00     0.171 C 
HETATM   30  C   UNL     1     -12.728   1.363 -34.926  1.00  0.00     0.034 C 
ENDBRANCH  28  29
ENDBRANCH  25  28
ENDBRANCH   1  22
TORSDOF 5
ENDMDL
MODEL 8
REMARK VINA RESULT:      -7.8      8.303     11.101
REMARK  5 active torsions:
REMARK  status: ('A' for Active; 'I' for Inactive)
REMARK    1  A    between atoms: C_2  and  O_3 
REMARK    2  A    between atoms: O_3  and  C_4 
REMARK    3  A    between atoms: C_7  and  C_8 
REMARK       I    between atoms: C_8  and  N_9 
REMARK    4  A    between atoms: N_12  and  C_13 
REMARK    5  A    between atoms: C_17  and  C_18 
ROOT
HETATM    1  C   UNL     1     -13.586   6.370 -34.526  1.00  0.00     0.253 C 
HETATM    2  N   UNL     1     -12.885   5.168 -34.510  1.00  0.00    -0.345 N 
HETATM    3  C   UNL     1     -13.214   4.205 -33.453  1.00  0.00     0.146 C 
HETATM    4  C   UNL     1     -12.944   2.760 -33.900  1.00  0.00     0.144 C 
HETATM    5  N   UNL     1     -11.571   2.623 -34.424  1.00  0.00    -0.363 N 
HETATM    6  C   UNL     1     -11.229   3.574 -35.494  1.00  0.00     0.144 C 
HETATM    7  C   UNL     1     -11.521   5.019 -35.044  1.00  0.00     0.146 C 
HETATM    8  O   UNL     1     -14.387   6.693 -33.651  1.00  0.00    -0.267 OA
ENDROOT
BRANCH   5   9
HETATM    9  C   UNL     1     -10.714   1.685 -33.935  1.00  0.00     0.122 A 
HETATM   10  N   UNL     1     -11.100   0.651 -33.120  1.00  0.00    -0.262 N 
HETATM   11  H   UNL     1     -12.025   0.462 -32.758  1.00  0.00     0.191 HD
HETATM   12  N   UNL     1     -10.105  -0.171 -32.752  1.00  0.00    -0.173 NA
HETATM   13  C   UNL     1      -9.014   0.339 -33.344  1.00  0.00     0.090 A 
HETATM   14  C   UNL     1      -9.355   1.511 -34.076  1.00  0.00     0.084 A 
BRANCH  13  15
HETATM   15  C   UNL     1      -7.695  -0.287 -33.201  1.00  0.00    -0.005 A 
HETATM   16  C   UNL     1      -6.911  -0.040 -32.061  1.00  0.00     0.015 A 
HETATM   17  C   UNL     1      -5.651  -0.629 -31.916  1.00  0.00     0.024 A 
HETATM   18  C   UNL     1      -5.165  -1.475 -32.909  1.00  0.00     0.034 A 
HETATM   19 CL   UNL     1      -3.617  -2.203 -32.733  1.00  0.00    -0.084 Cl
HETATM   20  C   UNL     1      -5.928  -1.737 -34.044  1.00  0.00     0.024 A 
HETATM   21  C   UNL     1      -7.187  -1.145 -34.189  1.00  0.00     0.015 A 
ENDBRANCH  13  15
ENDBRANCH   5   9
BRANCH   1  22
HETATM   22  C   UNL     1     -13.423   7.280 -35.685  1.00  0.00     0.032 A 
HETATM   23  C   UNL     1     -14.019   6.987 -36.916  1.00  0.00     0.020 A 
HETATM   24  C   UNL     1     -13.901   7.888 -37.975  1.00  0.00     0.038 A 
HETATM   25  C   UNL     1     -13.231   9.101 -37.801  1.00  0.00     0.068 A 
HETATM   26  C   UNL     1     -12.645   9.399 -36.569  1.00  0.00     0.038 A 
HETATM   27  C   UNL     1     -12.749   8.492 -35.508  1.00  0.00     0.020 A 
BRANCH  25  28
HETATM   28  O   UNL     1     -13.204   9.906 -38.906  1.00  0.00    -0.352 OA
BRANCH  28  29
HETATM   29  C   UNL     1     -12.141   9.670 -39.829  1.00  0.00     0.171 C 
HETATM   30  C   UNL     1     -11.160  10.823 -39.712  1.00  0.00     0.034 C 
ENDBRANCH  28  29
ENDBRANCH  25  28
ENDBRANCH   1  22
TORSDOF 5
ENDMDL
MODEL 9
REMARK VINA RESULT:      -7.7      8.129     11.170
REMARK  5 active torsions:
REMARK  status: ('A' for Active; 'I' for Inactive)
REMARK    1  A    between atoms: C_2  and  O_3 
REMARK    2  A    between atoms: O_3  and  C_4 
REMARK    3  A    between atoms: C_7  and  C_8 
REMARK       I    between atoms: C_8  and  N_9 
REMARK    4  A    between atoms: N_12  and  C_13 
REMARK    5  A    between atoms: C_17  and  C_18 
ROOT
HETATM    1  C   UNL     1      -9.212   0.342 -32.949  1.00  0.00     0.253 C 
HETATM    2  N   UNL     1      -9.356   1.700 -33.217  1.00  0.00    -0.345 N 
HETATM    3  C   UNL     1     -10.681   2.295 -33.012  1.00  0.00     0.146 C 
HETATM    4  C   UNL     1     -10.582   3.788 -32.661  1.00  0.00     0.144 C 
HETATM    5  N   UNL     1      -9.756   4.504 -33.652  1.00  0.00    -0.363 N 
HETATM    6  C   UNL     1      -8.417   3.927 -33.859  1.00  0.00     0.144 C 
HETATM    7  C   UNL     1      -8.524   2.425 -34.192  1.00  0.00     0.146 C 
HETATM    8  O   UNL     1     -10.154  -0.387 -32.646  1.00  0.00    -0.267 OA
ENDROOT
BRANCH   5   9
HETATM    9  C   UNL     1     -10.221   5.605 -34.303  1.00  0.00     0.122 A 
HETATM   10  N   UNL     1      -9.824   6.885 -34.016  1.00  0.00    -0.262 N 
HETATM   11  H   UNL     1      -9.180   7.186 -33.296  1.00  0.00     0.191 HD
HETATM   12  N   UNL     1     -10.395   7.832 -34.777  1.00  0.00    -0.173 NA
HETATM   13  C   UNL     1     -11.209   7.152 -35.601  1.00  0.00     0.090 A 
HETATM   14  C   UNL     1     -11.139   5.759 -35.318  1.00  0.00     0.084 A 
BRANCH  13  15
HETATM   15  C   UNL     1     -12.020   7.830 -36.617  1.00  0.00    -0.005 A 
HETATM   16  C   UNL     1     -11.451   8.821 -37.435  1.00  0.00     0.015 A 
HETATM   17  C   UNL     1     -12.216   9.475 -38.406  1.00  0.00     0.024 A 
HETATM   18  C   UNL     1     -13.558   9.140 -38.570  1.00  0.00     0.034 A 
HETATM   19 CL   UNL     1     -14.501   9.941 -39.764  1.00  0.00    -0.084 Cl
HETATM   20  C   UNL     1     -14.139   8.158 -37.773  1.00  0.00     0.024 A 
HETATM   21  C   UNL     1     -13.373   7.506 -36.801  1.00  0.00     0.015 A 
ENDBRANCH  13  15
ENDBRANCH   5   9
BRANCH   1  22
HETATM   22  C   UNL     1      -7.853  -0.250 -32.955  1.00  0.00     0.032 A 
HETATM   23  C   UNL     1      -7.423  -1.049 -34.019  1.00  0.00     0.020 A 
HETATM   24  C   UNL     1      -6.119  -1.546 -34.031  1.00  0.00     0.038 A 
HETATM   25  C   UNL     1      -5.225  -1.210 -33.011  1.00  0.00     0.068 A 
HETATM   26  C   UNL     1      -5.650  -0.402 -31.954  1.00  0.00     0.038 A 
HETATM   27  C   UNL     1      -6.961   0.086 -31.931  1.00  0.00     0.020 A 
BRANCH  25  28
HETATM   28  O   UNL     1      -3.972  -1.740 -33.149  1.00  0.00    -0.352 OA
BRANCH  28  29
HETATM   29  C   UNL     1      -3.244  -1.953 -31.939  1.00  0.00     0.171 C 
HETATM   30  C   UNL     1      -2.939  -3.437 -31.836  1.00  0.00     0.034 C 
ENDBRANCH  28  29
ENDBRANCH  25  28
ENDBRANCH   1  22
TORSDOF 5
ENDMDL
MODEL 10
REMARK VINA RESULT:      -7.6      7.864     11.283
REMARK  5 active torsions:
REMARK  status: ('A' for Active; 'I' for Inactive)
REMARK    1  A    between atoms: C_2  and  O_3 
REMARK    2  A    between atoms: O_3  and  C_4 
REMARK    3  A    between atoms: C_7  and  C_8 
REMARK       I    between atoms: C_8  and  N_9 
REMARK    4  A    between atoms: N_12  and  C_13 
REMARK    5  A    between atoms: C_17  and  C_18 
ROOT
HETATM    1  C   UNL     1      -9.997   0.669 -33.090  1.00  0.00     0.253 C 
HETATM    2  N   UNL     1     -10.150   2.028 -33.347  1.00  0.00    -0.345 N 
HETATM    3  C   UNL     1     -11.517   2.546 -33.466  1.00  0.00     0.146 C 
HETATM    4  C   UNL     1     -11.599   4.026 -33.059  1.00  0.00     0.144 C 
HETATM    5  N   UNL     1     -10.594   4.825 -33.788  1.00  0.00    -0.363 N 
HETATM    6  C   UNL     1      -9.215   4.325 -33.668  1.00  0.00     0.144 C 
HETATM    7  C   UNL     1      -9.146   2.835 -34.059  1.00  0.00     0.146 C 
HETATM    8  O   UNL     1     -10.940  -0.119 -33.055  1.00  0.00    -0.267 OA
ENDROOT
BRANCH   5   9
HETATM    9  C   UNL     1     -10.947   5.927 -34.504  1.00  0.00     0.122 A 
HETATM   10  N   UNL     1     -12.001   6.742 -34.180  1.00  0.00    -0.262 N 
HETATM   11  H   UNL     1     -12.655   6.632 -33.417  1.00  0.00     0.191 HD
HETATM   12  N   UNL     1     -12.178   7.783 -35.009  1.00  0.00    -0.173 NA
HETATM   13  C   UNL     1     -11.204   7.651 -35.923  1.00  0.00     0.090 A 
HETATM   14  C   UNL     1     -10.427   6.491 -35.649  1.00  0.00     0.084 A 
BRANCH  13  15
HETATM   15  C   UNL     1     -11.039   8.613 -37.018  1.00  0.00    -0.005 A 
HETATM   16  C   UNL     1     -12.050   8.776 -37.980  1.00  0.00     0.015 A 
HETATM   17  C   UNL     1     -11.902   9.689 -39.029  1.00  0.00     0.024 A 
HETATM   18  C   UNL     1     -10.740  10.451 -39.123  1.00  0.00     0.034 A 
HETATM   19 CL   UNL     1     -10.555  11.575 -40.411  1.00  0.00    -0.084 Cl
HETATM   20  C   UNL     1      -9.728  10.308 -38.178  1.00  0.00     0.024 A 
HETATM   21  C   UNL     1      -9.877   9.393 -37.130  1.00  0.00     0.015 A 
ENDBRANCH  13  15
ENDBRANCH   5   9
BRANCH   1  22
HETATM   22  C   UNL     1      -8.647   0.147 -32.770  1.00  0.00     0.032 A 
HETATM   23  C   UNL     1      -7.912  -0.570 -33.718  1.00  0.00     0.020 A 
HETATM   24  C   UNL     1      -6.619  -0.999 -33.414  1.00  0.00     0.038 A 
HETATM   25  C   UNL     1      -6.037  -0.676 -32.186  1.00  0.00     0.068 A 
HETATM   26  C   UNL     1      -6.767   0.051 -31.243  1.00  0.00     0.038 A 
HETATM   27  C   UNL     1      -8.069   0.471 -31.538  1.00  0.00     0.020 A 
BRANCH  25  28
HETATM   28  O   UNL     1      -4.760  -1.133 -32.018  1.00  0.00    -0.352 OA
BRANCH  28  29
HETATM   29  C   UNL     1      -3.745  -0.440 -32.743  1.00  0.00     0.171 C 
HETATM   30  C   UNL     1      -3.434   0.844 -31.995  1.00  0.00     0.034 C 
ENDBRANCH  28  29
ENDBRANCH  25  28
ENDBRANCH   1  22
TORSDOF 5
ENDMDL
