MODEL 1
REMARK VINA RESULT:      -8.8      0.000      0.000
REMARK  6 active torsions:
REMARK  status: ('A' for Active; 'I' for Inactive)
REMARK    1  A    between atoms: C_2  and  O_3 
REMARK    2  A    between atoms: C_2  and  C_4 
REMARK    3  A    between atoms: C_2  and  C_11 
REMARK    4  A    between atoms: C_11  and  N_12 
REMARK       I    between atoms: N_12  and  C_13 
REMARK    5  A    between atoms: C_13  and  C_14 
REMARK    6  A    between atoms: C_15  and  C_16 
ROOT
HETATM    1  N   UNL     1      -5.078   1.441 -32.393  1.00  0.00    -0.354 N 
HETATM    2  C   UNL     1      -4.138   1.947 -31.520  1.00  0.00     0.255 C 
HETATM    3  O   UNL     1      -3.092   1.362 -31.266  1.00  0.00    -0.268 OA
HETATM    4  H   UNL     1      -5.794   2.064 -32.741  1.00  0.00     0.162 HD
ENDROOT
BRANCH   2   5
HETATM    5  C   UNL     1      -4.492   3.230 -30.931  1.00  0.00     0.080 A 
HETATM    6  C   UNL     1      -4.054   4.539 -31.308  1.00  0.00     0.107 A 
HETATM    7  N   UNL     1      -4.535   5.472 -30.464  1.00  0.00    -0.173 NA
HETATM    8  N   UNL     1      -5.291   4.786 -29.600  1.00  0.00    -0.288 N 
HETATM    9  H   UNL     1      -5.763   5.303 -28.866  1.00  0.00     0.188 HD
HETATM   10  C   UNL     1      -5.304   3.446 -29.830  1.00  0.00     0.128 A 
BRANCH   6  11
HETATM   11  C   UNL     1      -3.208   4.939 -32.427  1.00  0.00     0.034 A 
HETATM   12  C   UNL     1      -1.822   5.047 -32.285  1.00  0.00     0.129 A 
HETATM   13  F   UNL     1      -1.228   4.761 -31.116  1.00  0.00    -0.205 F 
HETATM   14  C   UNL     1      -1.016   5.420 -33.359  1.00  0.00     0.043 A 
HETATM   15  C   UNL     1      -1.591   5.680 -34.602  1.00  0.00     0.003 A 
HETATM   16  C   UNL     1      -2.971   5.561 -34.766  1.00  0.00     0.001 A 
HETATM   17  C   UNL     1      -3.776   5.189 -33.685  1.00  0.00     0.017 A 
ENDBRANCH   6  11
ENDBRANCH   2   5
BRANCH   1  18
HETATM   18  C   UNL     1      -4.843   0.236 -33.175  1.00  0.00     0.165 C 
BRANCH  18  19
HETATM   19  C   UNL     1      -6.151  -0.414 -33.705  1.00  0.00     0.097 C 
HETATM   20  C   UNL     1      -6.754   0.367 -34.882  1.00  0.00     0.053 C 
BRANCH  19  21
HETATM   21  O   UNL     1      -7.114  -0.362 -32.631  1.00  0.00    -0.384 OA
HETATM   22  H   UNL     1      -7.104   0.551 -32.295  1.00  0.00     0.211 HD
ENDBRANCH  19  21
BRANCH  19  23
HETATM   23  C   UNL     1      -5.880  -1.873 -34.085  1.00  0.00    -0.023 A 
HETATM   24  C   UNL     1      -4.591  -2.423 -33.943  1.00  0.00     0.013 A 
HETATM   25  C   UNL     1      -4.335  -3.754 -34.282  1.00  0.00     0.043 A 
HETATM   26  C   UNL     1      -5.366  -4.551 -34.761  1.00  0.00     0.116 A 
HETATM   27  F   UNL     1      -5.120  -5.826 -35.088  1.00  0.00    -0.206 F 
HETATM   28  C   UNL     1      -6.650  -4.042 -34.901  1.00  0.00     0.043 A 
HETATM   29  C   UNL     1      -6.908  -2.713 -34.558  1.00  0.00     0.013 A 
ENDBRANCH  19  23
ENDBRANCH  18  19
ENDBRANCH   1  18
TORSDOF 6
ENDMDL
MODEL 2
REMARK VINA RESULT:      -8.7      1.890      2.361
REMARK  6 active torsions:
REMARK  status: ('A' for Active; 'I' for Inactive)
REMARK    1  A    between atoms: C_2  and  O_3 
REMARK    2  A    between atoms: C_2  and  C_4 
REMARK    3  A    between atoms: C_2  and  C_11 
REMARK    4  A    between atoms: C_11  and  N_12 
REMARK       I    between atoms: N_12  and  C_13 
REMARK    5  A    between atoms: C_13  and  C_14 
REMARK    6  A    between atoms: C_15  and  C_16 
ROOT
HETATM    1  N   UNL     1      -6.036   1.940 -33.541  1.00  0.00    -0.354 N 
HETATM    2  C   UNL     1      -5.730   2.810 -32.517  1.00  0.00     0.255 C 
HETATM    3  O   UNL     1      -5.202   2.441 -31.474  1.00  0.00    -0.268 OA
HETATM    4  H   UNL     1      -6.245   2.326 -34.453  1.00  0.00     0.162 HD
ENDROOT
BRANCH   2   5
HETATM    5  C   UNL     1      -6.084   4.197 -32.779  1.00  0.00     0.080 A 
HETATM    6  C   UNL     1      -5.224   5.293 -33.111  1.00  0.00     0.107 A 
HETATM    7  N   UNL     1      -5.918   6.444 -33.192  1.00  0.00    -0.173 NA
HETATM    8  N   UNL     1      -7.186   6.090 -32.961  1.00  0.00    -0.288 N 
HETATM    9  H   UNL     1      -7.895   6.817 -32.980  1.00  0.00     0.188 HD
HETATM   10  C   UNL     1      -7.345   4.764 -32.709  1.00  0.00     0.128 A 
BRANCH   6  11
HETATM   11  C   UNL     1      -3.786   5.293 -33.355  1.00  0.00     0.034 A 
HETATM   12  C   UNL     1      -3.271   5.228 -34.653  1.00  0.00     0.129 A 
HETATM   13  F   UNL     1      -4.092   5.189 -35.715  1.00  0.00    -0.205 F 
HETATM   14  C   UNL     1      -1.897   5.238 -34.883  1.00  0.00     0.043 A 
HETATM   15  C   UNL     1      -1.014   5.324 -33.808  1.00  0.00     0.003 A 
HETATM   16  C   UNL     1      -1.510   5.407 -32.508  1.00  0.00     0.001 A 
HETATM   17  C   UNL     1      -2.889   5.395 -32.281  1.00  0.00     0.017 A 
ENDBRANCH   6  11
ENDBRANCH   2   5
BRANCH   1  18
HETATM   18  C   UNL     1      -5.640   0.539 -33.516  1.00  0.00     0.165 C 
BRANCH  18  19
HETATM   19  C   UNL     1      -6.737  -0.416 -34.062  1.00  0.00     0.097 C 
HETATM   20  C   UNL     1      -7.352   0.094 -35.375  1.00  0.00     0.053 C 
BRANCH  19  21
HETATM   21  O   UNL     1      -7.800  -0.442 -33.085  1.00  0.00    -0.384 OA
HETATM   22  H   UNL     1      -8.435   0.247 -33.350  1.00  0.00     0.211 HD
ENDBRANCH  19  21
BRANCH  19  23
HETATM   23  C   UNL     1      -6.155  -1.822 -34.229  1.00  0.00    -0.023 A 
HETATM   24  C   UNL     1      -6.969  -2.887 -34.665  1.00  0.00     0.013 A 
HETATM   25  C   UNL     1      -6.446  -4.173 -34.825  1.00  0.00     0.043 A 
HETATM   26  C   UNL     1      -5.104  -4.407 -34.558  1.00  0.00     0.116 A 
HETATM   27  F   UNL     1      -4.604  -5.639 -34.710  1.00  0.00    -0.206 F 
HETATM   28  C   UNL     1      -4.274  -3.376 -34.140  1.00  0.00     0.043 A 
HETATM   29  C   UNL     1      -4.794  -2.089 -33.983  1.00  0.00     0.013 A 
ENDBRANCH  19  23
ENDBRANCH  18  19
ENDBRANCH   1  18
TORSDOF 6
ENDMDL
MODEL 3
REMARK VINA RESULT:      -8.7      2.570      3.620
REMARK  6 active torsions:
REMARK  status: ('A' for Active; 'I' for Inactive)
REMARK    1  A    between atoms: C_2  and  O_3 
REMARK    2  A    between atoms: C_2  and  C_4 
REMARK    3  A    between atoms: C_2  and  C_11 
REMARK    4  A    between atoms: C_11  and  N_12 
REMARK       I    between atoms: N_12  and  C_13 
REMARK    5  A    between atoms: C_13  and  C_14 
REMARK    6  A    between atoms: C_15  and  C_16 
ROOT
HETATM    1  N   UNL     1      -3.884   3.385 -32.795  1.00  0.00    -0.354 N 
HETATM    2  C   UNL     1      -2.672   3.865 -32.347  1.00  0.00     0.255 C 
HETATM    3  O   UNL     1      -2.168   3.499 -31.292  1.00  0.00    -0.268 OA
HETATM    4  H   UNL     1      -4.132   3.536 -33.764  1.00  0.00     0.162 HD
ENDROOT
BRANCH   2   5
HETATM    5  C   UNL     1      -2.044   4.836 -33.231  1.00  0.00     0.080 A 
HETATM    6  C   UNL     1      -1.343   6.037 -32.889  1.00  0.00     0.107 A 
HETATM    7  N   UNL     1      -0.982   6.717 -33.993  1.00  0.00    -0.173 NA
HETATM    8  N   UNL     1      -1.400   5.956 -35.009  1.00  0.00    -0.288 N 
HETATM    9  H   UNL     1      -1.224   6.282 -35.954  1.00  0.00     0.188 HD
HETATM   10  C   UNL     1      -2.039   4.822 -34.615  1.00  0.00     0.128 A 
BRANCH   6  11
HETATM   11  C   UNL     1      -1.003   6.559 -31.570  1.00  0.00     0.034 A 
HETATM   12  C   UNL     1       0.062   6.032 -30.834  1.00  0.00     0.129 A 
HETATM   13  F   UNL     1       0.819   5.043 -31.336  1.00  0.00    -0.205 F 
HETATM   14  C   UNL     1       0.390   6.540 -29.579  1.00  0.00     0.043 A 
HETATM   15  C   UNL     1      -0.343   7.599 -29.045  1.00  0.00     0.003 A 
HETATM   16  C   UNL     1      -1.399   8.148 -29.772  1.00  0.00     0.001 A 
HETATM   17  C   UNL     1      -1.726   7.634 -31.031  1.00  0.00     0.017 A 
ENDBRANCH   6  11
ENDBRANCH   2   5
BRANCH   1  18
HETATM   18  C   UNL     1      -4.597   2.315 -32.113  1.00  0.00     0.165 C 
BRANCH  18  19
HETATM   19  C   UNL     1      -5.880   1.861 -32.862  1.00  0.00     0.097 C 
HETATM   20  C   UNL     1      -6.273   2.833 -33.985  1.00  0.00     0.053 C 
BRANCH  19  21
HETATM   21  O   UNL     1      -6.957   1.873 -31.901  1.00  0.00    -0.384 OA
HETATM   22  H   UNL     1      -7.081   0.951 -31.614  1.00  0.00     0.211 HD
ENDBRANCH  19  21
BRANCH  19  23
HETATM   23  C   UNL     1      -5.684   0.440 -33.399  1.00  0.00    -0.023 A 
HETATM   24  C   UNL     1      -4.537  -0.304 -33.056  1.00  0.00     0.013 A 
HETATM   25  C   UNL     1      -4.352  -1.603 -33.537  1.00  0.00     0.043 A 
HETATM   26  C   UNL     1      -5.313  -2.173 -34.361  1.00  0.00     0.116 A 
HETATM   27  F   UNL     1      -5.134  -3.417 -34.824  1.00  0.00    -0.206 F 
HETATM   28  C   UNL     1      -6.459  -1.471 -34.707  1.00  0.00     0.043 A 
HETATM   29  C   UNL     1      -6.648  -0.174 -34.223  1.00  0.00     0.013 A 
ENDBRANCH  19  23
ENDBRANCH  18  19
ENDBRANCH   1  18
TORSDOF 6
ENDMDL
MODEL 4
REMARK VINA RESULT:      -8.6      2.510      7.857
REMARK  6 active torsions:
REMARK  status: ('A' for Active; 'I' for Inactive)
REMARK    1  A    between atoms: C_2  and  O_3 
REMARK    2  A    between atoms: C_2  and  C_4 
REMARK    3  A    between atoms: C_2  and  C_11 
REMARK    4  A    between atoms: C_11  and  N_12 
REMARK       I    between atoms: N_12  and  C_13 
REMARK    5  A    between atoms: C_13  and  C_14 
REMARK    6  A    between atoms: C_15  and  C_16 
ROOT
HETATM    1  N   UNL     1      -4.078   3.534 -32.756  1.00  0.00    -0.354 N 
HETATM    2  C   UNL     1      -3.767   2.809 -31.626  1.00  0.00     0.255 C 
HETATM    3  O   UNL     1      -2.614   2.645 -31.244  1.00  0.00    -0.268 OA
HETATM    4  H   UNL     1      -5.035   3.833 -32.888  1.00  0.00     0.162 HD
ENDROOT
BRANCH   2   5
HETATM    5  C   UNL     1      -4.920   2.260 -30.927  1.00  0.00     0.080 A 
HETATM    6  C   UNL     1      -5.604   1.024 -31.160  1.00  0.00     0.107 A 
HETATM    7  N   UNL     1      -6.681   0.909 -30.361  1.00  0.00    -0.173 NA
HETATM    8  N   UNL     1      -6.664   2.016 -29.612  1.00  0.00    -0.288 N 
HETATM    9  H   UNL     1      -7.399   2.137 -28.923  1.00  0.00     0.188 HD
HETATM   10  C   UNL     1      -5.637   2.858 -29.904  1.00  0.00     0.128 A 
BRANCH   6  11
HETATM   11  C   UNL     1      -5.278  -0.044 -32.098  1.00  0.00     0.034 A 
HETATM   12  C   UNL     1      -4.139  -0.837 -31.927  1.00  0.00     0.129 A 
HETATM   13  F   UNL     1      -3.325  -0.650 -30.876  1.00  0.00    -0.205 F 
HETATM   14  C   UNL     1      -3.836  -1.864 -32.819  1.00  0.00     0.043 A 
HETATM   15  C   UNL     1      -4.683  -2.118 -33.897  1.00  0.00     0.003 A 
HETATM   16  C   UNL     1      -5.832  -1.349 -34.074  1.00  0.00     0.001 A 
HETATM   17  C   UNL     1      -6.131  -0.319 -33.177  1.00  0.00     0.017 A 
ENDBRANCH   6  11
ENDBRANCH   2   5
BRANCH   1  18
HETATM   18  C   UNL     1      -3.071   4.265 -33.512  1.00  0.00     0.165 C 
BRANCH  18  19
HETATM   19  C   UNL     1      -3.150   5.803 -33.307  1.00  0.00     0.097 C 
HETATM   20  C   UNL     1      -4.541   6.256 -32.836  1.00  0.00     0.053 C 
BRANCH  19  21
HETATM   21  O   UNL     1      -2.926   6.415 -34.595  1.00  0.00    -0.384 OA
HETATM   22  H   UNL     1      -2.060   6.856 -34.543  1.00  0.00     0.211 HD
ENDBRANCH  19  21
BRANCH  19  23
HETATM   23  C   UNL     1      -2.059   6.247 -32.327  1.00  0.00    -0.023 A 
HETATM   24  C   UNL     1      -2.251   7.374 -31.504  1.00  0.00     0.013 A 
HETATM   25  C   UNL     1      -1.264   7.784 -30.604  1.00  0.00     0.043 A 
HETATM   26  C   UNL     1      -0.078   7.068 -30.513  1.00  0.00     0.116 A 
HETATM   27  F   UNL     1       0.869   7.462 -29.652  1.00  0.00    -0.206 F 
HETATM   28  C   UNL     1       0.136   5.946 -31.301  1.00  0.00     0.043 A 
HETATM   29  C   UNL     1      -0.851   5.533 -32.199  1.00  0.00     0.013 A 
ENDBRANCH  19  23
ENDBRANCH  18  19
ENDBRANCH   1  18
TORSDOF 6
ENDMDL
MODEL 5
REMARK VINA RESULT:      -8.5      2.646      3.870
REMARK  6 active torsions:
REMARK  status: ('A' for Active; 'I' for Inactive)
REMARK    1  A    between atoms: C_2  and  O_3 
REMARK    2  A    between atoms: C_2  and  C_4 
REMARK    3  A    between atoms: C_2  and  C_11 
REMARK    4  A    between atoms: C_11  and  N_12 
REMARK       I    between atoms: N_12  and  C_13 
REMARK    5  A    between atoms: C_13  and  C_14 
REMARK    6  A    between atoms: C_15  and  C_16 
ROOT
HETATM    1  N   UNL     1      -3.736   3.487 -32.824  1.00  0.00    -0.354 N 
HETATM    2  C   UNL     1      -2.617   4.154 -32.373  1.00  0.00     0.255 C 
HETATM    3  O   UNL     1      -1.951   3.757 -31.423  1.00  0.00    -0.268 OA
HETATM    4  H   UNL     1      -4.099   3.722 -33.738  1.00  0.00     0.162 HD
ENDROOT
BRANCH   2   5
HETATM    5  C   UNL     1      -2.294   5.362 -33.118  1.00  0.00     0.080 A 
HETATM    6  C   UNL     1      -1.708   6.578 -32.642  1.00  0.00     0.107 A 
HETATM    7  N   UNL     1      -1.646   7.500 -33.620  1.00  0.00    -0.173 NA
HETATM    8  N   UNL     1      -2.138   6.882 -34.698  1.00  0.00    -0.288 N 
HETATM    9  H   UNL     1      -2.180   7.401 -35.568  1.00  0.00     0.188 HD
HETATM   10  C   UNL     1      -2.539   5.605 -34.459  1.00  0.00     0.128 A 
BRANCH   6  11
HETATM   11  C   UNL     1      -1.205   6.896 -31.310  1.00  0.00     0.034 A 
HETATM   12  C   UNL     1      -2.074   7.248 -30.272  1.00  0.00     0.129 A 
HETATM   13  F   UNL     1      -3.401   7.279 -30.470  1.00  0.00    -0.205 F 
HETATM   14  C   UNL     1      -1.591   7.542 -28.998  1.00  0.00     0.043 A 
HETATM   15  C   UNL     1      -0.222   7.476 -28.742  1.00  0.00     0.003 A 
HETATM   16  C   UNL     1       0.657   7.110 -29.761  1.00  0.00     0.001 A 
HETATM   17  C   UNL     1       0.169   6.818 -31.038  1.00  0.00     0.017 A 
ENDBRANCH   6  11
ENDBRANCH   2   5
BRANCH   1  18
HETATM   18  C   UNL     1      -4.139   2.195 -32.289  1.00  0.00     0.165 C 
BRANCH  18  19
HETATM   19  C   UNL     1      -5.572   1.775 -32.719  1.00  0.00     0.097 C 
HETATM   20  C   UNL     1      -6.211   2.789 -33.680  1.00  0.00     0.053 C 
BRANCH  19  21
HETATM   21  O   UNL     1      -6.385   1.758 -31.527  1.00  0.00    -0.384 OA
HETATM   22  H   UNL     1      -5.778   1.888 -30.777  1.00  0.00     0.211 HD
ENDBRANCH  19  21
BRANCH  19  23
HETATM   23  C   UNL     1      -5.532   0.373 -33.336  1.00  0.00    -0.023 A 
HETATM   24  C   UNL     1      -6.590  -0.083 -34.146  1.00  0.00     0.013 A 
HETATM   25  C   UNL     1      -6.560  -1.358 -34.718  1.00  0.00     0.043 A 
HETATM   26  C   UNL     1      -5.471  -2.187 -34.490  1.00  0.00     0.116 A 
HETATM   27  F   UNL     1      -5.443  -3.410 -35.035  1.00  0.00    -0.206 F 
HETATM   28  C   UNL     1      -4.407  -1.762 -33.707  1.00  0.00     0.043 A 
HETATM   29  C   UNL     1      -4.433  -0.486 -33.138  1.00  0.00     0.013 A 
ENDBRANCH  19  23
ENDBRANCH  18  19
ENDBRANCH   1  18
TORSDOF 6
ENDMDL
MODEL 6
REMARK VINA RESULT:      -8.4      4.543      6.126
REMARK  6 active torsions:
REMARK  status: ('A' for Active; 'I' for Inactive)
REMARK    1  A    between atoms: C_2  and  O_3 
REMARK    2  A    between atoms: C_2  and  C_4 
REMARK    3  A    between atoms: C_2  and  C_11 
REMARK    4  A    between atoms: C_11  and  N_12 
REMARK       I    between atoms: N_12  and  C_13 
REMARK    5  A    between atoms: C_13  and  C_14 
REMARK    6  A    between atoms: C_15  and  C_16 
ROOT
HETATM    1  N   UNL     1      -7.830   1.330 -32.167  1.00  0.00    -0.354 N 
HETATM    2  C   UNL     1      -8.288   2.585 -32.506  1.00  0.00     0.255 C 
HETATM    3  O   UNL     1      -7.763   3.265 -33.380  1.00  0.00    -0.268 OA
HETATM    4  H   UNL     1      -8.433   0.730 -31.620  1.00  0.00     0.162 HD
ENDROOT
BRANCH   2   5
HETATM    5  C   UNL     1      -9.446   3.030 -31.744  1.00  0.00     0.080 A 
HETATM    6  C   UNL     1     -10.773   3.300 -32.207  1.00  0.00     0.107 A 
HETATM    7  N   UNL     1     -11.545   3.778 -31.213  1.00  0.00    -0.173 NA
HETATM    8  N   UNL     1     -10.749   3.775 -30.138  1.00  0.00    -0.288 N 
HETATM    9  H   UNL     1     -11.136   4.098 -29.258  1.00  0.00     0.188 HD
HETATM   10  C   UNL     1      -9.487   3.338 -30.395  1.00  0.00     0.128 A 
BRANCH   6  11
HETATM   11  C   UNL     1     -11.335   3.122 -33.541  1.00  0.00     0.034 A 
HETATM   12  C   UNL     1     -11.634   1.850 -34.039  1.00  0.00     0.129 A 
HETATM   13  F   UNL     1     -11.431   0.755 -33.288  1.00  0.00    -0.205 F 
HETATM   14  C   UNL     1     -12.180   1.684 -35.310  1.00  0.00     0.043 A 
HETATM   15  C   UNL     1     -12.447   2.800 -36.102  1.00  0.00     0.003 A 
HETATM   16  C   UNL     1     -12.172   4.078 -35.615  1.00  0.00     0.001 A 
HETATM   17  C   UNL     1     -11.622   4.239 -34.340  1.00  0.00     0.017 A 
ENDBRANCH   6  11
ENDBRANCH   2   5
BRANCH   1  18
HETATM   18  C   UNL     1      -6.766   0.665 -32.906  1.00  0.00     0.165 C 
BRANCH  18  19
HETATM   19  C   UNL     1      -7.295  -0.333 -33.973  1.00  0.00     0.097 C 
HETATM   20  C   UNL     1      -7.521   0.339 -35.336  1.00  0.00     0.053 C 
BRANCH  19  21
HETATM   21  O   UNL     1      -8.583  -0.798 -33.517  1.00  0.00    -0.384 OA
HETATM   22  H   UNL     1      -8.446  -1.160 -32.624  1.00  0.00     0.211 HD
ENDBRANCH  19  21
BRANCH  19  23
HETATM   23  C   UNL     1      -6.330  -1.517 -34.089  1.00  0.00    -0.023 A 
HETATM   24  C   UNL     1      -5.019  -1.426 -33.581  1.00  0.00     0.013 A 
HETATM   25  C   UNL     1      -4.134  -2.502 -33.677  1.00  0.00     0.043 A 
HETATM   26  C   UNL     1      -4.551  -3.683 -34.277  1.00  0.00     0.116 A 
HETATM   27  F   UNL     1      -3.701  -4.713 -34.371  1.00  0.00    -0.206 F 
HETATM   28  C   UNL     1      -5.840  -3.809 -34.775  1.00  0.00     0.043 A 
HETATM   29  C   UNL     1      -6.728  -2.735 -34.676  1.00  0.00     0.013 A 
ENDBRANCH  19  23
ENDBRANCH  18  19
ENDBRANCH   1  18
TORSDOF 6
ENDMDL
MODEL 7
REMARK VINA RESULT:      -8.4      2.713      4.640
REMARK  6 active torsions:
REMARK  status: ('A' for Active; 'I' for Inactive)
REMARK    1  A    between atoms: C_2  and  O_3 
REMARK    2  A    between atoms: C_2  and  C_4 
REMARK    3  A    between atoms: C_2  and  C_11 
REMARK    4  A    between atoms: C_11  and  N_12 
REMARK       I    between atoms: N_12  and  C_13 
REMARK    5  A    between atoms: C_13  and  C_14 
REMARK    6  A    between atoms: C_15  and  C_16 
ROOT
HETATM    1  N   UNL     1      -5.256   0.931 -32.381  1.00  0.00    -0.354 N 
HETATM    2  C   UNL     1      -4.995   2.176 -31.850  1.00  0.00     0.255 C 
HETATM    3  O   UNL     1      -4.480   2.328 -30.749  1.00  0.00    -0.268 OA
HETATM    4  H   UNL     1      -5.455   0.862 -33.370  1.00  0.00     0.162 HD
ENDROOT
BRANCH   2   5
HETATM    5  C   UNL     1      -5.380   3.288 -32.706  1.00  0.00     0.080 A 
HETATM    6  C   UNL     1      -6.582   3.461 -33.465  1.00  0.00     0.107 A 
HETATM    7  N   UNL     1      -6.530   4.585 -34.203  1.00  0.00    -0.173 NA
HETATM    8  N   UNL     1      -5.352   5.137 -33.895  1.00  0.00    -0.288 N 
HETATM    9  H   UNL     1      -5.104   6.013 -34.342  1.00  0.00     0.188 HD
HETATM   10  C   UNL     1      -4.624   4.409 -33.007  1.00  0.00     0.128 A 
BRANCH   6  11
HETATM   11  C   UNL     1      -7.766   2.612 -33.516  1.00  0.00     0.034 A 
HETATM   12  C   UNL     1      -7.851   1.537 -34.406  1.00  0.00     0.129 A 
HETATM   13  F   UNL     1      -6.829   1.243 -35.225  1.00  0.00    -0.205 F 
HETATM   14  C   UNL     1      -8.981   0.722 -34.444  1.00  0.00     0.043 A 
HETATM   15  C   UNL     1     -10.044   0.968 -33.577  1.00  0.00     0.003 A 
HETATM   16  C   UNL     1      -9.970   2.025 -32.671  1.00  0.00     0.001 A 
HETATM   17  C   UNL     1      -8.836   2.841 -32.637  1.00  0.00     0.017 A 
ENDBRANCH   6  11
ENDBRANCH   2   5
BRANCH   1  18
HETATM   18  C   UNL     1      -4.824  -0.298 -31.731  1.00  0.00     0.165 C 
BRANCH  18  19
HETATM   19  C   UNL     1      -3.889  -1.165 -32.619  1.00  0.00     0.097 C 
HETATM   20  C   UNL     1      -2.839  -1.923 -31.793  1.00  0.00     0.053 C 
BRANCH  19  21
HETATM   21  O   UNL     1      -3.169  -0.261 -33.483  1.00  0.00    -0.384 OA
HETATM   22  H   UNL     1      -2.745   0.396 -32.904  1.00  0.00     0.211 HD
ENDBRANCH  19  21
BRANCH  19  23
HETATM   23  C   UNL     1      -4.732  -2.125 -33.464  1.00  0.00    -0.023 A 
HETATM   24  C   UNL     1      -4.239  -3.401 -33.803  1.00  0.00     0.013 A 
HETATM   25  C   UNL     1      -5.002  -4.287 -34.569  1.00  0.00     0.043 A 
HETATM   26  C   UNL     1      -6.266  -3.909 -34.999  1.00  0.00     0.116 A 
HETATM   27  F   UNL     1      -6.996  -4.756 -35.735  1.00  0.00    -0.206 F 
HETATM   28  C   UNL     1      -6.785  -2.664 -34.671  1.00  0.00     0.043 A 
HETATM   29  C   UNL     1      -6.025  -1.779 -33.902  1.00  0.00     0.013 A 
ENDBRANCH  19  23
ENDBRANCH  18  19
ENDBRANCH   1  18
TORSDOF 6
ENDMDL
MODEL 8
REMARK VINA RESULT:      -8.3      2.810      7.903
REMARK  6 active torsions:
REMARK  status: ('A' for Active; 'I' for Inactive)
REMARK    1  A    between atoms: C_2  and  O_3 
REMARK    2  A    between atoms: C_2  and  C_4 
REMARK    3  A    between atoms: C_2  and  C_11 
REMARK    4  A    between atoms: C_11  and  N_12 
REMARK       I    between atoms: N_12  and  C_13 
REMARK    5  A    between atoms: C_13  and  C_14 
REMARK    6  A    between atoms: C_15  and  C_16 
ROOT
HETATM    1  N   UNL     1      -5.400   3.118 -32.098  1.00  0.00    -0.354 N 
HETATM    2  C   UNL     1      -6.527   2.907 -32.862  1.00  0.00     0.255 C 
HETATM    3  O   UNL     1      -6.649   3.356 -33.996  1.00  0.00    -0.268 OA
HETATM    4  H   UNL     1      -5.255   2.537 -31.283  1.00  0.00     0.162 HD
ENDROOT
BRANCH   2   5
HETATM    5  C   UNL     1      -7.554   2.106 -32.212  1.00  0.00     0.080 A 
HETATM    6  C   UNL     1      -7.763   0.691 -32.278  1.00  0.00     0.107 A 
HETATM    7  N   UNL     1      -8.873   0.334 -31.607  1.00  0.00    -0.173 NA
HETATM    8  N   UNL     1      -9.339   1.477 -31.093  1.00  0.00    -0.288 N 
HETATM    9  H   UNL     1     -10.184   1.439 -30.533  1.00  0.00     0.188 HD
HETATM   10  C   UNL     1      -8.592   2.566 -31.419  1.00  0.00     0.128 A 
BRANCH   6  11
HETATM   11  C   UNL     1      -6.957  -0.326 -32.943  1.00  0.00     0.034 A 
HETATM   12  C   UNL     1      -5.674  -0.646 -32.489  1.00  0.00     0.129 A 
HETATM   13  F   UNL     1      -5.157  -0.038 -31.409  1.00  0.00    -0.205 F 
HETATM   14  C   UNL     1      -4.910  -1.626 -33.121  1.00  0.00     0.043 A 
HETATM   15  C   UNL     1      -5.431  -2.312 -34.218  1.00  0.00     0.003 A 
HETATM   16  C   UNL     1      -6.716  -2.018 -34.674  1.00  0.00     0.001 A 
HETATM   17  C   UNL     1      -7.477  -1.033 -34.038  1.00  0.00     0.017 A 
ENDBRANCH   6  11
ENDBRANCH   2   5
BRANCH   1  18
HETATM   18  C   UNL     1      -4.217   3.783 -32.625  1.00  0.00     0.165 C 
BRANCH  18  19
HETATM   19  C   UNL     1      -4.217   5.317 -32.379  1.00  0.00     0.097 C 
HETATM   20  C   UNL     1      -5.123   5.718 -31.204  1.00  0.00     0.053 C 
BRANCH  19  21
HETATM   21  O   UNL     1      -4.767   5.935 -33.561  1.00  0.00    -0.384 OA
HETATM   22  H   UNL     1      -5.233   6.736 -33.263  1.00  0.00     0.211 HD
ENDBRANCH  19  21
BRANCH  19  23
HETATM   23  C   UNL     1      -2.780   5.802 -32.164  1.00  0.00    -0.023 A 
HETATM   24  C   UNL     1      -1.769   4.898 -31.780  1.00  0.00     0.013 A 
HETATM   25  C   UNL     1      -0.454   5.330 -31.586  1.00  0.00     0.043 A 
HETATM   26  C   UNL     1      -0.135   6.667 -31.780  1.00  0.00     0.116 A 
HETATM   27  F   UNL     1       1.124   7.081 -31.592  1.00  0.00    -0.206 F 
HETATM   28  C   UNL     1      -1.105   7.579 -32.171  1.00  0.00     0.043 A 
HETATM   29  C   UNL     1      -2.420   7.148 -32.369  1.00  0.00     0.013 A 
ENDBRANCH  19  23
ENDBRANCH  18  19
ENDBRANCH   1  18
TORSDOF 6
ENDMDL
MODEL 9
REMARK VINA RESULT:      -8.2      2.992      7.208
REMARK  6 active torsions:
REMARK  status: ('A' for Active; 'I' for Inactive)
REMARK    1  A    between atoms: C_2  and  O_3 
REMARK    2  A    between atoms: C_2  and  C_4 
REMARK    3  A    between atoms: C_2  and  C_11 
REMARK    4  A    between atoms: C_11  and  N_12 
REMARK       I    between atoms: N_12  and  C_13 
REMARK    5  A    between atoms: C_13  and  C_14 
REMARK    6  A    between atoms: C_15  and  C_16 
ROOT
HETATM    1  N   UNL     1      -7.201   3.698 -31.887  1.00  0.00    -0.354 N 
HETATM    2  C   UNL     1      -7.709   3.136 -33.039  1.00  0.00     0.255 C 
HETATM    3  O   UNL     1      -7.381   3.516 -34.158  1.00  0.00    -0.268 OA
HETATM    4  H   UNL     1      -7.319   3.197 -31.016  1.00  0.00     0.162 HD
ENDROOT
BRANCH   2   5
HETATM    5  C   UNL     1      -8.659   2.057 -32.816  1.00  0.00     0.080 A 
HETATM    6  C   UNL     1      -8.435   0.644 -32.855  1.00  0.00     0.107 A 
HETATM    7  N   UNL     1      -9.586  -0.033 -32.681  1.00  0.00    -0.173 NA
HETATM    8  N   UNL     1     -10.510   0.915 -32.494  1.00  0.00    -0.288 N 
HETATM    9  H   UNL     1     -11.468   0.622 -32.335  1.00  0.00     0.188 HD
HETATM   10  C   UNL     1     -10.015   2.180 -32.563  1.00  0.00     0.128 A 
BRANCH   6  11
HETATM   11  C   UNL     1      -7.186  -0.084 -33.046  1.00  0.00     0.034 A 
HETATM   12  C   UNL     1      -6.357  -0.398 -31.965  1.00  0.00     0.129 A 
HETATM   13  F   UNL     1      -6.703  -0.055 -30.713  1.00  0.00    -0.205 F 
HETATM   14  C   UNL     1      -5.168  -1.102 -32.150  1.00  0.00     0.043 A 
HETATM   15  C   UNL     1      -4.798  -1.514 -33.429  1.00  0.00     0.003 A 
HETATM   16  C   UNL     1      -5.621  -1.226 -34.517  1.00  0.00     0.001 A 
HETATM   17  C   UNL     1      -6.812  -0.517 -34.327  1.00  0.00     0.017 A 
ENDBRANCH   6  11
ENDBRANCH   2   5
BRANCH   1  18
HETATM   18  C   UNL     1      -6.144   4.698 -31.911  1.00  0.00     0.165 C 
BRANCH  18  19
HETATM   19  C   UNL     1      -4.762   4.137 -31.474  1.00  0.00     0.097 C 
HETATM   20  C   UNL     1      -4.791   2.615 -31.266  1.00  0.00     0.053 C 
BRANCH  19  21
HETATM   21  O   UNL     1      -4.449   4.729 -30.196  1.00  0.00    -0.384 OA
HETATM   22  H   UNL     1      -4.833   4.143 -29.519  1.00  0.00     0.211 HD
ENDBRANCH  19  21
BRANCH  19  23
HETATM   23  C   UNL     1      -3.699   4.538 -32.502  1.00  0.00    -0.023 A 
HETATM   24  C   UNL     1      -2.334   4.553 -32.152  1.00  0.00     0.013 A 
HETATM   25  C   UNL     1      -1.356   4.912 -33.084  1.00  0.00     0.043 A 
HETATM   26  C   UNL     1      -1.732   5.253 -34.376  1.00  0.00     0.116 A 
HETATM   27  F   UNL     1      -0.795   5.599 -35.268  1.00  0.00    -0.206 F 
HETATM   28  C   UNL     1      -3.067   5.236 -34.755  1.00  0.00     0.043 A 
HETATM   29  C   UNL     1      -4.045   4.874 -33.826  1.00  0.00     0.013 A 
ENDBRANCH  19  23
ENDBRANCH  18  19
ENDBRANCH   1  18
TORSDOF 6
ENDMDL
MODEL 10
REMARK VINA RESULT:      -8.2      2.436      7.943
REMARK  6 active torsions:
REMARK  status: ('A' for Active; 'I' for Inactive)
REMARK    1  A    between atoms: C_2  and  O_3 
REMARK    2  A    between atoms: C_2  and  C_4 
REMARK    3  A    between atoms: C_2  and  C_11 
REMARK    4  A    between atoms: C_11  and  N_12 
REMARK       I    between atoms: N_12  and  C_13 
REMARK    5  A    between atoms: C_13  and  C_14 
REMARK    6  A    between atoms: C_15  and  C_16 
ROOT
HETATM    1  N   UNL     1      -4.656   3.996 -32.057  1.00  0.00    -0.354 N 
HETATM    2  C   UNL     1      -5.471   2.937 -32.395  1.00  0.00     0.255 C 
HETATM    3  O   UNL     1      -5.889   2.764 -33.534  1.00  0.00    -0.268 OA
HETATM    4  H   UNL     1      -4.156   3.957 -31.178  1.00  0.00     0.162 HD
ENDROOT
BRANCH   2   5
HETATM    5  C   UNL     1      -5.787   2.044 -31.290  1.00  0.00     0.080 A 
HETATM    6  C   UNL     1      -6.036   0.634 -31.321  1.00  0.00     0.107 A 
HETATM    7  N   UNL     1      -6.382   0.177 -30.103  1.00  0.00    -0.173 NA
HETATM    8  N   UNL     1      -6.316   1.251 -29.309  1.00  0.00    -0.288 N 
HETATM    9  H   UNL     1      -6.536   1.132 -28.326  1.00  0.00     0.188 HD
HETATM   10  C   UNL     1      -5.965   2.391 -29.962  1.00  0.00     0.128 A 
BRANCH   6  11
HETATM   11  C   UNL     1      -5.957  -0.289 -32.447  1.00  0.00     0.034 A 
HETATM   12  C   UNL     1      -7.072  -0.551 -33.250  1.00  0.00     0.129 A 
HETATM   13  F   UNL     1      -8.243   0.062 -33.016  1.00  0.00    -0.205 F 
HETATM   14  C   UNL     1      -6.990  -1.426 -34.331  1.00  0.00     0.043 A 
HETATM   15  C   UNL     1      -5.778  -2.046 -34.633  1.00  0.00     0.003 A 
HETATM   16  C   UNL     1      -4.652  -1.783 -33.854  1.00  0.00     0.001 A 
HETATM   17  C   UNL     1      -4.739  -0.906 -32.769  1.00  0.00     0.017 A 
ENDBRANCH   6  11
ENDBRANCH   2   5
BRANCH   1  18
HETATM   18  C   UNL     1      -4.128   4.919 -33.052  1.00  0.00     0.165 C 
BRANCH  18  19
HETATM   19  C   UNL     1      -2.636   4.659 -33.396  1.00  0.00     0.097 C 
HETATM   20  C   UNL     1      -2.302   5.023 -34.851  1.00  0.00     0.053 C 
BRANCH  19  21
HETATM   21  O   UNL     1      -2.410   3.240 -33.258  1.00  0.00    -0.384 OA
HETATM   22  H   UNL     1      -1.622   3.033 -33.790  1.00  0.00     0.211 HD
ENDBRANCH  19  21
BRANCH  19  23
HETATM   23  C   UNL     1      -1.743   5.421 -32.412  1.00  0.00    -0.023 A 
HETATM   24  C   UNL     1      -1.521   6.804 -32.570  1.00  0.00     0.013 A 
HETATM   25  C   UNL     1      -0.713   7.509 -31.675  1.00  0.00     0.043 A 
HETATM   26  C   UNL     1      -0.121   6.842 -30.611  1.00  0.00     0.116 A 
HETATM   27  F   UNL     1       0.656   7.518 -29.755  1.00  0.00    -0.206 F 
HETATM   28  C   UNL     1      -0.330   5.483 -30.422  1.00  0.00     0.043 A 
HETATM   29  C   UNL     1      -1.142   4.777 -31.313  1.00  0.00     0.013 A 
ENDBRANCH  19  23
ENDBRANCH  18  19
ENDBRANCH   1  18
TORSDOF 6
ENDMDL
