MODEL 1
REMARK VINA RESULT:      -8.3      0.000      0.000
REMARK  5 active torsions:
REMARK  status: ('A' for Active; 'I' for Inactive)
REMARK    1  A    between atoms: C_2  and  N_4 
REMARK    2  A    between atoms: N_4  and  C_5 
REMARK       I    between atoms: N_4  and  C_12 
REMARK    3  A    between atoms: C_5  and  C_6 
REMARK       I    between atoms: C_12  and  N_14 
REMARK    4  A    between atoms: N_14  and  C_15 
REMARK    5  A    between atoms: C_18  and  C_21 
ROOT
HETATM    1  N   UNL     1      -6.667   4.456 -32.625  1.00  0.00    -0.326 N 
HETATM    2  C   UNL     1      -6.723   3.057 -32.553  1.00  0.00     0.323 C 
HETATM    3  O   UNL     1      -7.468   2.478 -31.768  1.00  0.00    -0.247 OA
HETATM    4  N   UNL     1      -5.864   2.408 -33.416  1.00  0.00    -0.309 N 
HETATM    5  H   UNL     1      -5.054   2.935 -33.706  1.00  0.00     0.170 HD
ENDROOT
BRANCH   4   6
HETATM    6  C   UNL     1      -5.831   1.031 -33.715  1.00  0.00     0.036 A 
HETATM    7  C   UNL     1      -6.703   0.411 -34.608  1.00  0.00     0.030 A 
HETATM    8  C   UNL     1      -6.597  -0.962 -34.868  1.00  0.00     0.014 A 
HETATM    9  C   UNL     1      -5.614  -1.739 -34.244  1.00  0.00    -0.023 A 
HETATM   10  C   UNL     1      -4.731  -1.109 -33.360  1.00  0.00     0.014 A 
HETATM   11  C   UNL     1      -4.837   0.263 -33.100  1.00  0.00     0.030 A 
BRANCH   9  12
HETATM   12  C   UNL     1      -5.497  -3.163 -34.508  1.00  0.00     0.010 A 
HETATM   13  C   UNL     1      -6.375  -4.062 -35.161  1.00  0.00     0.152 A 
HETATM   14  N   UNL     1      -5.896  -5.308 -35.219  1.00  0.00    -0.187 NA
HETATM   15  N   UNL     1      -4.706  -5.213 -34.605  1.00  0.00    -0.289 N 
HETATM   16  H   UNL     1      -4.137  -6.049 -34.526  1.00  0.00     0.188 HD
HETATM   17  C   UNL     1      -4.420  -3.953 -34.164  1.00  0.00     0.123 A 
ENDBRANCH   9  12
ENDBRANCH   4   6
BRANCH   1  18
HETATM   18  C   UNL     1      -7.465   5.274 -31.689  1.00  0.00     0.081 C 
HETATM   19  C   UNL     1      -6.757   5.484 -30.348  1.00  0.00     0.032 C 
HETATM   20  C   UNL     1      -7.923   6.604 -32.294  1.00  0.00     0.032 C 
ENDBRANCH   1  18
BRANCH   1  21
HETATM   21  C   UNL     1      -6.030   5.171 -33.737  1.00  0.00     0.166 C 
BRANCH  21  22
HETATM   22  C   UNL     1      -4.517   5.219 -33.692  1.00  0.00    -0.040 A 
HETATM   23  C   UNL     1      -3.810   5.204 -34.906  1.00  0.00     0.009 A 
HETATM   24  C   UNL     1      -2.414   5.225 -34.924  1.00  0.00     0.001 A 
HETATM   25  C   UNL     1      -1.702   5.260 -33.728  1.00  0.00     0.000 A 
HETATM   26  C   UNL     1      -2.385   5.280 -32.516  1.00  0.00     0.001 A 
HETATM   27  C   UNL     1      -3.781   5.260 -32.497  1.00  0.00     0.009 A 
ENDBRANCH  21  22
ENDBRANCH   1  21
TORSDOF 5
ENDMDL
MODEL 2
REMARK VINA RESULT:      -8.1      1.305      2.030
REMARK  5 active torsions:
REMARK  status: ('A' for Active; 'I' for Inactive)
REMARK    1  A    between atoms: C_2  and  N_4 
REMARK    2  A    between atoms: N_4  and  C_5 
REMARK       I    between atoms: N_4  and  C_12 
REMARK    3  A    between atoms: C_5  and  C_6 
REMARK       I    between atoms: C_12  and  N_14 
REMARK    4  A    between atoms: N_14  and  C_15 
REMARK    5  A    between atoms: C_18  and  C_21 
ROOT
HETATM    1  N   UNL     1      -5.185   4.598 -31.827  1.00  0.00    -0.326 N 
HETATM    2  C   UNL     1      -5.460   3.223 -31.829  1.00  0.00     0.323 C 
HETATM    3  O   UNL     1      -6.270   2.724 -31.054  1.00  0.00    -0.247 OA
HETATM    4  N   UNL     1      -4.734   2.500 -32.752  1.00  0.00    -0.309 N 
HETATM    5  H   UNL     1      -3.858   2.909 -33.038  1.00  0.00     0.170 HD
ENDROOT
BRANCH   4   6
HETATM    6  C   UNL     1      -4.927   1.155 -33.126  1.00  0.00     0.036 A 
HETATM    7  C   UNL     1      -4.111   0.108 -32.700  1.00  0.00     0.030 A 
HETATM    8  C   UNL     1      -4.375  -1.209 -33.100  1.00  0.00     0.014 A 
HETATM    9  C   UNL     1      -5.465  -1.505 -33.927  1.00  0.00    -0.023 A 
HETATM   10  C   UNL     1      -6.291  -0.453 -34.339  1.00  0.00     0.014 A 
HETATM   11  C   UNL     1      -6.026   0.863 -33.940  1.00  0.00     0.030 A 
BRANCH   9  12
HETATM   12  C   UNL     1      -5.747  -2.867 -34.346  1.00  0.00     0.010 A 
HETATM   13  C   UNL     1      -4.899  -3.993 -34.477  1.00  0.00     0.152 A 
HETATM   14  N   UNL     1      -5.548  -5.089 -34.880  1.00  0.00    -0.187 NA
HETATM   15  N   UNL     1      -6.817  -4.672 -35.007  1.00  0.00    -0.289 N 
HETATM   16  H   UNL     1      -7.517  -5.342 -35.305  1.00  0.00     0.188 HD
HETATM   17  C   UNL     1      -6.989  -3.353 -34.698  1.00  0.00     0.123 A 
ENDBRANCH   9  12
ENDBRANCH   4   6
BRANCH   1  18
HETATM   18  C   UNL     1      -5.823   5.475 -30.823  1.00  0.00     0.081 C 
HETATM   19  C   UNL     1      -4.909   5.753 -29.627  1.00  0.00     0.032 C 
HETATM   20  C   UNL     1      -6.372   6.773 -31.421  1.00  0.00     0.032 C 
ENDBRANCH   1  18
BRANCH   1  21
HETATM   21  C   UNL     1      -4.469   5.268 -32.918  1.00  0.00     0.166 C 
BRANCH  21  22
HETATM   22  C   UNL     1      -3.060   5.715 -32.585  1.00  0.00    -0.040 A 
HETATM   23  C   UNL     1      -2.764   7.088 -32.634  1.00  0.00     0.009 A 
HETATM   24  C   UNL     1      -1.477   7.555 -32.359  1.00  0.00     0.001 A 
HETATM   25  C   UNL     1      -0.465   6.658 -32.031  1.00  0.00     0.000 A 
HETATM   26  C   UNL     1      -0.740   5.294 -31.974  1.00  0.00     0.001 A 
HETATM   27  C   UNL     1      -2.027   4.827 -32.248  1.00  0.00     0.009 A 
ENDBRANCH  21  22
ENDBRANCH   1  21
TORSDOF 5
ENDMDL
MODEL 3
REMARK VINA RESULT:      -8.0      4.068      7.615
REMARK  5 active torsions:
REMARK  status: ('A' for Active; 'I' for Inactive)
REMARK    1  A    between atoms: C_2  and  N_4 
REMARK    2  A    between atoms: N_4  and  C_5 
REMARK       I    between atoms: N_4  and  C_12 
REMARK    3  A    between atoms: C_5  and  C_6 
REMARK       I    between atoms: C_12  and  N_14 
REMARK    4  A    between atoms: N_14  and  C_15 
REMARK    5  A    between atoms: C_18  and  C_21 
ROOT
HETATM    1  N   UNL     1      -5.045  -0.365 -32.534  1.00  0.00    -0.326 N 
HETATM    2  C   UNL     1      -6.362   0.048 -32.288  1.00  0.00     0.323 C 
HETATM    3  O   UNL     1      -6.667   0.673 -31.276  1.00  0.00    -0.247 OA
HETATM    4  N   UNL     1      -7.266  -0.322 -33.262  1.00  0.00    -0.309 N 
HETATM    5  H   UNL     1      -7.012  -1.130 -33.810  1.00  0.00     0.170 HD
ENDROOT
BRANCH   4   6
HETATM    6  C   UNL     1      -8.601   0.108 -33.397  1.00  0.00     0.036 A 
HETATM    7  C   UNL     1      -8.986   1.218 -34.147  1.00  0.00     0.030 A 
HETATM    8  C   UNL     1     -10.337   1.574 -34.250  1.00  0.00     0.014 A 
HETATM    9  C   UNL     1     -11.330   0.823 -33.610  1.00  0.00    -0.023 A 
HETATM   10  C   UNL     1     -10.941  -0.300 -32.871  1.00  0.00     0.014 A 
HETATM   11  C   UNL     1      -9.590  -0.656 -32.768  1.00  0.00     0.030 A 
BRANCH   9  12
HETATM   12  C   UNL     1     -12.734   1.184 -33.711  1.00  0.00     0.010 A 
HETATM   13  C   UNL     1     -13.878   0.397 -33.985  1.00  0.00     0.152 A 
HETATM   14  N   UNL     1     -15.011   1.105 -33.975  1.00  0.00    -0.187 NA
HETATM   15  N   UNL     1     -14.598   2.350 -33.692  1.00  0.00    -0.289 N 
HETATM   16  H   UNL     1     -15.294   3.085 -33.624  1.00  0.00     0.188 HD
HETATM   17  C   UNL     1     -13.247   2.451 -33.523  1.00  0.00     0.123 A 
ENDBRANCH   9  12
ENDBRANCH   4   6
BRANCH   1  18
HETATM   18  C   UNL     1      -3.995  -0.117 -31.525  1.00  0.00     0.081 C 
HETATM   19  C   UNL     1      -2.833  -1.108 -31.636  1.00  0.00     0.032 C 
HETATM   20  C   UNL     1      -3.497   1.331 -31.519  1.00  0.00     0.032 C 
ENDBRANCH   1  18
BRANCH   1  21
HETATM   21  C   UNL     1      -4.591  -0.834 -33.848  1.00  0.00     0.166 C 
BRANCH  21  22
HETATM   22  C   UNL     1      -4.858  -2.297 -34.139  1.00  0.00    -0.040 A 
HETATM   23  C   UNL     1      -6.069  -2.644 -34.763  1.00  0.00     0.009 A 
HETATM   24  C   UNL     1      -6.379  -3.978 -35.036  1.00  0.00     0.001 A 
HETATM   25  C   UNL     1      -5.484  -4.986 -34.688  1.00  0.00     0.000 A 
HETATM   26  C   UNL     1      -4.279  -4.661 -34.073  1.00  0.00     0.001 A 
HETATM   27  C   UNL     1      -3.968  -3.327 -33.801  1.00  0.00     0.009 A 
ENDBRANCH  21  22
ENDBRANCH   1  21
TORSDOF 5
ENDMDL
MODEL 4
REMARK VINA RESULT:      -7.7      2.803      7.552
REMARK  5 active torsions:
REMARK  status: ('A' for Active; 'I' for Inactive)
REMARK    1  A    between atoms: C_2  and  N_4 
REMARK    2  A    between atoms: N_4  and  C_5 
REMARK       I    between atoms: N_4  and  C_12 
REMARK    3  A    between atoms: C_5  and  C_6 
REMARK       I    between atoms: C_12  and  N_14 
REMARK    4  A    between atoms: N_14  and  C_15 
REMARK    5  A    between atoms: C_18  and  C_21 
ROOT
HETATM    1  N   UNL     1      -7.822   1.855 -33.532  1.00  0.00    -0.326 N 
HETATM    2  C   UNL     1      -6.942   2.712 -32.856  1.00  0.00     0.323 C 
HETATM    3  O   UNL     1      -7.176   3.117 -31.721  1.00  0.00    -0.247 OA
HETATM    4  N   UNL     1      -5.822   3.063 -33.580  1.00  0.00    -0.309 N 
HETATM    5  H   UNL     1      -5.916   3.015 -34.583  1.00  0.00     0.170 HD
ENDROOT
BRANCH   4   6
HETATM    6  C   UNL     1      -4.677   3.738 -33.110  1.00  0.00     0.036 A 
HETATM    7  C   UNL     1      -4.407   5.081 -33.370  1.00  0.00     0.030 A 
HETATM    8  C   UNL     1      -3.255   5.688 -32.853  1.00  0.00     0.014 A 
HETATM    9  C   UNL     1      -2.355   4.967 -32.060  1.00  0.00    -0.023 A 
HETATM   10  C   UNL     1      -2.638   3.623 -31.788  1.00  0.00     0.014 A 
HETATM   11  C   UNL     1      -3.789   3.016 -32.306  1.00  0.00     0.030 A 
BRANCH   9  12
HETATM   12  C   UNL     1      -1.158   5.589 -31.519  1.00  0.00     0.010 A 
HETATM   13  C   UNL     1      -0.315   5.205 -30.448  1.00  0.00     0.152 A 
HETATM   14  N   UNL     1       0.710   6.042 -30.268  1.00  0.00    -0.187 NA
HETATM   15  N   UNL     1       0.531   6.966 -31.225  1.00  0.00    -0.289 N 
HETATM   16  H   UNL     1       1.202   7.724 -31.295  1.00  0.00     0.188 HD
HETATM   17  C   UNL     1      -0.570   6.740 -32.000  1.00  0.00     0.123 A 
ENDBRANCH   9  12
ENDBRANCH   4   6
BRANCH   1  18
HETATM   18  C   UNL     1      -9.107   1.477 -32.908  1.00  0.00     0.081 C 
HETATM   19  C   UNL     1     -10.186   1.155 -33.945  1.00  0.00     0.032 C 
HETATM   20  C   UNL     1      -8.966   0.352 -31.878  1.00  0.00     0.032 C 
ENDBRANCH   1  18
BRANCH   1  21
HETATM   21  C   UNL     1      -7.441   1.118 -34.742  1.00  0.00     0.166 C 
BRANCH  21  22
HETATM   22  C   UNL     1      -6.676  -0.167 -34.501  1.00  0.00    -0.040 A 
HETATM   23  C   UNL     1      -7.274  -1.383 -34.873  1.00  0.00     0.009 A 
HETATM   24  C   UNL     1      -6.624  -2.600 -34.655  1.00  0.00     0.001 A 
HETATM   25  C   UNL     1      -5.366  -2.620 -34.061  1.00  0.00     0.000 A 
HETATM   26  C   UNL     1      -4.756  -1.426 -33.689  1.00  0.00     0.001 A 
HETATM   27  C   UNL     1      -5.405  -0.209 -33.908  1.00  0.00     0.009 A 
ENDBRANCH  21  22
ENDBRANCH   1  21
TORSDOF 5
ENDMDL
MODEL 5
REMARK VINA RESULT:      -7.4     15.767     17.638
REMARK  5 active torsions:
REMARK  status: ('A' for Active; 'I' for Inactive)
REMARK    1  A    between atoms: C_2  and  N_4 
REMARK    2  A    between atoms: N_4  and  C_5 
REMARK       I    between atoms: N_4  and  C_12 
REMARK    3  A    between atoms: C_5  and  C_6 
REMARK       I    between atoms: C_12  and  N_14 
REMARK    4  A    between atoms: N_14  and  C_15 
REMARK    5  A    between atoms: C_18  and  C_21 
ROOT
HETATM    1  N   UNL     1      -6.263 -13.313 -38.365  1.00  0.00    -0.326 N 
HETATM    2  C   UNL     1      -5.827 -14.043 -37.251  1.00  0.00     0.323 C 
HETATM    3  O   UNL     1      -4.716 -14.564 -37.213  1.00  0.00    -0.247 OA
HETATM    4  N   UNL     1      -6.753 -14.135 -36.233  1.00  0.00    -0.309 N 
HETATM    5  H   UNL     1      -7.718 -14.032 -36.508  1.00  0.00     0.170 HD
ENDROOT
BRANCH   4   6
HETATM    6  C   UNL     1      -6.543 -14.624 -34.928  1.00  0.00     0.036 A 
HETATM    7  C   UNL     1      -5.854 -13.924 -33.939  1.00  0.00     0.030 A 
HETATM    8  C   UNL     1      -5.701 -14.469 -32.657  1.00  0.00     0.014 A 
HETATM    9  C   UNL     1      -6.240 -15.721 -32.338  1.00  0.00    -0.023 A 
HETATM   10  C   UNL     1      -6.945 -16.413 -33.329  1.00  0.00     0.014 A 
HETATM   11  C   UNL     1      -7.097 -15.869 -34.611  1.00  0.00     0.030 A 
BRANCH   9  12
HETATM   12  C   UNL     1      -6.086 -16.293 -31.011  1.00  0.00     0.010 A 
HETATM   13  C   UNL     1      -5.211 -15.956 -29.951  1.00  0.00     0.152 A 
HETATM   14  N   UNL     1      -5.390 -16.718 -28.867  1.00  0.00    -0.187 NA
HETATM   15  N   UNL     1      -6.383 -17.545 -29.228  1.00  0.00    -0.289 N 
HETATM   16  H   UNL     1      -6.708 -18.230 -28.554  1.00  0.00     0.188 HD
HETATM   17  C   UNL     1      -6.835 -17.331 -30.498  1.00  0.00     0.123 A 
ENDBRANCH   9  12
ENDBRANCH   4   6
BRANCH   1  18
HETATM   18  C   UNL     1      -5.407 -13.217 -39.565  1.00  0.00     0.081 C 
HETATM   19  C   UNL     1      -5.644 -14.369 -40.545  1.00  0.00     0.032 C 
HETATM   20  C   UNL     1      -5.502 -11.859 -40.265  1.00  0.00     0.032 C 
ENDBRANCH   1  18
BRANCH   1  21
HETATM   21  C   UNL     1      -7.438 -12.434 -38.330  1.00  0.00     0.166 C 
BRANCH  21  22
HETATM   22  C   UNL     1      -8.646 -12.941 -39.091  1.00  0.00    -0.040 A 
HETATM   23  C   UNL     1      -9.458 -12.007 -39.757  1.00  0.00     0.009 A 
HETATM   24  C   UNL     1     -10.596 -12.414 -40.456  1.00  0.00     0.001 A 
HETATM   25  C   UNL     1     -10.942 -13.762 -40.500  1.00  0.00     0.000 A 
HETATM   26  C   UNL     1     -10.147 -14.702 -39.850  1.00  0.00     0.001 A 
HETATM   27  C   UNL     1      -9.009 -14.295 -39.152  1.00  0.00     0.009 A 
ENDBRANCH  21  22
ENDBRANCH   1  21
TORSDOF 5
ENDMDL
MODEL 6
REMARK VINA RESULT:      -7.2      1.573      2.045
REMARK  5 active torsions:
REMARK  status: ('A' for Active; 'I' for Inactive)
REMARK    1  A    between atoms: C_2  and  N_4 
REMARK    2  A    between atoms: N_4  and  C_5 
REMARK       I    between atoms: N_4  and  C_12 
REMARK    3  A    between atoms: C_5  and  C_6 
REMARK       I    between atoms: C_12  and  N_14 
REMARK    4  A    between atoms: N_14  and  C_15 
REMARK    5  A    between atoms: C_18  and  C_21 
ROOT
HETATM    1  N   UNL     1      -8.979   4.085 -32.967  1.00  0.00    -0.326 N 
HETATM    2  C   UNL     1      -8.819   2.693 -32.971  1.00  0.00     0.323 C 
HETATM    3  O   UNL     1      -9.695   1.939 -32.558  1.00  0.00    -0.247 OA
HETATM    4  N   UNL     1      -7.602   2.262 -33.455  1.00  0.00    -0.309 N 
HETATM    5  H   UNL     1      -6.845   2.925 -33.389  1.00  0.00     0.170 HD
ENDROOT
BRANCH   4   6
HETATM    6  C   UNL     1      -7.225   0.940 -33.766  1.00  0.00     0.036 A 
HETATM    7  C   UNL     1      -7.504   0.319 -34.982  1.00  0.00     0.030 A 
HETATM    8  C   UNL     1      -7.081  -0.994 -35.225  1.00  0.00     0.014 A 
HETATM    9  C   UNL     1      -6.364  -1.710 -34.259  1.00  0.00    -0.023 A 
HETATM   10  C   UNL     1      -6.072  -1.078 -33.045  1.00  0.00     0.014 A 
HETATM   11  C   UNL     1      -6.496   0.235 -32.802  1.00  0.00     0.030 A 
BRANCH   9  12
HETATM   12  C   UNL     1      -5.921  -3.072 -34.503  1.00  0.00     0.010 A 
HETATM   13  C   UNL     1      -6.612  -4.195 -35.019  1.00  0.00     0.152 A 
HETATM   14  N   UNL     1      -5.842  -5.283 -35.108  1.00  0.00    -0.187 NA
HETATM   15  N   UNL     1      -4.652  -4.862 -34.652  1.00  0.00    -0.289 N 
HETATM   16  H   UNL     1      -3.884  -5.524 -34.626  1.00  0.00     0.188 HD
HETATM   17  C   UNL     1      -4.646  -3.549 -34.279  1.00  0.00     0.123 A 
ENDBRANCH   9  12
ENDBRANCH   4   6
BRANCH   1  18
HETATM   18  C   UNL     1     -10.198   4.685 -32.385  1.00  0.00     0.081 C 
HETATM   19  C   UNL     1      -9.973   5.201 -30.962  1.00  0.00     0.032 C 
HETATM   20  C   UNL     1     -10.823   5.760 -33.278  1.00  0.00     0.032 C 
ENDBRANCH   1  18
BRANCH   1  21
HETATM   21  C   UNL     1      -8.102   4.990 -33.719  1.00  0.00     0.166 C 
BRANCH  21  22
HETATM   22  C   UNL     1      -6.739   5.229 -33.101  1.00  0.00    -0.040 A 
HETATM   23  C   UNL     1      -5.610   5.188 -33.936  1.00  0.00     0.009 A 
HETATM   24  C   UNL     1      -4.327   5.380 -33.418  1.00  0.00     0.001 A 
HETATM   25  C   UNL     1      -4.153   5.614 -32.057  1.00  0.00     0.000 A 
HETATM   26  C   UNL     1      -5.260   5.661 -31.216  1.00  0.00     0.001 A 
HETATM   27  C   UNL     1      -6.543   5.471 -31.733  1.00  0.00     0.009 A 
ENDBRANCH  21  22
ENDBRANCH   1  21
TORSDOF 5
ENDMDL
MODEL 7
REMARK VINA RESULT:      -7.1      2.514      3.651
REMARK  5 active torsions:
REMARK  status: ('A' for Active; 'I' for Inactive)
REMARK    1  A    between atoms: C_2  and  N_4 
REMARK    2  A    between atoms: N_4  and  C_5 
REMARK       I    between atoms: N_4  and  C_12 
REMARK    3  A    between atoms: C_5  and  C_6 
REMARK       I    between atoms: C_12  and  N_14 
REMARK    4  A    between atoms: N_14  and  C_15 
REMARK    5  A    between atoms: C_18  and  C_21 
ROOT
HETATM    1  N   UNL     1     -10.198   2.957 -33.788  1.00  0.00    -0.326 N 
HETATM    2  C   UNL     1      -9.667   1.674 -33.596  1.00  0.00     0.323 C 
HETATM    3  O   UNL     1     -10.343   0.753 -33.147  1.00  0.00    -0.247 OA
HETATM    4  N   UNL     1      -8.335   1.552 -33.936  1.00  0.00    -0.309 N 
HETATM    5  H   UNL     1      -7.797   2.405 -33.908  1.00  0.00     0.170 HD
ENDROOT
BRANCH   4   6
HETATM    6  C   UNL     1      -7.585   0.364 -34.042  1.00  0.00     0.036 A 
HETATM    7  C   UNL     1      -7.553  -0.433 -35.185  1.00  0.00     0.030 A 
HETATM    8  C   UNL     1      -6.768  -1.593 -35.222  1.00  0.00     0.014 A 
HETATM    9  C   UNL     1      -5.994  -1.974 -34.120  1.00  0.00    -0.023 A 
HETATM   10  C   UNL     1      -6.016  -1.162 -32.980  1.00  0.00     0.014 A 
HETATM   11  C   UNL     1      -6.802  -0.003 -32.943  1.00  0.00     0.030 A 
BRANCH   9  12
HETATM   12  C   UNL     1      -5.177  -3.175 -34.150  1.00  0.00     0.010 A 
HETATM   13  C   UNL     1      -3.862  -3.415 -33.684  1.00  0.00     0.152 A 
HETATM   14  N   UNL     1      -3.461  -4.674 -33.882  1.00  0.00    -0.187 NA
HETATM   15  N   UNL     1      -4.519  -5.248 -34.475  1.00  0.00    -0.289 N 
HETATM   16  H   UNL     1      -4.457  -6.229 -34.726  1.00  0.00     0.188 HD
HETATM   17  C   UNL     1      -5.570  -4.396 -34.656  1.00  0.00     0.123 A 
ENDBRANCH   9  12
ENDBRANCH   4   6
BRANCH   1  18
HETATM   18  C   UNL     1     -11.586   3.249 -33.375  1.00  0.00     0.081 C 
HETATM   19  C   UNL     1     -11.669   3.777 -31.941  1.00  0.00     0.032 C 
HETATM   20  C   UNL     1     -12.323   4.167 -34.353  1.00  0.00     0.032 C 
ENDBRANCH   1  18
BRANCH   1  21
HETATM   21  C   UNL     1      -9.527   3.984 -34.593  1.00  0.00     0.166 C 
BRANCH  21  22
HETATM   22  C   UNL     1      -8.611   4.912 -33.822  1.00  0.00    -0.040 A 
HETATM   23  C   UNL     1      -9.185   5.984 -33.117  1.00  0.00     0.009 A 
HETATM   24  C   UNL     1      -8.388   6.885 -32.407  1.00  0.00     0.001 A 
HETATM   25  C   UNL     1      -7.005   6.728 -32.389  1.00  0.00     0.000 A 
HETATM   26  C   UNL     1      -6.419   5.669 -33.078  1.00  0.00     0.001 A 
HETATM   27  C   UNL     1      -7.215   4.768 -33.787  1.00  0.00     0.009 A 
ENDBRANCH  21  22
ENDBRANCH   1  21
TORSDOF 5
ENDMDL
MODEL 8
REMARK VINA RESULT:      -6.9      4.877      7.719
REMARK  5 active torsions:
REMARK  status: ('A' for Active; 'I' for Inactive)
REMARK    1  A    between atoms: C_2  and  N_4 
REMARK    2  A    between atoms: N_4  and  C_5 
REMARK       I    between atoms: N_4  and  C_12 
REMARK    3  A    between atoms: C_5  and  C_6 
REMARK       I    between atoms: C_12  and  N_14 
REMARK    4  A    between atoms: N_14  and  C_15 
REMARK    5  A    between atoms: C_18  and  C_21 
ROOT
HETATM    1  N   UNL     1      -6.687   2.971 -32.634  1.00  0.00    -0.326 N 
HETATM    2  C   UNL     1      -7.991   3.129 -32.145  1.00  0.00     0.323 C 
HETATM    3  O   UNL     1      -8.230   3.789 -31.138  1.00  0.00    -0.247 OA
HETATM    4  N   UNL     1      -8.957   2.471 -32.878  1.00  0.00    -0.309 N 
HETATM    5  H   UNL     1      -8.637   1.675 -33.409  1.00  0.00     0.170 HD
ENDROOT
BRANCH   4   6
HETATM    6  C   UNL     1     -10.355   2.597 -32.758  1.00  0.00     0.036 A 
HETATM    7  C   UNL     1     -10.984   3.642 -32.083  1.00  0.00     0.030 A 
HETATM    8  C   UNL     1     -12.382   3.710 -32.021  1.00  0.00     0.014 A 
HETATM    9  C   UNL     1     -13.178   2.738 -32.638  1.00  0.00    -0.023 A 
HETATM   10  C   UNL     1     -12.543   1.699 -33.328  1.00  0.00     0.014 A 
HETATM   11  C   UNL     1     -11.145   1.631 -33.389  1.00  0.00     0.030 A 
BRANCH   9  12
HETATM   12  C   UNL     1     -14.629   2.801 -32.579  1.00  0.00     0.010 A 
HETATM   13  C   UNL     1     -15.610   1.799 -32.770  1.00  0.00     0.152 A 
HETATM   14  N   UNL     1     -16.856   2.255 -32.613  1.00  0.00    -0.187 NA
HETATM   15  N   UNL     1     -16.679   3.551 -32.316  1.00  0.00    -0.289 N 
HETATM   16  H   UNL     1     -17.500   4.123 -32.144  1.00  0.00     0.188 HD
HETATM   17  C   UNL     1     -15.368   3.928 -32.281  1.00  0.00     0.123 A 
ENDBRANCH   9  12
ENDBRANCH   4   6
BRANCH   1  18
HETATM   18  C   UNL     1      -5.546   3.545 -31.890  1.00  0.00     0.081 C 
HETATM   19  C   UNL     1      -5.052   2.619 -30.776  1.00  0.00     0.032 C 
HETATM   20  C   UNL     1      -4.398   3.989 -32.799  1.00  0.00     0.032 C 
ENDBRANCH   1  18
BRANCH   1  21
HETATM   21  C   UNL     1      -6.397   2.458 -33.978  1.00  0.00     0.166 C 
BRANCH  21  22
HETATM   22  C   UNL     1      -6.299   0.951 -34.087  1.00  0.00    -0.040 A 
HETATM   23  C   UNL     1      -7.183   0.283 -34.952  1.00  0.00     0.009 A 
HETATM   24  C   UNL     1      -7.152  -1.108 -35.076  1.00  0.00     0.001 A 
HETATM   25  C   UNL     1      -6.239  -1.854 -34.336  1.00  0.00     0.000 A 
HETATM   26  C   UNL     1      -5.354  -1.209 -33.476  1.00  0.00     0.001 A 
HETATM   27  C   UNL     1      -5.383   0.181 -33.353  1.00  0.00     0.009 A 
ENDBRANCH  21  22
ENDBRANCH   1  21
TORSDOF 5
ENDMDL
MODEL 9
REMARK VINA RESULT:      -6.9      2.752      8.185
REMARK  5 active torsions:
REMARK  status: ('A' for Active; 'I' for Inactive)
REMARK    1  A    between atoms: C_2  and  N_4 
REMARK    2  A    between atoms: N_4  and  C_5 
REMARK       I    between atoms: N_4  and  C_12 
REMARK    3  A    between atoms: C_5  and  C_6 
REMARK       I    between atoms: C_12  and  N_14 
REMARK    4  A    between atoms: N_14  and  C_15 
REMARK    5  A    between atoms: C_18  and  C_21 
ROOT
HETATM    1  N   UNL     1      -7.848   1.298 -32.800  1.00  0.00    -0.326 N 
HETATM    2  C   UNL     1      -7.321   2.590 -32.935  1.00  0.00     0.323 C 
HETATM    3  O   UNL     1      -7.994   3.522 -33.366  1.00  0.00    -0.247 OA
HETATM    4  N   UNL     1      -5.998   2.707 -32.562  1.00  0.00    -0.309 N 
HETATM    5  H   UNL     1      -5.454   1.858 -32.609  1.00  0.00     0.170 HD
ENDROOT
BRANCH   4   6
HETATM    6  C   UNL     1      -5.258   3.894 -32.398  1.00  0.00     0.036 A 
HETATM    7  C   UNL     1      -4.286   4.332 -33.296  1.00  0.00     0.030 A 
HETATM    8  C   UNL     1      -3.602   5.535 -33.075  1.00  0.00     0.014 A 
HETATM    9  C   UNL     1      -3.883   6.327 -31.955  1.00  0.00    -0.023 A 
HETATM   10  C   UNL     1      -4.871   5.892 -31.065  1.00  0.00     0.014 A 
HETATM   11  C   UNL     1      -5.553   4.689 -31.286  1.00  0.00     0.030 A 
BRANCH   9  12
HETATM   12  C   UNL     1      -3.179   7.576 -31.718  1.00  0.00     0.010 A 
HETATM   13  C   UNL     1      -2.044   8.137 -32.351  1.00  0.00     0.152 A 
HETATM   14  N   UNL     1      -1.706   9.329 -31.851  1.00  0.00    -0.187 NA
HETATM   15  N   UNL     1      -2.625   9.539 -30.896  1.00  0.00    -0.289 N 
HETATM   16  H   UNL     1      -2.579  10.402 -30.365  1.00  0.00     0.188 HD
HETATM   17  C   UNL     1      -3.529   8.523 -30.778  1.00  0.00     0.123 A 
ENDBRANCH   9  12
ENDBRANCH   4   6
BRANCH   1  18
HETATM   18  C   UNL     1      -9.226   1.013 -33.253  1.00  0.00     0.081 C 
HETATM   19  C   UNL     1      -9.312   0.815 -34.768  1.00  0.00     0.032 C 
HETATM   20  C   UNL     1      -9.878  -0.149 -32.498  1.00  0.00     0.032 C 
ENDBRANCH   1  18
BRANCH   1  21
HETATM   21  C   UNL     1      -7.188   0.247 -32.017  1.00  0.00     0.166 C 
BRANCH  21  22
HETATM   22  C   UNL     1      -6.259  -0.656 -32.803  1.00  0.00    -0.040 A 
HETATM   23  C   UNL     1      -6.812  -1.482 -33.796  1.00  0.00     0.009 A 
HETATM   24  C   UNL     1      -6.007  -2.350 -34.538  1.00  0.00     0.001 A 
HETATM   25  C   UNL     1      -4.637  -2.407 -34.297  1.00  0.00     0.000 A 
HETATM   26  C   UNL     1      -4.072  -1.593 -33.320  1.00  0.00     0.001 A 
HETATM   27  C   UNL     1      -4.876  -0.724 -32.579  1.00  0.00     0.009 A 
ENDBRANCH  21  22
ENDBRANCH   1  21
TORSDOF 5
ENDMDL
MODEL 10
REMARK VINA RESULT:      -6.9     15.385     17.124
REMARK  5 active torsions:
REMARK  status: ('A' for Active; 'I' for Inactive)
REMARK    1  A    between atoms: C_2  and  N_4 
REMARK    2  A    between atoms: N_4  and  C_5 
REMARK       I    between atoms: N_4  and  C_12 
REMARK    3  A    between atoms: C_5  and  C_6 
REMARK       I    between atoms: C_12  and  N_14 
REMARK    4  A    between atoms: N_14  and  C_15 
REMARK    5  A    between atoms: C_18  and  C_21 
ROOT
HETATM    1  N   UNL     1      -4.088 -12.661 -38.613  1.00  0.00    -0.326 N 
HETATM    2  C   UNL     1      -4.812 -13.248 -37.566  1.00  0.00     0.323 C 
HETATM    3  O   UNL     1      -5.846 -13.878 -37.768  1.00  0.00    -0.247 OA
HETATM    4  N   UNL     1      -4.273 -13.038 -36.314  1.00  0.00    -0.309 N 
HETATM    5  H   UNL     1      -3.692 -12.219 -36.219  1.00  0.00     0.170 HD
ENDROOT
BRANCH   4   6
HETATM    6  C   UNL     1      -4.653 -13.656 -35.105  1.00  0.00     0.036 A 
HETATM    7  C   UNL     1      -5.462 -13.050 -34.146  1.00  0.00     0.030 A 
HETATM    8  C   UNL     1      -5.813 -13.735 -32.975  1.00  0.00     0.014 A 
HETATM    9  C   UNL     1      -5.366 -15.041 -32.744  1.00  0.00    -0.023 A 
HETATM   10  C   UNL     1      -4.568 -15.652 -33.717  1.00  0.00     0.014 A 
HETATM   11  C   UNL     1      -4.217 -14.966 -34.888  1.00  0.00     0.030 A 
BRANCH   9  12
HETATM   12  C   UNL     1      -5.725 -15.759 -31.533  1.00  0.00     0.010 A 
HETATM   13  C   UNL     1      -5.153 -15.739 -30.238  1.00  0.00     0.152 A 
HETATM   14  N   UNL     1      -5.789 -16.539 -29.377  1.00  0.00    -0.187 NA
HETATM   15  N   UNL     1      -6.773 -17.074 -30.115  1.00  0.00    -0.289 N 
HETATM   16  H   UNL     1      -7.409 -17.727 -29.670  1.00  0.00     0.188 HD
HETATM   17  C   UNL     1      -6.780 -16.639 -31.409  1.00  0.00     0.123 A 
ENDBRANCH   9  12
ENDBRANCH   4   6
BRANCH   1  18
HETATM   18  C   UNL     1      -4.605 -12.728 -39.995  1.00  0.00     0.081 C 
HETATM   19  C   UNL     1      -4.752 -14.167 -40.494  1.00  0.00     0.032 C 
HETATM   20  C   UNL     1      -5.899 -11.933 -40.192  1.00  0.00     0.032 C 
ENDBRANCH   1  18
BRANCH   1  21
HETATM   21  C   UNL     1      -2.713 -12.172 -38.453  1.00  0.00     0.166 C 
BRANCH  21  22
HETATM   22  C   UNL     1      -1.629 -13.197 -38.713  1.00  0.00    -0.040 A 
HETATM   23  C   UNL     1      -1.114 -13.917 -37.622  1.00  0.00     0.009 A 
HETATM   24  C   UNL     1      -0.098 -14.859 -37.799  1.00  0.00     0.001 A 
HETATM   25  C   UNL     1       0.419 -15.096 -39.069  1.00  0.00     0.000 A 
HETATM   26  C   UNL     1      -0.082 -14.396 -40.163  1.00  0.00     0.001 A 
HETATM   27  C   UNL     1      -1.098 -13.455 -39.987  1.00  0.00     0.009 A 
ENDBRANCH  21  22
ENDBRANCH   1  21
TORSDOF 5
ENDMDL
