MODEL 1
REMARK VINA RESULT:      -7.8      0.000      0.000
REMARK  7 active torsions:
REMARK  status: ('A' for Active; 'I' for Inactive)
REMARK    1  A    between atoms: C_2  and  N_3 
REMARK    2  A    between atoms: C_2  and  C_17 
REMARK       I    between atoms: N_3  and  C_4 
REMARK    3  A    between atoms: C_4  and  C_5 
REMARK    4  A    between atoms: C_6  and  N_7 
REMARK    5  A    between atoms: C_17  and  O_18 
REMARK    6  A    between atoms: C_17  and  C_19 
REMARK    7  A    between atoms: C_22  and  O_23 
ROOT
HETATM    1  N   UNL     1      -7.878  -0.560 -33.328  1.00  0.00    -0.350 N 
HETATM    2  C   UNL     1      -7.022  -0.822 -34.373  1.00  0.00     0.255 C 
HETATM    3  O   UNL     1      -6.916  -0.104 -35.359  1.00  0.00    -0.268 OA
HETATM    4  H   UNL     1      -7.879  -1.184 -32.530  1.00  0.00     0.163 HD
ENDROOT
BRANCH   1   5
HETATM    5  C   UNL     1      -8.728   0.635 -33.221  1.00  0.00     0.114 C 
HETATM    6  C   UNL     1     -10.193   0.230 -33.048  1.00  0.00     0.035 C 
BRANCH   5   7
HETATM    7  C   UNL     1      -8.292   1.688 -32.149  1.00  0.00     0.173 C 
BRANCH   7   8
HETATM    8  O   UNL     1      -7.701   1.097 -30.992  1.00  0.00    -0.389 OA
HETATM    9  H   UNL     1      -8.181   1.455 -30.213  1.00  0.00     0.210 HD
ENDBRANCH   7   8
BRANCH   7  10
HETATM   10  C   UNL     1      -7.424   2.803 -32.703  1.00  0.00    -0.028 A 
HETATM   11  C   UNL     1      -6.091   2.545 -33.051  1.00  0.00     0.012 A 
HETATM   12  C   UNL     1      -5.280   3.559 -33.568  1.00  0.00     0.037 A 
HETATM   13  C   UNL     1      -5.782   4.848 -33.752  1.00  0.00     0.068 A 
HETATM   14  C   UNL     1      -7.100   5.122 -33.396  1.00  0.00     0.037 A 
HETATM   15  C   UNL     1      -7.914   4.106 -32.879  1.00  0.00     0.012 A 
BRANCH  13  16
HETATM   16  O   UNL     1      -4.889   5.743 -34.276  1.00  0.00    -0.356 OA
HETATM   17  C   UNL     1      -3.813   5.199 -35.032  1.00  0.00     0.210 C 
ENDBRANCH  13  16
ENDBRANCH   7  10
ENDBRANCH   5   7
ENDBRANCH   1   5
BRANCH   2  18
HETATM   18  C   UNL     1      -6.237  -2.066 -34.266  1.00  0.00     0.079 A 
HETATM   19  C   UNL     1      -5.003  -2.169 -33.618  1.00  0.00     0.165 A 
HETATM   20  N   UNL     1      -4.248  -3.310 -33.716  1.00  0.00    -0.241 NA
HETATM   21  C   UNL     1      -4.722  -4.351 -34.430  1.00  0.00     0.119 A 
HETATM   22  C   UNL     1      -5.936  -4.331 -35.084  1.00  0.00     0.020 A 
HETATM   23  C   UNL     1      -6.696  -3.169 -35.012  1.00  0.00     0.022 A 
BRANCH  19  24
HETATM   24  N   UNL     1      -4.466  -1.135 -32.773  1.00  0.00    -0.226 N 
HETATM   25  N   UNL     1      -5.119  -0.785 -31.623  1.00  0.00    -0.179 NA
HETATM   26  C   UNL     1      -4.365   0.162 -31.069  1.00  0.00     0.141 A 
HETATM   27  C   UNL     1      -3.270   0.509 -31.867  1.00  0.00     0.040 A 
HETATM   28  C   UNL     1      -3.380  -0.301 -32.972  1.00  0.00     0.122 A 
ENDBRANCH  19  24
ENDBRANCH   2  18
TORSDOF 7
ENDMDL
MODEL 2
REMARK VINA RESULT:      -7.4      3.093      7.135
REMARK  7 active torsions:
REMARK  status: ('A' for Active; 'I' for Inactive)
REMARK    1  A    between atoms: C_2  and  N_3 
REMARK    2  A    between atoms: C_2  and  C_17 
REMARK       I    between atoms: N_3  and  C_4 
REMARK    3  A    between atoms: C_4  and  C_5 
REMARK    4  A    between atoms: C_6  and  N_7 
REMARK    5  A    between atoms: C_17  and  O_18 
REMARK    6  A    between atoms: C_17  and  C_19 
REMARK    7  A    between atoms: C_22  and  O_23 
ROOT
HETATM    1  N   UNL     1      -5.131   2.675 -32.805  1.00  0.00    -0.350 N 
HETATM    2  C   UNL     1      -3.970   3.147 -32.234  1.00  0.00     0.255 C 
HETATM    3  O   UNL     1      -3.448   2.646 -31.246  1.00  0.00    -0.268 OA
HETATM    4  H   UNL     1      -5.477   3.123 -33.645  1.00  0.00     0.163 HD
ENDROOT
BRANCH   1   5
HETATM    5  C   UNL     1      -5.862   1.482 -32.352  1.00  0.00     0.114 C 
HETATM    6  C   UNL     1      -6.733   1.822 -31.142  1.00  0.00     0.035 C 
BRANCH   5   7
HETATM    7  C   UNL     1      -6.676   0.724 -33.452  1.00  0.00     0.173 C 
BRANCH   7   8
HETATM    8  O   UNL     1      -6.871   1.495 -34.636  1.00  0.00    -0.389 OA
HETATM    9  H   UNL     1      -5.990   1.845 -34.897  1.00  0.00     0.210 HD
ENDBRANCH   7   8
BRANCH   7  10
HETATM   10  C   UNL     1      -6.131  -0.656 -33.776  1.00  0.00    -0.028 A 
HETATM   11  C   UNL     1      -4.841  -1.013 -33.359  1.00  0.00     0.012 A 
HETATM   12  C   UNL     1      -4.326  -2.281 -33.644  1.00  0.00     0.037 A 
HETATM   13  C   UNL     1      -5.085  -3.218 -34.346  1.00  0.00     0.068 A 
HETATM   14  C   UNL     1      -6.363  -2.869 -34.780  1.00  0.00     0.037 A 
HETATM   15  C   UNL     1      -6.880  -1.600 -34.493  1.00  0.00     0.012 A 
BRANCH  13  16
HETATM   16  O   UNL     1      -4.470  -4.422 -34.548  1.00  0.00    -0.356 OA
HETATM   17  C   UNL     1      -3.428  -4.764 -33.640  1.00  0.00     0.210 C 
ENDBRANCH  13  16
ENDBRANCH   7  10
ENDBRANCH   5   7
ENDBRANCH   1   5
BRANCH   2  18
HETATM   18  C   UNL     1      -3.382   4.343 -32.865  1.00  0.00     0.079 A 
HETATM   19  C   UNL     1      -4.122   5.369 -33.459  1.00  0.00     0.165 A 
HETATM   20  N   UNL     1      -3.503   6.356 -34.183  1.00  0.00    -0.241 NA
HETATM   21  C   UNL     1      -2.160   6.342 -34.298  1.00  0.00     0.119 A 
HETATM   22  C   UNL     1      -1.361   5.374 -33.727  1.00  0.00     0.020 A 
HETATM   23  C   UNL     1      -1.982   4.354 -33.014  1.00  0.00     0.022 A 
BRANCH  19  24
HETATM   24  N   UNL     1      -5.548   5.499 -33.316  1.00  0.00    -0.226 N 
HETATM   25  N   UNL     1      -6.383   4.879 -34.204  1.00  0.00    -0.179 NA
HETATM   26  C   UNL     1      -7.613   5.171 -33.788  1.00  0.00     0.141 A 
HETATM   27  C   UNL     1      -7.615   6.041 -32.694  1.00  0.00     0.040 A 
HETATM   28  C   UNL     1      -6.285   6.273 -32.437  1.00  0.00     0.122 A 
ENDBRANCH  19  24
ENDBRANCH   2  18
TORSDOF 7
ENDMDL
MODEL 3
REMARK VINA RESULT:      -7.1      3.685      7.368
REMARK  7 active torsions:
REMARK  status: ('A' for Active; 'I' for Inactive)
REMARK    1  A    between atoms: C_2  and  N_3 
REMARK    2  A    between atoms: C_2  and  C_17 
REMARK       I    between atoms: N_3  and  C_4 
REMARK    3  A    between atoms: C_4  and  C_5 
REMARK    4  A    between atoms: C_6  and  N_7 
REMARK    5  A    between atoms: C_17  and  O_18 
REMARK    6  A    between atoms: C_17  and  C_19 
REMARK    7  A    between atoms: C_22  and  O_23 
ROOT
HETATM    1  N   UNL     1      -4.699   3.223 -32.552  1.00  0.00    -0.350 N 
HETATM    2  C   UNL     1      -3.410   3.506 -32.160  1.00  0.00     0.255 C 
HETATM    3  O   UNL     1      -2.768   2.809 -31.386  1.00  0.00    -0.268 OA
HETATM    4  H   UNL     1      -5.148   3.831 -33.227  1.00  0.00     0.163 HD
ENDROOT
BRANCH   1   5
HETATM    5  C   UNL     1      -5.453   2.026 -32.150  1.00  0.00     0.114 C 
HETATM    6  C   UNL     1      -6.191   2.281 -30.835  1.00  0.00     0.035 C 
BRANCH   5   7
HETATM    7  C   UNL     1      -6.403   1.423 -33.236  1.00  0.00     0.173 C 
BRANCH   7   8
HETATM    8  O   UNL     1      -6.544   2.259 -34.384  1.00  0.00    -0.389 OA
HETATM    9  H   UNL     1      -5.637   2.511 -34.666  1.00  0.00     0.210 HD
ENDBRANCH   7   8
BRANCH   7  10
HETATM   10  C   UNL     1      -6.056  -0.002 -33.631  1.00  0.00    -0.028 A 
HETATM   11  C   UNL     1      -7.027  -0.818 -34.228  1.00  0.00     0.012 A 
HETATM   12  C   UNL     1      -6.722  -2.129 -34.603  1.00  0.00     0.037 A 
HETATM   13  C   UNL     1      -5.445  -2.652 -34.393  1.00  0.00     0.068 A 
HETATM   14  C   UNL     1      -4.476  -1.857 -33.786  1.00  0.00     0.037 A 
HETATM   15  C   UNL     1      -4.780  -0.542 -33.412  1.00  0.00     0.012 A 
BRANCH  13  16
HETATM   16  O   UNL     1      -5.276  -3.942 -34.815  1.00  0.00    -0.356 OA
HETATM   17  C   UNL     1      -6.414  -4.580 -35.383  1.00  0.00     0.210 C 
ENDBRANCH  13  16
ENDBRANCH   7  10
ENDBRANCH   5   7
ENDBRANCH   1   5
BRANCH   2  18
HETATM   18  C   UNL     1      -2.829   4.748 -32.705  1.00  0.00     0.079 A 
HETATM   19  C   UNL     1      -3.184   6.035 -32.291  1.00  0.00     0.165 A 
HETATM   20  N   UNL     1      -2.736   7.141 -32.968  1.00  0.00    -0.241 NA
HETATM   21  C   UNL     1      -1.923   6.976 -34.031  1.00  0.00     0.119 A 
HETATM   22  C   UNL     1      -1.516   5.740 -34.488  1.00  0.00     0.020 A 
HETATM   23  C   UNL     1      -1.987   4.612 -33.825  1.00  0.00     0.022 A 
BRANCH  19  24
HETATM   24  N   UNL     1      -3.980   6.298 -31.122  1.00  0.00    -0.226 N 
HETATM   25  N   UNL     1      -3.377   6.436 -29.902  1.00  0.00    -0.179 NA
HETATM   26  C   UNL     1      -4.368   6.692 -29.051  1.00  0.00     0.141 A 
HETATM   27  C   UNL     1      -5.624   6.644 -29.662  1.00  0.00     0.040 A 
HETATM   28  C   UNL     1      -5.355   6.346 -30.976  1.00  0.00     0.122 A 
ENDBRANCH  19  24
ENDBRANCH   2  18
TORSDOF 7
ENDMDL
MODEL 4
REMARK VINA RESULT:      -7.0      4.746      7.559
REMARK  7 active torsions:
REMARK  status: ('A' for Active; 'I' for Inactive)
REMARK    1  A    between atoms: C_2  and  N_3 
REMARK    2  A    between atoms: C_2  and  C_17 
REMARK       I    between atoms: N_3  and  C_4 
REMARK    3  A    between atoms: C_4  and  C_5 
REMARK    4  A    between atoms: C_6  and  N_7 
REMARK    5  A    between atoms: C_17  and  O_18 
REMARK    6  A    between atoms: C_17  and  C_19 
REMARK    7  A    between atoms: C_22  and  O_23 
ROOT
HETATM    1  N   UNL     1      -2.742   5.058 -32.786  1.00  0.00    -0.350 N 
HETATM    2  C   UNL     1      -2.751   4.262 -31.664  1.00  0.00     0.255 C 
HETATM    3  O   UNL     1      -1.749   3.734 -31.199  1.00  0.00    -0.268 OA
HETATM    4  H   UNL     1      -3.609   5.489 -33.085  1.00  0.00     0.163 HD
ENDROOT
BRANCH   1   5
HETATM    5  C   UNL     1      -1.535   5.433 -33.538  1.00  0.00     0.114 C 
HETATM    6  C   UNL     1      -1.726   5.143 -35.027  1.00  0.00     0.035 C 
BRANCH   5   7
HETATM    7  C   UNL     1      -1.006   6.886 -33.298  1.00  0.00     0.173 C 
BRANCH   7   8
HETATM    8  O   UNL     1      -1.780   7.881 -33.965  1.00  0.00    -0.389 OA
HETATM    9  H   UNL     1      -1.647   8.722 -33.474  1.00  0.00     0.210 HD
ENDBRANCH   7   8
BRANCH   7  10
HETATM   10  C   UNL     1      -0.810   7.231 -31.832  1.00  0.00    -0.028 A 
HETATM   11  C   UNL     1       0.331   6.778 -31.154  1.00  0.00     0.012 A 
HETATM   12  C   UNL     1       0.530   7.092 -29.807  1.00  0.00     0.037 A 
HETATM   13  C   UNL     1      -0.400   7.866 -29.110  1.00  0.00     0.068 A 
HETATM   14  C   UNL     1      -1.545   8.308 -29.768  1.00  0.00     0.037 A 
HETATM   15  C   UNL     1      -1.745   7.996 -31.118  1.00  0.00     0.012 A 
BRANCH  13  16
HETATM   16  O   UNL     1      -0.080   8.110 -27.803  1.00  0.00    -0.356 OA
HETATM   17  C   UNL     1       1.306   8.177 -27.489  1.00  0.00     0.210 C 
ENDBRANCH  13  16
ENDBRANCH   7  10
ENDBRANCH   5   7
ENDBRANCH   1   5
BRANCH   2  18
HETATM   18  C   UNL     1      -4.070   4.036 -31.045  1.00  0.00     0.079 A 
HETATM   19  C   UNL     1      -4.777   2.832 -31.107  1.00  0.00     0.165 A 
HETATM   20  N   UNL     1      -6.074   2.752 -30.665  1.00  0.00    -0.241 NA
HETATM   21  C   UNL     1      -6.658   3.849 -30.143  1.00  0.00     0.119 A 
HETATM   22  C   UNL     1      -6.020   5.067 -30.032  1.00  0.00     0.020 A 
HETATM   23  C   UNL     1      -4.715   5.164 -30.502  1.00  0.00     0.022 A 
BRANCH  19  24
HETATM   24  N   UNL     1      -4.200   1.600 -31.576  1.00  0.00    -0.226 N 
HETATM   25  N   UNL     1      -3.387   0.870 -30.753  1.00  0.00    -0.179 NA
HETATM   26  C   UNL     1      -3.046  -0.203 -31.464  1.00  0.00     0.141 A 
HETATM   27  C   UNL     1      -3.544  -0.161 -32.769  1.00  0.00     0.040 A 
HETATM   28  C   UNL     1      -4.241   1.022 -32.833  1.00  0.00     0.122 A 
ENDBRANCH  19  24
ENDBRANCH   2  18
TORSDOF 7
ENDMDL
MODEL 5
REMARK VINA RESULT:      -6.8      3.334      7.845
REMARK  7 active torsions:
REMARK  status: ('A' for Active; 'I' for Inactive)
REMARK    1  A    between atoms: C_2  and  N_3 
REMARK    2  A    between atoms: C_2  and  C_17 
REMARK       I    between atoms: N_3  and  C_4 
REMARK    3  A    between atoms: C_4  and  C_5 
REMARK    4  A    between atoms: C_6  and  N_7 
REMARK    5  A    between atoms: C_17  and  O_18 
REMARK    6  A    between atoms: C_17  and  C_19 
REMARK    7  A    between atoms: C_22  and  O_23 
ROOT
HETATM    1  N   UNL     1      -9.217   1.816 -34.310  1.00  0.00    -0.350 N 
HETATM    2  C   UNL     1      -9.537   2.899 -33.523  1.00  0.00     0.255 C 
HETATM    3  O   UNL     1      -9.232   2.993 -32.341  1.00  0.00    -0.268 OA
HETATM    4  H   UNL     1      -9.473   1.833 -35.290  1.00  0.00     0.163 HD
ENDROOT
BRANCH   1   5
HETATM    5  C   UNL     1      -8.421   0.663 -33.864  1.00  0.00     0.114 C 
HETATM    6  C   UNL     1      -9.289  -0.298 -33.050  1.00  0.00     0.035 C 
BRANCH   5   7
HETATM    7  C   UNL     1      -7.624  -0.088 -34.981  1.00  0.00     0.173 C 
BRANCH   7   8
HETATM    8  O   UNL     1      -7.165   0.776 -36.019  1.00  0.00    -0.389 OA
HETATM    9  H   UNL     1      -7.337   1.696 -35.720  1.00  0.00     0.210 HD
ENDBRANCH   7   8
BRANCH   7  10
HETATM   10  C   UNL     1      -6.499  -0.959 -34.451  1.00  0.00    -0.028 A 
HETATM   11  C   UNL     1      -6.391  -2.293 -34.868  1.00  0.00     0.012 A 
HETATM   12  C   UNL     1      -5.359  -3.107 -34.394  1.00  0.00     0.037 A 
HETATM   13  C   UNL     1      -4.411  -2.608 -33.499  1.00  0.00     0.068 A 
HETATM   14  C   UNL     1      -4.517  -1.288 -33.064  1.00  0.00     0.037 A 
HETATM   15  C   UNL     1      -5.550  -0.472 -33.540  1.00  0.00     0.012 A 
BRANCH  13  16
HETATM   16  O   UNL     1      -3.448  -3.503 -33.123  1.00  0.00    -0.356 OA
HETATM   17  C   UNL     1      -3.531  -4.803 -33.695  1.00  0.00     0.210 C 
ENDBRANCH  13  16
ENDBRANCH   7  10
ENDBRANCH   5   7
ENDBRANCH   1   5
BRANCH   2  18
HETATM   18  C   UNL     1     -10.320   3.963 -34.179  1.00  0.00     0.079 A 
HETATM   19  C   UNL     1     -11.643   3.822 -34.606  1.00  0.00     0.165 A 
HETATM   20  N   UNL     1     -12.245   4.791 -35.369  1.00  0.00    -0.241 NA
HETATM   21  C   UNL     1     -11.550   5.902 -35.686  1.00  0.00     0.119 A 
HETATM   22  C   UNL     1     -10.248   6.120 -35.288  1.00  0.00     0.020 A 
HETATM   23  C   UNL     1      -9.621   5.132 -34.537  1.00  0.00     0.022 A 
BRANCH  19  24
HETATM   24  N   UNL     1     -12.476   2.706 -34.243  1.00  0.00    -0.226 N 
HETATM   25  N   UNL     1     -12.484   1.579 -35.019  1.00  0.00    -0.179 NA
HETATM   26  C   UNL     1     -13.321   0.743 -34.410  1.00  0.00     0.141 A 
HETATM   27  C   UNL     1     -13.935   1.319 -33.294  1.00  0.00     0.040 A 
HETATM   28  C   UNL     1     -13.414   2.589 -33.233  1.00  0.00     0.122 A 
ENDBRANCH  19  24
ENDBRANCH   2  18
TORSDOF 7
ENDMDL
MODEL 6
REMARK VINA RESULT:      -6.8      2.383      6.953
REMARK  7 active torsions:
REMARK  status: ('A' for Active; 'I' for Inactive)
REMARK    1  A    between atoms: C_2  and  N_3 
REMARK    2  A    between atoms: C_2  and  C_17 
REMARK       I    between atoms: N_3  and  C_4 
REMARK    3  A    between atoms: C_4  and  C_5 
REMARK    4  A    between atoms: C_6  and  N_7 
REMARK    5  A    between atoms: C_17  and  O_18 
REMARK    6  A    between atoms: C_17  and  C_19 
REMARK    7  A    between atoms: C_22  and  O_23 
ROOT
HETATM    1  N   UNL     1      -5.858   2.781 -31.994  1.00  0.00    -0.350 N 
HETATM    2  C   UNL     1      -6.475   3.316 -33.103  1.00  0.00     0.255 C 
HETATM    3  O   UNL     1      -6.078   3.146 -34.248  1.00  0.00    -0.268 OA
HETATM    4  H   UNL     1      -6.273   2.937 -31.083  1.00  0.00     0.163 HD
ENDROOT
BRANCH   1   5
HETATM    5  C   UNL     1      -4.687   1.892 -32.035  1.00  0.00     0.114 C 
HETATM    6  C   UNL     1      -3.481   2.574 -31.387  1.00  0.00     0.035 C 
BRANCH   5   7
HETATM    7  C   UNL     1      -4.907   0.451 -31.468  1.00  0.00     0.173 C 
BRANCH   7   8
HETATM    8  O   UNL     1      -5.957   0.381 -30.505  1.00  0.00    -0.389 OA
HETATM    9  H   UNL     1      -5.752  -0.377 -29.915  1.00  0.00     0.210 HD
ENDBRANCH   7   8
BRANCH   7  10
HETATM   10  C   UNL     1      -5.071  -0.611 -32.541  1.00  0.00    -0.028 A 
HETATM   11  C   UNL     1      -6.197  -0.593 -33.376  1.00  0.00     0.012 A 
HETATM   12  C   UNL     1      -6.361  -1.559 -34.372  1.00  0.00     0.037 A 
HETATM   13  C   UNL     1      -5.406  -2.560 -34.558  1.00  0.00     0.068 A 
HETATM   14  C   UNL     1      -4.290  -2.598 -33.725  1.00  0.00     0.037 A 
HETATM   15  C   UNL     1      -4.124  -1.629 -32.728  1.00  0.00     0.012 A 
BRANCH  13  16
HETATM   16  O   UNL     1      -5.680  -3.435 -35.573  1.00  0.00    -0.356 OA
HETATM   17  C   UNL     1      -6.459  -4.577 -35.235  1.00  0.00     0.210 C 
ENDBRANCH  13  16
ENDBRANCH   7  10
ENDBRANCH   5   7
ENDBRANCH   1   5
BRANCH   2  18
HETATM   18  C   UNL     1      -7.656   4.159 -32.839  1.00  0.00     0.079 A 
HETATM   19  C   UNL     1      -8.963   3.676 -32.727  1.00  0.00     0.165 A 
HETATM   20  N   UNL     1     -10.029   4.538 -32.663  1.00  0.00    -0.241 NA
HETATM   21  C   UNL     1      -9.802   5.866 -32.685  1.00  0.00     0.119 A 
HETATM   22  C   UNL     1      -8.541   6.418 -32.776  1.00  0.00     0.020 A 
HETATM   23  C   UNL     1      -7.456   5.552 -32.869  1.00  0.00     0.022 A 
BRANCH  19  24
HETATM   24  N   UNL     1      -9.283   2.278 -32.617  1.00  0.00    -0.226 N 
HETATM   25  N   UNL     1      -8.783   1.542 -31.578  1.00  0.00    -0.179 NA
HETATM   26  C   UNL     1      -9.276   0.318 -31.749  1.00  0.00     0.141 A 
HETATM   27  C   UNL     1     -10.022   0.201 -32.925  1.00  0.00     0.040 A 
HETATM   28  C   UNL     1      -9.976   1.454 -33.487  1.00  0.00     0.122 A 
ENDBRANCH  19  24
ENDBRANCH   2  18
TORSDOF 7
ENDMDL
MODEL 7
REMARK VINA RESULT:      -6.7     14.286     16.346
REMARK  7 active torsions:
REMARK  status: ('A' for Active; 'I' for Inactive)
REMARK    1  A    between atoms: C_2  and  N_3 
REMARK    2  A    between atoms: C_2  and  C_17 
REMARK       I    between atoms: N_3  and  C_4 
REMARK    3  A    between atoms: C_4  and  C_5 
REMARK    4  A    between atoms: C_6  and  N_7 
REMARK    5  A    between atoms: C_17  and  O_18 
REMARK    6  A    between atoms: C_17  and  C_19 
REMARK    7  A    between atoms: C_22  and  O_23 
ROOT
HETATM    1  N   UNL     1      -6.648 -13.013 -38.639  1.00  0.00    -0.350 N 
HETATM    2  C   UNL     1      -6.344 -14.055 -37.793  1.00  0.00     0.255 C 
HETATM    3  O   UNL     1      -6.299 -15.226 -38.147  1.00  0.00    -0.268 OA
HETATM    4  H   UNL     1      -6.626 -12.068 -38.276  1.00  0.00     0.163 HD
ENDROOT
BRANCH   1   5
HETATM    5  C   UNL     1      -6.898 -13.152 -40.082  1.00  0.00     0.114 C 
HETATM    6  C   UNL     1      -8.287 -12.616 -40.433  1.00  0.00     0.035 C 
BRANCH   5   7
HETATM    7  C   UNL     1      -5.798 -12.562 -41.024  1.00  0.00     0.173 C 
BRANCH   7   8
HETATM    8  O   UNL     1      -5.050 -11.507 -40.420  1.00  0.00    -0.389 OA
HETATM    9  H   UNL     1      -5.543 -11.234 -39.615  1.00  0.00     0.210 HD
ENDBRANCH   7   8
BRANCH   7  10
HETATM   10  C   UNL     1      -4.882 -13.611 -41.629  1.00  0.00    -0.028 A 
HETATM   11  C   UNL     1      -3.794 -14.099 -40.892  1.00  0.00     0.012 A 
HETATM   12  C   UNL     1      -2.945 -15.069 -41.431  1.00  0.00     0.037 A 
HETATM   13  C   UNL     1      -3.164 -15.573 -42.714  1.00  0.00     0.068 A 
HETATM   14  C   UNL     1      -4.232 -15.085 -43.463  1.00  0.00     0.037 A 
HETATM   15  C   UNL     1      -5.084 -14.114 -42.923  1.00  0.00     0.012 A 
BRANCH  13  16
HETATM   16  O   UNL     1      -2.268 -16.525 -43.118  1.00  0.00    -0.356 OA
HETATM   17  C   UNL     1      -1.475 -17.124 -42.100  1.00  0.00     0.210 C 
ENDBRANCH  13  16
ENDBRANCH   7  10
ENDBRANCH   5   7
ENDBRANCH   1   5
BRANCH   2  18
HETATM   18  C   UNL     1      -6.099 -13.691 -36.385  1.00  0.00     0.079 A 
HETATM   19  C   UNL     1      -4.840 -13.404 -35.850  1.00  0.00     0.165 A 
HETATM   20  N   UNL     1      -4.667 -13.251 -34.497  1.00  0.00    -0.241 NA
HETATM   21  C   UNL     1      -5.736 -13.358 -33.683  1.00  0.00     0.119 A 
HETATM   22  C   UNL     1      -7.011 -13.623 -34.137  1.00  0.00     0.020 A 
HETATM   23  C   UNL     1      -7.191 -13.805 -35.504  1.00  0.00     0.022 A 
BRANCH  19  24
HETATM   24  N   UNL     1      -3.667 -13.195 -36.657  1.00  0.00    -0.226 N 
HETATM   25  N   UNL     1      -3.647 -12.193 -37.588  1.00  0.00    -0.179 NA
HETATM   26  C   UNL     1      -2.435 -12.250 -38.135  1.00  0.00     0.141 A 
HETATM   27  C   UNL     1      -1.678 -13.321 -37.649  1.00  0.00     0.040 A 
HETATM   28  C   UNL     1      -2.502 -13.938 -36.738  1.00  0.00     0.122 A 
ENDBRANCH  19  24
ENDBRANCH   2  18
TORSDOF 7
ENDMDL
MODEL 8
REMARK VINA RESULT:      -6.6      3.594      7.561
REMARK  7 active torsions:
REMARK  status: ('A' for Active; 'I' for Inactive)
REMARK    1  A    between atoms: C_2  and  N_3 
REMARK    2  A    between atoms: C_2  and  C_17 
REMARK       I    between atoms: N_3  and  C_4 
REMARK    3  A    between atoms: C_4  and  C_5 
REMARK    4  A    between atoms: C_6  and  N_7 
REMARK    5  A    between atoms: C_17  and  O_18 
REMARK    6  A    between atoms: C_17  and  C_19 
REMARK    7  A    between atoms: C_22  and  O_23 
ROOT
HETATM    1  N   UNL     1      -9.960   0.865 -33.291  1.00  0.00    -0.350 N 
HETATM    2  C   UNL     1     -10.644   1.840 -33.980  1.00  0.00     0.255 C 
HETATM    3  O   UNL     1     -10.100   2.686 -34.677  1.00  0.00    -0.268 OA
HETATM    4  H   UNL     1     -10.488   0.177 -32.766  1.00  0.00     0.163 HD
ENDROOT
BRANCH   1   5
HETATM    5  C   UNL     1      -8.504   0.666 -33.344  1.00  0.00     0.114 C 
HETATM    6  C   UNL     1      -8.021  -0.059 -32.087  1.00  0.00     0.035 C 
BRANCH   5   7
HETATM    7  C   UNL     1      -7.955  -0.008 -34.645  1.00  0.00     0.173 C 
BRANCH   7   8
HETATM    8  O   UNL     1      -7.645   0.929 -35.674  1.00  0.00    -0.389 OA
HETATM    9  H   UNL     1      -8.447   1.480 -35.809  1.00  0.00     0.210 HD
ENDBRANCH   7   8
BRANCH   7  10
HETATM   10  C   UNL     1      -6.799  -0.961 -34.399  1.00  0.00    -0.028 A 
HETATM   11  C   UNL     1      -5.583  -0.472 -33.902  1.00  0.00     0.012 A 
HETATM   12  C   UNL     1      -4.511  -1.336 -33.665  1.00  0.00     0.037 A 
HETATM   13  C   UNL     1      -4.629  -2.705 -33.915  1.00  0.00     0.068 A 
HETATM   14  C   UNL     1      -5.828  -3.201 -34.423  1.00  0.00     0.037 A 
HETATM   15  C   UNL     1      -6.903  -2.336 -34.660  1.00  0.00     0.012 A 
BRANCH  13  16
HETATM   16  O   UNL     1      -3.512  -3.440 -33.630  1.00  0.00    -0.356 OA
HETATM   17  C   UNL     1      -3.676  -4.853 -33.583  1.00  0.00     0.210 C 
ENDBRANCH  13  16
ENDBRANCH   7  10
ENDBRANCH   5   7
ENDBRANCH   1   5
BRANCH   2  18
HETATM   18  C   UNL     1     -12.109   1.843 -33.809  1.00  0.00     0.079 A 
HETATM   19  C   UNL     1     -12.808   2.734 -32.990  1.00  0.00     0.165 A 
HETATM   20  N   UNL     1     -14.146   2.560 -32.740  1.00  0.00    -0.241 NA
HETATM   21  C   UNL     1     -14.793   1.527 -33.316  1.00  0.00     0.119 A 
HETATM   22  C   UNL     1     -14.176   0.616 -34.148  1.00  0.00     0.020 A 
HETATM   23  C   UNL     1     -12.814   0.768 -34.386  1.00  0.00     0.022 A 
BRANCH  19  24
HETATM   24  N   UNL     1     -12.210   3.904 -32.404  1.00  0.00    -0.226 N 
HETATM   25  N   UNL     1     -12.152   5.071 -33.116  1.00  0.00    -0.179 NA
HETATM   26  C   UNL     1     -11.575   5.949 -32.300  1.00  0.00     0.141 A 
HETATM   27  C   UNL     1     -11.171   5.371 -31.092  1.00  0.00     0.040 A 
HETATM   28  C   UNL     1     -11.547   4.054 -31.199  1.00  0.00     0.122 A 
ENDBRANCH  19  24
ENDBRANCH   2  18
TORSDOF 7
ENDMDL
MODEL 9
REMARK VINA RESULT:      -6.5      1.963      2.658
REMARK  7 active torsions:
REMARK  status: ('A' for Active; 'I' for Inactive)
REMARK    1  A    between atoms: C_2  and  N_3 
REMARK    2  A    between atoms: C_2  and  C_17 
REMARK       I    between atoms: N_3  and  C_4 
REMARK    3  A    between atoms: C_4  and  C_5 
REMARK    4  A    between atoms: C_6  and  N_7 
REMARK    5  A    between atoms: C_17  and  O_18 
REMARK    6  A    between atoms: C_17  and  C_19 
REMARK    7  A    between atoms: C_22  and  O_23 
ROOT
HETATM    1  N   UNL     1      -8.006  -0.440 -33.118  1.00  0.00    -0.350 N 
HETATM    2  C   UNL     1      -7.132  -0.600 -34.169  1.00  0.00     0.255 C 
HETATM    3  O   UNL     1      -7.022   0.200 -35.089  1.00  0.00    -0.268 OA
HETATM    4  H   UNL     1      -8.009  -1.130 -32.376  1.00  0.00     0.163 HD
ENDROOT
BRANCH   1   5
HETATM    5  C   UNL     1      -8.876   0.731 -32.924  1.00  0.00     0.114 C 
HETATM    6  C   UNL     1     -10.304   0.410 -33.367  1.00  0.00     0.035 C 
BRANCH   5   7
HETATM    7  C   UNL     1      -8.846   1.371 -31.497  1.00  0.00     0.173 C 
BRANCH   7   8
HETATM    8  O   UNL     1      -7.715   0.971 -30.726  1.00  0.00    -0.389 OA
HETATM    9  H   UNL     1      -7.880   0.046 -30.437  1.00  0.00     0.210 HD
ENDBRANCH   7   8
BRANCH   7  10
HETATM   10  C   UNL     1      -9.005   2.881 -31.500  1.00  0.00    -0.028 A 
HETATM   11  C   UNL     1      -9.585   3.526 -30.399  1.00  0.00     0.012 A 
HETATM   12  C   UNL     1      -9.732   4.916 -30.383  1.00  0.00     0.037 A 
HETATM   13  C   UNL     1      -9.303   5.690 -31.462  1.00  0.00     0.068 A 
HETATM   14  C   UNL     1      -8.739   5.060 -32.569  1.00  0.00     0.037 A 
HETATM   15  C   UNL     1      -8.589   3.668 -32.585  1.00  0.00     0.012 A 
BRANCH  13  16
HETATM   16  O   UNL     1      -9.494   7.037 -31.315  1.00  0.00    -0.356 OA
HETATM   17  C   UNL     1     -10.666   7.439 -30.614  1.00  0.00     0.210 C 
ENDBRANCH  13  16
ENDBRANCH   7  10
ENDBRANCH   5   7
ENDBRANCH   1   5
BRANCH   2  18
HETATM   18  C   UNL     1      -6.329  -1.837 -34.156  1.00  0.00     0.079 A 
HETATM   19  C   UNL     1      -5.068  -1.956 -33.566  1.00  0.00     0.165 A 
HETATM   20  N   UNL     1      -4.306  -3.082 -33.751  1.00  0.00    -0.241 NA
HETATM   21  C   UNL     1      -4.799  -4.093 -34.495  1.00  0.00     0.119 A 
HETATM   22  C   UNL     1      -6.040  -4.057 -35.094  1.00  0.00     0.020 A 
HETATM   23  C   UNL     1      -6.808  -2.909 -34.934  1.00  0.00     0.022 A 
BRANCH  19  24
HETATM   24  N   UNL     1      -4.506  -0.957 -32.695  1.00  0.00    -0.226 N 
HETATM   25  N   UNL     1      -5.137  -0.639 -31.524  1.00  0.00    -0.179 NA
HETATM   26  C   UNL     1      -4.363   0.281 -30.951  1.00  0.00     0.141 A 
HETATM   27  C   UNL     1      -3.278   0.643 -31.754  1.00  0.00     0.040 A 
HETATM   28  C   UNL     1      -3.414  -0.129 -32.884  1.00  0.00     0.122 A 
ENDBRANCH  19  24
ENDBRANCH   2  18
TORSDOF 7
ENDMDL
MODEL 10
REMARK VINA RESULT:      -6.5     14.680     16.889
REMARK  7 active torsions:
REMARK  status: ('A' for Active; 'I' for Inactive)
REMARK    1  A    between atoms: C_2  and  N_3 
REMARK    2  A    between atoms: C_2  and  C_17 
REMARK       I    between atoms: N_3  and  C_4 
REMARK    3  A    between atoms: C_4  and  C_5 
REMARK    4  A    between atoms: C_6  and  N_7 
REMARK    5  A    between atoms: C_17  and  O_18 
REMARK    6  A    between atoms: C_17  and  C_19 
REMARK    7  A    between atoms: C_22  and  O_23 
ROOT
HETATM    1  N   UNL     1      -4.411 -12.715 -39.866  1.00  0.00    -0.350 N 
HETATM    2  C   UNL     1      -3.521 -13.158 -38.914  1.00  0.00     0.255 C 
HETATM    3  O   UNL     1      -3.741 -13.119 -37.710  1.00  0.00    -0.268 OA
HETATM    4  H   UNL     1      -4.169 -12.817 -40.845  1.00  0.00     0.163 HD
ENDROOT
BRANCH   1   5
HETATM    5  C   UNL     1      -5.757 -12.198 -39.578  1.00  0.00     0.114 C 
HETATM    6  C   UNL     1      -6.475 -11.834 -40.879  1.00  0.00     0.035 C 
BRANCH   5   7
HETATM    7  C   UNL     1      -6.650 -13.096 -38.660  1.00  0.00     0.173 C 
BRANCH   7   8
HETATM    8  O   UNL     1      -6.849 -12.545 -37.359  1.00  0.00    -0.389 OA
HETATM    9  H   UNL     1      -5.958 -12.415 -36.967  1.00  0.00     0.210 HD
ENDBRANCH   7   8
BRANCH   7  10
HETATM   10  C   UNL     1      -7.969 -13.500 -39.295  1.00  0.00    -0.028 A 
HETATM   11  C   UNL     1      -9.121 -12.735 -39.063  1.00  0.00     0.012 A 
HETATM   12  C   UNL     1     -10.341 -13.089 -39.644  1.00  0.00     0.037 A 
HETATM   13  C   UNL     1     -10.438 -14.210 -40.470  1.00  0.00     0.068 A 
HETATM   14  C   UNL     1      -9.305 -14.988 -40.696  1.00  0.00     0.037 A 
HETATM   15  C   UNL     1      -8.081 -14.633 -40.115  1.00  0.00     0.012 A 
BRANCH  13  16
HETATM   16  O   UNL     1     -11.685 -14.440 -40.984  1.00  0.00    -0.356 OA
HETATM   17  C   UNL     1     -11.788 -15.459 -41.972  1.00  0.00     0.210 C 
ENDBRANCH  13  16
ENDBRANCH   7  10
ENDBRANCH   5   7
ENDBRANCH   1   5
BRANCH   2  18
HETATM   18  C   UNL     1      -2.234 -13.667 -39.423  1.00  0.00     0.079 A 
HETATM   19  C   UNL     1      -2.100 -14.531 -40.512  1.00  0.00     0.165 A 
HETATM   20  N   UNL     1      -0.890 -15.105 -40.813  1.00  0.00    -0.241 NA
HETATM   21  C   UNL     1       0.184 -14.805 -40.056  1.00  0.00     0.119 A 
HETATM   22  C   UNL     1       0.135 -13.949 -38.976  1.00  0.00     0.020 A 
HETATM   23  C   UNL     1      -1.093 -13.384 -38.647  1.00  0.00     0.022 A 
BRANCH  19  24
HETATM   24  N   UNL     1      -3.178 -14.838 -41.415  1.00  0.00    -0.226 N 
HETATM   25  N   UNL     1      -3.490 -13.971 -42.426  1.00  0.00    -0.179 NA
HETATM   26  C   UNL     1      -4.495 -14.547 -43.082  1.00  0.00     0.141 A 
HETATM   27  C   UNL     1      -4.915 -15.736 -42.478  1.00  0.00     0.040 A 
HETATM   28  C   UNL     1      -4.089 -15.879 -41.389  1.00  0.00     0.122 A 
ENDBRANCH  19  24
ENDBRANCH   2  18
TORSDOF 7
ENDMDL
