MODEL 1
REMARK VINA RESULT:     -10.2      0.000      0.000
REMARK  9 active torsions:
REMARK  status: ('A' for Active; 'I' for Inactive)
REMARK    1  A    between atoms: O_2  and  C_3 
REMARK    2  A    between atoms: C_6  and  C_7 
REMARK    3  A    between atoms: C_8  and  C_9 
REMARK    4  A    between atoms: C_9  and  O_10 
REMARK    5  A    between atoms: O_10  and  C_11 
REMARK    6  A    between atoms: C_14  and  C_15 
REMARK    7  A    between atoms: C_17  and  O_18 
REMARK    8  A    between atoms: N_26  and  C_28 
REMARK    9  A    between atoms: C_28  and  C_29 
ROOT
HETATM    1  C   UNL     1      -1.601   5.519 -32.500  1.00  0.00     0.243 C 
HETATM    2  N   UNL     1      -0.391   4.829 -31.979  1.00  0.00    -0.235 NA
HETATM    3  C   UNL     1       0.032   5.295 -30.858  1.00  0.00     0.173 C 
HETATM    4  C   UNL     1      -0.515   6.447 -30.184  1.00  0.00     0.057 A 
HETATM    5  C   UNL     1      -1.303   7.276 -30.946  1.00  0.00     0.087 A 
HETATM    6  S   UNL     1      -1.872   8.625 -30.094  1.00  0.00    -0.074 SA
HETATM    7  C   UNL     1      -1.157   8.063 -28.653  1.00  0.00     0.018 A 
HETATM    8  C   UNL     1      -0.441   6.888 -28.831  1.00  0.00    -0.024 A 
HETATM    9  C   UNL     1       0.251   6.210 -27.689  1.00  0.00     0.068 C 
HETATM   10  C   UNL     1      -0.263   6.732 -26.336  1.00  0.00     0.240 C 
HETATM   11  N   UNL     1      -0.363   8.258 -26.305  1.00  0.00    -0.063 N 
HETATM   12  H   UNL     1      -0.757   8.501 -25.391  1.00  0.00     0.280 HD
HETATM   13  C   UNL     1      -1.354   8.757 -27.350  1.00  0.00     0.282 C 
HETATM   14  N   UNL     1      -1.600   6.965 -32.226  1.00  0.00    -0.357 N 
HETATM   15  H   UNL     1      -2.324   7.489 -32.705  1.00  0.00     0.162 HD
ENDROOT
BRANCH   1  16
HETATM   16  C   UNL     1      -2.900   4.889 -31.953  1.00  0.00    -0.014 A 
HETATM   17  C   UNL     1      -4.089   5.641 -31.851  1.00  0.00     0.014 A 
HETATM   18  C   UNL     1      -5.306   5.028 -31.547  1.00  0.00     0.038 A 
HETATM   19  C   UNL     1      -5.335   3.654 -31.339  1.00  0.00     0.079 A 
HETATM   20  C   UNL     1      -4.163   2.907 -31.305  1.00  0.00     0.038 A 
HETATM   21  C   UNL     1      -2.948   3.525 -31.602  1.00  0.00     0.014 A 
BRANCH  19  22
HETATM   22  O   UNL     1      -6.541   2.985 -31.141  1.00  0.00    -0.276 OA
BRANCH  22  23
HETATM   23  C   UNL     1      -7.097   2.546 -32.330  1.00  0.00     0.288 C 
HETATM   24  O   UNL     1      -7.772   3.187 -33.126  1.00  0.00    -0.260 OA
BRANCH  23  25
HETATM   25  C   UNL     1      -6.752   1.131 -32.591  1.00  0.00     0.083 C 
HETATM   26  C   UNL     1      -6.116   0.700 -33.690  1.00  0.00     0.017 C 
BRANCH  26  27
HETATM   27  C   UNL     1      -5.910  -0.723 -33.979  1.00  0.00    -0.036 A 
HETATM   28  C   UNL     1      -4.677  -1.301 -33.660  1.00  0.00     0.014 A 
HETATM   29  C   UNL     1      -4.439  -2.652 -33.925  1.00  0.00     0.037 A 
HETATM   30  C   UNL     1      -5.432  -3.451 -34.495  1.00  0.00     0.068 A 
HETATM   31  C   UNL     1      -6.669  -2.885 -34.800  1.00  0.00     0.037 A 
HETATM   32  C   UNL     1      -6.908  -1.529 -34.539  1.00  0.00     0.014 A 
BRANCH  30  33
HETATM   33  O   UNL     1      -5.065  -4.750 -34.703  1.00  0.00    -0.356 OA
HETATM   34  C   UNL     1      -4.019  -5.264 -33.888  1.00  0.00     0.210 C 
ENDBRANCH  30  33
ENDBRANCH  26  27
ENDBRANCH  23  25
ENDBRANCH  22  23
ENDBRANCH  19  22
ENDBRANCH   1  16
BRANCH   3  35
HETATM   35  O   UNL     1       1.068   4.684 -30.255  1.00  0.00    -0.344 OA
HETATM   36  H   UNL     1       1.463   5.340 -29.654  1.00  0.00     0.219 HD
ENDBRANCH   3  35
BRANCH  11  37
HETATM   37  C   UNL     1       0.960   8.986 -26.395  1.00  0.00     0.273 C 
BRANCH  37  38
HETATM   38  C   UNL     1       1.602   9.226 -25.056  1.00  0.00    -0.033 A 
HETATM   39  C   UNL     1       0.855   9.780 -24.004  1.00  0.00     0.009 A 
HETATM   40  C   UNL     1       1.455  10.041 -22.772  1.00  0.00     0.001 A 
HETATM   41  C   UNL     1       2.803   9.751 -22.577  1.00  0.00     0.000 A 
HETATM   42  C   UNL     1       3.553   9.191 -23.610  1.00  0.00     0.001 A 
HETATM   43  C   UNL     1       2.957   8.927 -24.844  1.00  0.00     0.009 A 
ENDBRANCH  37  38
ENDBRANCH  11  37
TORSDOF 9
ENDMDL
MODEL 2
REMARK VINA RESULT:      -9.6      2.892     12.884
REMARK  9 active torsions:
REMARK  status: ('A' for Active; 'I' for Inactive)
REMARK    1  A    between atoms: O_2  and  C_3 
REMARK    2  A    between atoms: C_6  and  C_7 
REMARK    3  A    between atoms: C_8  and  C_9 
REMARK    4  A    between atoms: C_9  and  O_10 
REMARK    5  A    between atoms: O_10  and  C_11 
REMARK    6  A    between atoms: C_14  and  C_15 
REMARK    7  A    between atoms: C_17  and  O_18 
REMARK    8  A    between atoms: N_26  and  C_28 
REMARK    9  A    between atoms: C_28  and  C_29 
ROOT
HETATM    1  C   UNL     1      -2.555   7.858 -31.559  1.00  0.00     0.243 C 
HETATM    2  N   UNL     1      -3.964   7.873 -31.082  1.00  0.00    -0.235 NA
HETATM    3  C   UNL     1      -4.549   6.730 -31.153  1.00  0.00     0.173 C 
HETATM    4  C   UNL     1      -3.972   5.543 -31.734  1.00  0.00     0.057 A 
HETATM    5  C   UNL     1      -2.880   5.735 -32.546  1.00  0.00     0.087 A 
HETATM    6  S   UNL     1      -2.289   4.298 -33.220  1.00  0.00    -0.074 SA
HETATM    7  C   UNL     1      -3.425   3.377 -32.347  1.00  0.00     0.018 A 
HETATM    8  C   UNL     1      -4.286   4.160 -31.593  1.00  0.00    -0.024 A 
HETATM    9  C   UNL     1      -5.350   3.551 -30.732  1.00  0.00     0.068 C 
HETATM   10  C   UNL     1      -5.089   2.053 -30.498  1.00  0.00     0.240 C 
HETATM   11  N   UNL     1      -4.711   1.323 -31.790  1.00  0.00    -0.063 N 
HETATM   12  H   UNL     1      -4.511   0.355 -31.523  1.00  0.00     0.280 HD
HETATM   13  C   UNL     1      -3.421   1.887 -32.371  1.00  0.00     0.282 C 
HETATM   14  N   UNL     1      -2.347   6.965 -32.709  1.00  0.00    -0.357 N 
HETATM   15  H   UNL     1      -1.443   7.054 -33.159  1.00  0.00     0.162 HD
ENDROOT
BRANCH   1  16
HETATM   16  C   UNL     1      -1.572   7.486 -30.429  1.00  0.00    -0.014 A 
HETATM   17  C   UNL     1      -0.248   7.090 -30.714  1.00  0.00     0.014 A 
HETATM   18  C   UNL     1       0.696   6.945 -29.697  1.00  0.00     0.038 A 
HETATM   19  C   UNL     1       0.316   7.193 -28.384  1.00  0.00     0.079 A 
HETATM   20  C   UNL     1      -1.009   7.458 -28.057  1.00  0.00     0.038 A 
HETATM   21  C   UNL     1      -1.951   7.594 -29.077  1.00  0.00     0.014 A 
BRANCH  19  22
HETATM   22  O   UNL     1       1.250   7.168 -27.350  1.00  0.00    -0.276 OA
BRANCH  22  23
HETATM   23  C   UNL     1       1.530   8.433 -26.866  1.00  0.00     0.288 C 
HETATM   24  O   UNL     1       1.332   9.510 -27.417  1.00  0.00    -0.260 OA
BRANCH  23  25
HETATM   25  C   UNL     1       2.108   8.370 -25.505  1.00  0.00     0.083 C 
HETATM   26  C   UNL     1       3.045   9.211 -25.044  1.00  0.00     0.017 C 
BRANCH  26  27
HETATM   27  C   UNL     1       3.691   9.036 -23.738  1.00  0.00    -0.036 A 
HETATM   28  C   UNL     1       2.985   8.386 -22.722  1.00  0.00     0.014 A 
HETATM   29  C   UNL     1       3.563   8.205 -21.463  1.00  0.00     0.037 A 
HETATM   30  C   UNL     1       4.858   8.656 -21.203  1.00  0.00     0.068 A 
HETATM   31  C   UNL     1       5.574   9.291 -22.217  1.00  0.00     0.037 A 
HETATM   32  C   UNL     1       4.994   9.476 -23.480  1.00  0.00     0.014 A 
BRANCH  30  33
HETATM   33  O   UNL     1       5.298   8.418 -19.932  1.00  0.00    -0.356 OA
HETATM   34  C   UNL     1       6.018   9.464 -19.292  1.00  0.00     0.210 C 
ENDBRANCH  30  33
ENDBRANCH  26  27
ENDBRANCH  23  25
ENDBRANCH  22  23
ENDBRANCH  19  22
ENDBRANCH   1  16
BRANCH   3  35
HETATM   35  O   UNL     1      -5.796   6.612 -30.664  1.00  0.00    -0.344 OA
HETATM   36  H   UNL     1      -5.703   6.416 -29.715  1.00  0.00     0.219 HD
ENDBRANCH   3  35
BRANCH  11  37
HETATM   37  C   UNL     1      -5.810   1.252 -32.826  1.00  0.00     0.273 C 
BRANCH  37  38
HETATM   38  C   UNL     1      -5.964  -0.112 -33.441  1.00  0.00    -0.033 A 
HETATM   39  C   UNL     1      -4.846  -0.946 -33.599  1.00  0.00     0.009 A 
HETATM   40  C   UNL     1      -4.977  -2.197 -34.203  1.00  0.00     0.001 A 
HETATM   41  C   UNL     1      -6.223  -2.628 -34.653  1.00  0.00     0.000 A 
HETATM   42  C   UNL     1      -7.342  -1.814 -34.492  1.00  0.00     0.001 A 
HETATM   43  C   UNL     1      -7.217  -0.562 -33.887  1.00  0.00     0.009 A 
ENDBRANCH  37  38
ENDBRANCH  11  37
TORSDOF 9
ENDMDL
MODEL 3
REMARK VINA RESULT:      -9.4      4.336     12.315
REMARK  9 active torsions:
REMARK  status: ('A' for Active; 'I' for Inactive)
REMARK    1  A    between atoms: O_2  and  C_3 
REMARK    2  A    between atoms: C_6  and  C_7 
REMARK    3  A    between atoms: C_8  and  C_9 
REMARK    4  A    between atoms: C_9  and  O_10 
REMARK    5  A    between atoms: O_10  and  C_11 
REMARK    6  A    between atoms: C_14  and  C_15 
REMARK    7  A    between atoms: C_17  and  O_18 
REMARK    8  A    between atoms: N_26  and  C_28 
REMARK    9  A    between atoms: C_28  and  C_29 
ROOT
HETATM    1  C   UNL     1      -4.092   1.513 -31.221  1.00  0.00     0.243 C 
HETATM    2  N   UNL     1      -4.228   0.648 -32.423  1.00  0.00    -0.235 NA
HETATM    3  C   UNL     1      -5.409   0.643 -32.930  1.00  0.00     0.173 C 
HETATM    4  C   UNL     1      -6.554   1.311 -32.361  1.00  0.00     0.057 A 
HETATM    5  C   UNL     1      -6.443   1.685 -31.043  1.00  0.00     0.087 A 
HETATM    6  S   UNL     1      -7.843   2.423 -30.440  1.00  0.00    -0.074 SA
HETATM    7  C   UNL     1      -8.586   2.352 -31.971  1.00  0.00     0.018 A 
HETATM    8  C   UNL     1      -7.800   1.718 -32.922  1.00  0.00    -0.024 A 
HETATM    9  C   UNL     1      -8.254   1.563 -34.340  1.00  0.00     0.068 C 
HETATM   10  C   UNL     1      -9.427   2.507 -34.656  1.00  0.00     0.240 C 
HETATM   11  N   UNL     1     -10.494   2.489 -33.559  1.00  0.00    -0.063 N 
HETATM   12  H   UNL     1     -11.200   3.178 -33.836  1.00  0.00     0.280 HD
HETATM   13  C   UNL     1      -9.916   2.970 -32.235  1.00  0.00     0.282 C 
HETATM   14  N   UNL     1      -5.290   1.500 -30.366  1.00  0.00    -0.357 N 
HETATM   15  H   UNL     1      -5.173   1.946 -29.463  1.00  0.00     0.162 HD
ENDROOT
BRANCH   1  16
HETATM   16  C   UNL     1      -3.741   2.968 -31.599  1.00  0.00    -0.014 A 
HETATM   17  C   UNL     1      -2.965   3.258 -32.742  1.00  0.00     0.014 A 
HETATM   18  C   UNL     1      -2.813   4.569 -33.195  1.00  0.00     0.038 A 
HETATM   19  C   UNL     1      -3.436   5.600 -32.502  1.00  0.00     0.079 A 
HETATM   20  C   UNL     1      -4.098   5.361 -31.302  1.00  0.00     0.038 A 
HETATM   21  C   UNL     1      -4.241   4.050 -30.849  1.00  0.00     0.014 A 
BRANCH  19  22
HETATM   22  O   UNL     1      -3.402   6.908 -32.979  1.00  0.00    -0.276 OA
BRANCH  22  23
HETATM   23  C   UNL     1      -2.112   7.398 -33.071  1.00  0.00     0.288 C 
HETATM   24  O   UNL     1      -1.402   7.463 -34.069  1.00  0.00    -0.260 OA
BRANCH  23  25
HETATM   25  C   UNL     1      -1.638   7.906 -31.765  1.00  0.00     0.083 C 
HETATM   26  C   UNL     1      -0.848   7.216 -30.929  1.00  0.00     0.017 C 
BRANCH  26  27
HETATM   27  C   UNL     1      -0.507   7.695 -29.585  1.00  0.00    -0.036 A 
HETATM   28  C   UNL     1       0.717   7.314 -29.027  1.00  0.00     0.014 A 
HETATM   29  C   UNL     1       1.076   7.745 -27.748  1.00  0.00     0.037 A 
HETATM   30  C   UNL     1       0.228   8.575 -27.012  1.00  0.00     0.068 A 
HETATM   31  C   UNL     1      -0.986   8.973 -27.570  1.00  0.00     0.037 A 
HETATM   32  C   UNL     1      -1.350   8.538 -28.852  1.00  0.00     0.014 A 
BRANCH  30  33
HETATM   33  O   UNL     1       0.700   8.918 -25.777  1.00  0.00    -0.356 OA
HETATM   34  C   UNL     1       2.096   8.769 -25.556  1.00  0.00     0.210 C 
ENDBRANCH  30  33
ENDBRANCH  26  27
ENDBRANCH  23  25
ENDBRANCH  22  23
ENDBRANCH  19  22
ENDBRANCH   1  16
BRANCH   3  35
HETATM   35  O   UNL     1      -5.618  -0.036 -34.073  1.00  0.00    -0.344 OA
HETATM   36  H   UNL     1      -5.076   0.397 -34.755  1.00  0.00     0.219 HD
ENDBRANCH   3  35
BRANCH  11  37
HETATM   37  C   UNL     1     -11.231   1.177 -33.407  1.00  0.00     0.273 C 
BRANCH  37  38
HETATM   38  C   UNL     1     -12.727   1.323 -33.446  1.00  0.00    -0.033 A 
HETATM   39  C   UNL     1     -13.358   2.330 -32.698  1.00  0.00     0.009 A 
HETATM   40  C   UNL     1     -14.748   2.446 -32.699  1.00  0.00     0.001 A 
HETATM   41  C   UNL     1     -15.521   1.561 -33.447  1.00  0.00     0.000 A 
HETATM   42  C   UNL     1     -14.907   0.564 -34.202  1.00  0.00     0.001 A 
HETATM   43  C   UNL     1     -13.516   0.445 -34.205  1.00  0.00     0.009 A 
ENDBRANCH  37  38
ENDBRANCH  11  37
TORSDOF 9
ENDMDL
MODEL 4
REMARK VINA RESULT:      -9.3      5.437     12.511
REMARK  9 active torsions:
REMARK  status: ('A' for Active; 'I' for Inactive)
REMARK    1  A    between atoms: O_2  and  C_3 
REMARK    2  A    between atoms: C_6  and  C_7 
REMARK    3  A    between atoms: C_8  and  C_9 
REMARK    4  A    between atoms: C_9  and  O_10 
REMARK    5  A    between atoms: O_10  and  C_11 
REMARK    6  A    between atoms: C_14  and  C_15 
REMARK    7  A    between atoms: C_17  and  O_18 
REMARK    8  A    between atoms: N_26  and  C_28 
REMARK    9  A    between atoms: C_28  and  C_29 
ROOT
HETATM    1  C   UNL     1      -6.463   1.541 -32.385  1.00  0.00     0.243 C 
HETATM    2  N   UNL     1      -7.094   0.839 -33.534  1.00  0.00    -0.235 NA
HETATM    3  C   UNL     1      -8.338   1.124 -33.698  1.00  0.00     0.173 C 
HETATM    4  C   UNL     1      -9.117   1.954 -32.813  1.00  0.00     0.057 A 
HETATM    5  C   UNL     1      -8.588   2.172 -31.564  1.00  0.00     0.087 A 
HETATM    6  S   UNL     1      -9.582   3.121 -30.574  1.00  0.00    -0.074 SA
HETATM    7  C   UNL     1     -10.695   3.347 -31.844  1.00  0.00     0.018 A 
HETATM    8  C   UNL     1     -10.343   2.658 -32.996  1.00  0.00    -0.024 A 
HETATM    9  C   UNL     1     -11.173   2.734 -34.240  1.00  0.00     0.068 C 
HETATM   10  C   UNL     1     -12.148   3.923 -34.188  1.00  0.00     0.240 C 
HETATM   11  N   UNL     1     -12.870   4.020 -32.842  1.00  0.00    -0.063 N 
HETATM   12  H   UNL     1     -13.453   4.862 -32.890  1.00  0.00     0.280 HD
HETATM   13  C   UNL     1     -11.876   4.246 -31.711  1.00  0.00     0.282 C 
HETATM   14  N   UNL     1      -7.369   1.693 -31.236  1.00  0.00    -0.357 N 
HETATM   15  H   UNL     1      -6.925   2.018 -30.385  1.00  0.00     0.162 HD
ENDROOT
BRANCH   1  16
HETATM   16  C   UNL     1      -5.908   2.923 -32.794  1.00  0.00    -0.014 A 
HETATM   17  C   UNL     1      -5.382   3.812 -31.832  1.00  0.00     0.014 A 
HETATM   18  C   UNL     1      -4.703   4.969 -32.216  1.00  0.00     0.038 A 
HETATM   19  C   UNL     1      -4.550   5.244 -33.569  1.00  0.00     0.079 A 
HETATM   20  C   UNL     1      -5.168   4.458 -34.537  1.00  0.00     0.038 A 
HETATM   21  C   UNL     1      -5.851   3.307 -34.148  1.00  0.00     0.014 A 
BRANCH  19  22
HETATM   22  O   UNL     1      -3.788   6.328 -33.999  1.00  0.00    -0.276 OA
BRANCH  22  23
HETATM   23  C   UNL     1      -2.457   5.995 -34.175  1.00  0.00     0.288 C 
HETATM   24  O   UNL     1      -1.932   5.488 -35.159  1.00  0.00    -0.260 OA
BRANCH  23  25
HETATM   25  C   UNL     1      -1.653   6.361 -32.987  1.00  0.00     0.083 C 
HETATM   26  C   UNL     1      -1.202   5.481 -32.081  1.00  0.00     0.017 C 
BRANCH  26  27
HETATM   27  C   UNL     1      -0.524   5.893 -30.847  1.00  0.00    -0.036 A 
HETATM   28  C   UNL     1      -0.532   7.246 -30.497  1.00  0.00     0.014 A 
HETATM   29  C   UNL     1       0.107   7.679 -29.333  1.00  0.00     0.037 A 
HETATM   30  C   UNL     1       0.751   6.768 -28.493  1.00  0.00     0.068 A 
HETATM   31  C   UNL     1       0.750   5.415 -28.829  1.00  0.00     0.037 A 
HETATM   32  C   UNL     1       0.112   4.979 -29.998  1.00  0.00     0.014 A 
BRANCH  30  33
HETATM   33  O   UNL     1       1.338   7.326 -27.393  1.00  0.00    -0.356 OA
HETATM   34  C   UNL     1       1.655   8.711 -27.463  1.00  0.00     0.210 C 
ENDBRANCH  30  33
ENDBRANCH  26  27
ENDBRANCH  23  25
ENDBRANCH  22  23
ENDBRANCH  19  22
ENDBRANCH   1  16
BRANCH   3  35
HETATM   35  O   UNL     1      -8.982   0.612 -34.762  1.00  0.00    -0.344 OA
HETATM   36  H   UNL     1      -9.846   1.058 -34.803  1.00  0.00     0.219 HD
ENDBRANCH   3  35
BRANCH  11  37
HETATM   37  C   UNL     1     -13.814   2.877 -32.541  1.00  0.00     0.273 C 
BRANCH  37  38
HETATM   38  C   UNL     1     -15.207   3.327 -32.197  1.00  0.00    -0.033 A 
HETATM   39  C   UNL     1     -16.261   2.401 -32.165  1.00  0.00     0.009 A 
HETATM   40  C   UNL     1     -17.562   2.819 -31.884  1.00  0.00     0.001 A 
HETATM   41  C   UNL     1     -17.823   4.164 -31.631  1.00  0.00     0.000 A 
HETATM   42  C   UNL     1     -16.784   5.092 -31.649  1.00  0.00     0.001 A 
HETATM   43  C   UNL     1     -15.480   4.678 -31.928  1.00  0.00     0.009 A 
ENDBRANCH  37  38
ENDBRANCH  11  37
TORSDOF 9
ENDMDL
MODEL 5
REMARK VINA RESULT:      -9.3      2.522      3.951
REMARK  9 active torsions:
REMARK  status: ('A' for Active; 'I' for Inactive)
REMARK    1  A    between atoms: O_2  and  C_3 
REMARK    2  A    between atoms: C_6  and  C_7 
REMARK    3  A    between atoms: C_8  and  C_9 
REMARK    4  A    between atoms: C_9  and  O_10 
REMARK    5  A    between atoms: O_10  and  C_11 
REMARK    6  A    between atoms: C_14  and  C_15 
REMARK    7  A    between atoms: C_17  and  O_18 
REMARK    8  A    between atoms: N_26  and  C_28 
REMARK    9  A    between atoms: C_28  and  C_29 
ROOT
HETATM    1  C   UNL     1      -2.541   5.084 -32.471  1.00  0.00     0.243 C 
HETATM    2  N   UNL     1      -1.095   4.782 -32.300  1.00  0.00    -0.235 NA
HETATM    3  C   UNL     1      -0.577   5.298 -31.242  1.00  0.00     0.173 C 
HETATM    4  C   UNL     1      -1.264   6.183 -30.334  1.00  0.00     0.057 A 
HETATM    5  C   UNL     1      -2.417   6.762 -30.810  1.00  0.00     0.087 A 
HETATM    6  S   UNL     1      -3.139   7.818 -29.700  1.00  0.00    -0.074 SA
HETATM    7  C   UNL     1      -1.974   7.434 -28.518  1.00  0.00     0.018 A 
HETATM    8  C   UNL     1      -1.008   6.554 -28.982  1.00  0.00    -0.024 A 
HETATM    9  C   UNL     1       0.101   6.068 -28.099  1.00  0.00     0.068 C 
HETATM   10  C   UNL     1      -0.212   6.331 -26.616  1.00  0.00     0.240 C 
HETATM   11  N   UNL     1      -0.745   7.745 -26.379  1.00  0.00    -0.063 N 
HETATM   12  H   UNL     1      -0.968   7.804 -25.381  1.00  0.00     0.280 HD
HETATM   13  C   UNL     1      -2.055   7.962 -27.127  1.00  0.00     0.282 C 
HETATM   14  N   UNL     1      -2.900   6.441 -32.029  1.00  0.00    -0.357 N 
HETATM   15  H   UNL     1      -3.837   6.736 -32.280  1.00  0.00     0.162 HD
ENDROOT
BRANCH   1  16
HETATM   16  C   UNL     1      -3.431   4.051 -31.748  1.00  0.00    -0.014 A 
HETATM   17  C   UNL     1      -4.706   4.402 -31.256  1.00  0.00     0.014 A 
HETATM   18  C   UNL     1      -5.589   3.431 -30.783  1.00  0.00     0.038 A 
HETATM   19  C   UNL     1      -5.196   2.098 -30.796  1.00  0.00     0.079 A 
HETATM   20  C   UNL     1      -3.902   1.734 -31.152  1.00  0.00     0.038 A 
HETATM   21  C   UNL     1      -3.021   2.709 -31.617  1.00  0.00     0.014 A 
BRANCH  19  22
HETATM   22  O   UNL     1      -6.083   1.085 -30.436  1.00  0.00    -0.276 OA
BRANCH  22  23
HETATM   23  C   UNL     1      -6.333   0.213 -31.480  1.00  0.00     0.288 C 
HETATM   24  O   UNL     1      -5.708  -0.798 -31.781  1.00  0.00    -0.260 OA
BRANCH  23  25
HETATM   25  C   UNL     1      -7.532   0.622 -32.244  1.00  0.00     0.083 C 
HETATM   26  C   UNL     1      -8.628   1.164 -31.693  1.00  0.00     0.017 C 
BRANCH  26  27
HETATM   27  C   UNL     1      -9.849   1.434 -32.461  1.00  0.00    -0.036 A 
HETATM   28  C   UNL     1     -10.529   0.357 -33.039  1.00  0.00     0.014 A 
HETATM   29  C   UNL     1     -11.692   0.573 -33.782  1.00  0.00     0.037 A 
HETATM   30  C   UNL     1     -12.203   1.861 -33.947  1.00  0.00     0.068 A 
HETATM   31  C   UNL     1     -11.539   2.937 -33.360  1.00  0.00     0.037 A 
HETATM   32  C   UNL     1     -10.369   2.723 -32.617  1.00  0.00     0.014 A 
BRANCH  30  33
HETATM   33  O   UNL     1     -13.342   1.929 -34.698  1.00  0.00    -0.356 OA
HETATM   34  C   UNL     1     -14.411   1.067 -34.328  1.00  0.00     0.210 C 
ENDBRANCH  30  33
ENDBRANCH  26  27
ENDBRANCH  23  25
ENDBRANCH  22  23
ENDBRANCH  19  22
ENDBRANCH   1  16
BRANCH   3  35
HETATM   35  O   UNL     1       0.704   5.012 -30.945  1.00  0.00    -0.344 OA
HETATM   36  H   UNL     1       1.200   5.066 -31.780  1.00  0.00     0.219 HD
ENDBRANCH   3  35
BRANCH  11  37
HETATM   37  C   UNL     1       0.246   8.854 -26.651  1.00  0.00     0.273 C 
BRANCH  37  38
HETATM   38  C   UNL     1       1.126   9.172 -25.473  1.00  0.00    -0.033 A 
HETATM   39  C   UNL     1       0.625   9.928 -24.402  1.00  0.00     0.009 A 
HETATM   40  C   UNL     1       1.447  10.259 -23.324  1.00  0.00     0.001 A 
HETATM   41  C   UNL     1       2.775   9.837 -23.304  1.00  0.00     0.000 A 
HETATM   42  C   UNL     1       3.281   9.077 -24.357  1.00  0.00     0.001 A 
HETATM   43  C   UNL     1       2.461   8.742 -25.437  1.00  0.00     0.009 A 
ENDBRANCH  37  38
ENDBRANCH  11  37
TORSDOF 9
ENDMDL
MODEL 6
REMARK VINA RESULT:      -9.3      3.617     10.036
REMARK  9 active torsions:
REMARK  status: ('A' for Active; 'I' for Inactive)
REMARK    1  A    between atoms: O_2  and  C_3 
REMARK    2  A    between atoms: C_6  and  C_7 
REMARK    3  A    between atoms: C_8  and  C_9 
REMARK    4  A    between atoms: C_9  and  O_10 
REMARK    5  A    between atoms: O_10  and  C_11 
REMARK    6  A    between atoms: C_14  and  C_15 
REMARK    7  A    between atoms: C_17  and  O_18 
REMARK    8  A    between atoms: N_26  and  C_28 
REMARK    9  A    between atoms: C_28  and  C_29 
ROOT
HETATM    1  C   UNL     1      -5.828   8.778 -28.797  1.00  0.00     0.243 C 
HETATM    2  N   UNL     1      -6.913   7.993 -28.151  1.00  0.00    -0.235 NA
HETATM    3  C   UNL     1      -7.071   6.818 -28.649  1.00  0.00     0.173 C 
HETATM    4  C   UNL     1      -6.361   6.305 -29.795  1.00  0.00     0.057 A 
HETATM    5  C   UNL     1      -5.737   7.238 -30.588  1.00  0.00     0.087 A 
HETATM    6  S   UNL     1      -4.963   6.560 -31.933  1.00  0.00    -0.074 SA
HETATM    7  C   UNL     1      -5.363   4.986 -31.417  1.00  0.00     0.018 A 
HETATM    8  C   UNL     1      -6.129   4.978 -30.262  1.00  0.00    -0.024 A 
HETATM    9  C   UNL     1      -6.575   3.698 -29.624  1.00  0.00     0.068 C 
HETATM   10  C   UNL     1      -5.766   2.501 -30.153  1.00  0.00     0.240 C 
HETATM   11  N   UNL     1      -5.624   2.527 -31.677  1.00  0.00    -0.063 N 
HETATM   12  H   UNL     1      -5.035   1.726 -31.923  1.00  0.00     0.280 HD
HETATM   13  C   UNL     1      -4.871   3.772 -32.128  1.00  0.00     0.282 C 
HETATM   14  N   UNL     1      -5.732   8.544 -30.246  1.00  0.00    -0.357 N 
HETATM   15  H   UNL     1      -5.117   9.180 -30.740  1.00  0.00     0.162 HD
ENDROOT
BRANCH   1  16
HETATM   16  C   UNL     1      -4.457   8.511 -28.138  1.00  0.00    -0.014 A 
HETATM   17  C   UNL     1      -4.245   7.373 -27.330  1.00  0.00     0.014 A 
HETATM   18  C   UNL     1      -2.964   7.024 -26.899  1.00  0.00     0.038 A 
HETATM   19  C   UNL     1      -1.887   7.819 -27.271  1.00  0.00     0.079 A 
HETATM   20  C   UNL     1      -2.079   9.015 -27.956  1.00  0.00     0.038 A 
HETATM   21  C   UNL     1      -3.361   9.362 -28.379  1.00  0.00     0.014 A 
BRANCH  19  22
HETATM   22  O   UNL     1      -0.581   7.450 -26.956  1.00  0.00    -0.276 OA
BRANCH  22  23
HETATM   23  C   UNL     1       0.287   7.642 -28.015  1.00  0.00     0.288 C 
HETATM   24  O   UNL     1       1.325   8.294 -28.029  1.00  0.00    -0.260 OA
BRANCH  23  25
HETATM   25  C   UNL     1      -0.166   6.909 -29.218  1.00  0.00     0.083 C 
HETATM   26  C   UNL     1      -0.096   7.393 -30.467  1.00  0.00     0.017 C 
BRANCH  26  27
HETATM   27  C   UNL     1      -0.677   6.695 -31.619  1.00  0.00    -0.036 A 
HETATM   28  C   UNL     1      -0.995   7.435 -32.762  1.00  0.00     0.014 A 
HETATM   29  C   UNL     1      -1.554   6.808 -33.878  1.00  0.00     0.037 A 
HETATM   30  C   UNL     1      -1.791   5.432 -33.877  1.00  0.00     0.068 A 
HETATM   31  C   UNL     1      -1.461   4.686 -32.748  1.00  0.00     0.037 A 
HETATM   32  C   UNL     1      -0.902   5.313 -31.625  1.00  0.00     0.014 A 
BRANCH  30  33
HETATM   33  O   UNL     1      -2.344   4.950 -35.030  1.00  0.00    -0.356 OA
HETATM   34  C   UNL     1      -3.712   5.259 -35.267  1.00  0.00     0.210 C 
ENDBRANCH  30  33
ENDBRANCH  26  27
ENDBRANCH  23  25
ENDBRANCH  22  23
ENDBRANCH  19  22
ENDBRANCH   1  16
BRANCH   3  35
HETATM   35  O   UNL     1      -7.966   5.991 -28.080  1.00  0.00    -0.344 OA
HETATM   36  H   UNL     1      -7.600   5.092 -28.156  1.00  0.00     0.219 HD
ENDBRANCH   3  35
BRANCH  11  37
HETATM   37  C   UNL     1      -6.916   2.346 -32.441  1.00  0.00     0.273 C 
BRANCH  37  38
HETATM   38  C   UNL     1      -6.938   1.105 -33.291  1.00  0.00    -0.033 A 
HETATM   39  C   UNL     1      -6.236  -0.041 -32.886  1.00  0.00     0.009 A 
HETATM   40  C   UNL     1      -6.221  -1.182 -33.689  1.00  0.00     0.001 A 
HETATM   41  C   UNL     1      -6.908  -1.191 -34.901  1.00  0.00     0.000 A 
HETATM   42  C   UNL     1      -7.618  -0.064 -35.309  1.00  0.00     0.001 A 
HETATM   43  C   UNL     1      -7.637   1.079 -34.508  1.00  0.00     0.009 A 
ENDBRANCH  37  38
ENDBRANCH  11  37
TORSDOF 9
ENDMDL
MODEL 7
REMARK VINA RESULT:      -9.1      3.823     10.609
REMARK  9 active torsions:
REMARK  status: ('A' for Active; 'I' for Inactive)
REMARK    1  A    between atoms: O_2  and  C_3 
REMARK    2  A    between atoms: C_6  and  C_7 
REMARK    3  A    between atoms: C_8  and  C_9 
REMARK    4  A    between atoms: C_9  and  O_10 
REMARK    5  A    between atoms: O_10  and  C_11 
REMARK    6  A    between atoms: C_14  and  C_15 
REMARK    7  A    between atoms: C_17  and  O_18 
REMARK    8  A    between atoms: N_26  and  C_28 
REMARK    9  A    between atoms: C_28  and  C_29 
ROOT
HETATM    1  C   UNL     1      -7.537   7.106 -29.882  1.00  0.00     0.243 C 
HETATM    2  N   UNL     1      -8.633   6.114 -29.720  1.00  0.00    -0.235 NA
HETATM    3  C   UNL     1      -8.361   4.955 -30.206  1.00  0.00     0.173 C 
HETATM    4  C   UNL     1      -7.164   4.628 -30.942  1.00  0.00     0.057 A 
HETATM    5  C   UNL     1      -6.445   5.693 -31.431  1.00  0.00     0.087 A 
HETATM    6  S   UNL     1      -5.080   5.224 -32.318  1.00  0.00    -0.074 SA
HETATM    7  C   UNL     1      -5.370   3.582 -31.968  1.00  0.00     0.018 A 
HETATM    8  C   UNL     1      -6.529   3.386 -31.233  1.00  0.00    -0.024 A 
HETATM    9  C   UNL     1      -6.962   2.019 -30.800  1.00  0.00     0.068 C 
HETATM   10  C   UNL     1      -5.809   1.007 -30.914  1.00  0.00     0.240 C 
HETATM   11  N   UNL     1      -5.060   1.131 -32.243  1.00  0.00    -0.063 N 
HETATM   12  H   UNL     1      -4.290   0.456 -32.201  1.00  0.00     0.280 HD
HETATM   13  C   UNL     1      -4.422   2.508 -32.377  1.00  0.00     0.282 C 
HETATM   14  N   UNL     1      -6.814   6.962 -31.156  1.00  0.00    -0.357 N 
HETATM   15  H   UNL     1      -6.173   7.718 -31.369  1.00  0.00     0.162 HD
ENDROOT
BRANCH   1  16
HETATM   16  C   UNL     1      -6.535   7.049 -28.709  1.00  0.00    -0.014 A 
HETATM   17  C   UNL     1      -6.214   5.826 -28.081  1.00  0.00     0.014 A 
HETATM   18  C   UNL     1      -5.169   5.741 -27.160  1.00  0.00     0.038 A 
HETATM   19  C   UNL     1      -4.441   6.885 -26.859  1.00  0.00     0.079 A 
HETATM   20  C   UNL     1      -4.813   8.128 -27.361  1.00  0.00     0.038 A 
HETATM   21  C   UNL     1      -5.863   8.209 -28.275  1.00  0.00     0.014 A 
BRANCH  19  22
HETATM   22  O   UNL     1      -3.322   6.825 -26.030  1.00  0.00    -0.276 OA
BRANCH  22  23
HETATM   23  C   UNL     1      -2.256   7.546 -26.538  1.00  0.00     0.288 C 
HETATM   24  O   UNL     1      -1.536   8.342 -25.946  1.00  0.00    -0.260 OA
BRANCH  23  25
HETATM   25  C   UNL     1      -2.021   7.222 -27.962  1.00  0.00     0.083 C 
HETATM   26  C   UNL     1      -1.412   8.042 -28.832  1.00  0.00     0.017 C 
BRANCH  26  27
HETATM   27  C   UNL     1      -1.316   7.745 -30.265  1.00  0.00    -0.036 A 
HETATM   28  C   UNL     1      -0.225   7.001 -30.725  1.00  0.00     0.014 A 
HETATM   29  C   UNL     1      -0.095   6.703 -32.084  1.00  0.00     0.037 A 
HETATM   30  C   UNL     1      -1.058   7.128 -33.001  1.00  0.00     0.068 A 
HETATM   31  C   UNL     1      -2.156   7.856 -32.547  1.00  0.00     0.037 A 
HETATM   32  C   UNL     1      -2.287   8.159 -31.184  1.00  0.00     0.014 A 
BRANCH  30  33
HETATM   33  O   UNL     1      -0.806   6.771 -34.295  1.00  0.00    -0.356 OA
HETATM   34  C   UNL     1      -1.317   5.517 -34.730  1.00  0.00     0.210 C 
ENDBRANCH  30  33
ENDBRANCH  26  27
ENDBRANCH  23  25
ENDBRANCH  22  23
ENDBRANCH  19  22
ENDBRANCH   1  16
BRANCH   3  35
HETATM   35  O   UNL     1      -9.248   3.959 -30.034  1.00  0.00    -0.344 OA
HETATM   36  H   UNL     1      -8.878   3.374 -29.350  1.00  0.00     0.219 HD
ENDBRANCH   3  35
BRANCH  11  37
HETATM   37  C   UNL     1      -5.869   0.765 -33.467  1.00  0.00     0.273 C 
BRANCH  37  38
HETATM   38  C   UNL     1      -5.769  -0.690 -33.836  1.00  0.00    -0.033 A 
HETATM   39  C   UNL     1      -4.526  -1.341 -33.812  1.00  0.00     0.009 A 
HETATM   40  C   UNL     1      -4.421  -2.680 -34.191  1.00  0.00     0.001 A 
HETATM   41  C   UNL     1      -5.555  -3.381 -34.594  1.00  0.00     0.000 A 
HETATM   42  C   UNL     1      -6.796  -2.750 -34.612  1.00  0.00     0.001 A 
HETATM   43  C   UNL     1      -6.906  -1.410 -34.233  1.00  0.00     0.009 A 
ENDBRANCH  37  38
ENDBRANCH  11  37
TORSDOF 9
ENDMDL
MODEL 8
REMARK VINA RESULT:      -9.0      6.446     12.542
REMARK  9 active torsions:
REMARK  status: ('A' for Active; 'I' for Inactive)
REMARK    1  A    between atoms: O_2  and  C_3 
REMARK    2  A    between atoms: C_6  and  C_7 
REMARK    3  A    between atoms: C_8  and  C_9 
REMARK    4  A    between atoms: C_9  and  O_10 
REMARK    5  A    between atoms: O_10  and  C_11 
REMARK    6  A    between atoms: C_14  and  C_15 
REMARK    7  A    between atoms: C_17  and  O_18 
REMARK    8  A    between atoms: N_26  and  C_28 
REMARK    9  A    between atoms: C_28  and  C_29 
ROOT
HETATM    1  C   UNL     1      -4.572   5.786 -31.133  1.00  0.00     0.243 C 
HETATM    2  N   UNL     1      -4.967   6.004 -32.551  1.00  0.00    -0.235 NA
HETATM    3  C   UNL     1      -5.342   4.934 -33.156  1.00  0.00     0.173 C 
HETATM    4  C   UNL     1      -5.300   3.608 -32.592  1.00  0.00     0.057 A 
HETATM    5  C   UNL     1      -4.508   3.449 -31.480  1.00  0.00     0.087 A 
HETATM    6  S   UNL     1      -4.480   1.856 -30.904  1.00  0.00    -0.074 SA
HETATM    7  C   UNL     1      -5.619   1.372 -32.075  1.00  0.00     0.018 A 
HETATM    8  C   UNL     1      -5.974   2.400 -32.936  1.00  0.00    -0.024 A 
HETATM    9  C   UNL     1      -6.978   2.197 -34.029  1.00  0.00     0.068 C 
HETATM   10  C   UNL     1      -7.797   0.915 -33.802  1.00  0.00     0.240 C 
HETATM   11  N   UNL     1      -6.916  -0.274 -33.413  1.00  0.00    -0.063 N 
HETATM   12  H   UNL     1      -7.552  -1.057 -33.237  1.00  0.00     0.280 HD
HETATM   13  C   UNL     1      -6.191  -0.003 -32.100  1.00  0.00     0.282 C 
HETATM   14  N   UNL     1      -3.881   4.505 -30.920  1.00  0.00    -0.357 N 
HETATM   15  H   UNL     1      -3.457   4.398 -30.005  1.00  0.00     0.162 HD
ENDROOT
BRANCH   1  16
HETATM   16  C   UNL     1      -5.783   5.887 -30.180  1.00  0.00    -0.014 A 
HETATM   17  C   UNL     1      -5.631   5.717 -28.787  1.00  0.00     0.014 A 
HETATM   18  C   UNL     1      -6.678   6.001 -27.909  1.00  0.00     0.038 A 
HETATM   19  C   UNL     1      -7.886   6.455 -28.423  1.00  0.00     0.079 A 
HETATM   20  C   UNL     1      -8.109   6.509 -29.796  1.00  0.00     0.038 A 
HETATM   21  C   UNL     1      -7.062   6.217 -30.670  1.00  0.00     0.014 A 
BRANCH  19  22
HETATM   22  O   UNL     1      -8.920   6.854 -27.579  1.00  0.00    -0.276 OA
BRANCH  22  23
HETATM   23  C   UNL     1      -8.889   8.212 -27.319  1.00  0.00     0.288 C 
HETATM   24  O   UNL     1      -7.991   9.007 -27.576  1.00  0.00    -0.260 OA
BRANCH  23  25
HETATM   25  C   UNL     1     -10.145   8.664 -26.681  1.00  0.00     0.083 C 
HETATM   26  C   UNL     1     -10.829   7.952 -25.774  1.00  0.00     0.017 C 
BRANCH  26  27
HETATM   27  C   UNL     1     -12.139   8.370 -25.262  1.00  0.00    -0.036 A 
HETATM   28  C   UNL     1     -12.722   7.632 -24.228  1.00  0.00     0.014 A 
HETATM   29  C   UNL     1     -13.971   7.995 -23.717  1.00  0.00     0.037 A 
HETATM   30  C   UNL     1     -14.649   9.107 -24.220  1.00  0.00     0.068 A 
HETATM   31  C   UNL     1     -14.066   9.856 -25.240  1.00  0.00     0.037 A 
HETATM   32  C   UNL     1     -12.814   9.492 -25.756  1.00  0.00     0.014 A 
BRANCH  30  33
HETATM   33  O   UNL     1     -15.860   9.346 -23.634  1.00  0.00    -0.356 OA
HETATM   34  C   UNL     1     -16.431   8.286 -22.876  1.00  0.00     0.210 C 
ENDBRANCH  30  33
ENDBRANCH  26  27
ENDBRANCH  23  25
ENDBRANCH  22  23
ENDBRANCH  19  22
ENDBRANCH   1  16
BRANCH   3  35
HETATM   35  O   UNL     1      -5.805   5.035 -34.415  1.00  0.00    -0.344 OA
HETATM   36  H   UNL     1      -5.880   5.986 -34.608  1.00  0.00     0.219 HD
ENDBRANCH   3  35
BRANCH  11  37
HETATM   37  C   UNL     1      -5.965  -0.743 -34.492  1.00  0.00     0.273 C 
BRANCH  37  38
HETATM   38  C   UNL     1      -5.705  -2.224 -34.456  1.00  0.00    -0.033 A 
HETATM   39  C   UNL     1      -4.446  -2.710 -34.068  1.00  0.00     0.009 A 
HETATM   40  C   UNL     1      -4.187  -4.081 -34.069  1.00  0.00     0.001 A 
HETATM   41  C   UNL     1      -5.180  -4.978 -34.456  1.00  0.00     0.000 A 
HETATM   42  C   UNL     1      -6.436  -4.509 -34.833  1.00  0.00     0.001 A 
HETATM   43  C   UNL     1      -6.701  -3.138 -34.832  1.00  0.00     0.009 A 
ENDBRANCH  37  38
ENDBRANCH  11  37
TORSDOF 9
ENDMDL
MODEL 9
REMARK VINA RESULT:      -8.9      5.595     10.443
REMARK  9 active torsions:
REMARK  status: ('A' for Active; 'I' for Inactive)
REMARK    1  A    between atoms: O_2  and  C_3 
REMARK    2  A    between atoms: C_6  and  C_7 
REMARK    3  A    between atoms: C_8  and  C_9 
REMARK    4  A    between atoms: C_9  and  O_10 
REMARK    5  A    between atoms: O_10  and  C_11 
REMARK    6  A    between atoms: C_14  and  C_15 
REMARK    7  A    between atoms: C_17  and  O_18 
REMARK    8  A    between atoms: N_26  and  C_28 
REMARK    9  A    between atoms: C_28  and  C_29 
ROOT
HETATM    1  C   UNL     1      -5.387   5.554 -29.505  1.00  0.00     0.243 C 
HETATM    2  N   UNL     1      -4.499   5.728 -30.685  1.00  0.00    -0.235 NA
HETATM    3  C   UNL     1      -4.514   4.732 -31.498  1.00  0.00     0.173 C 
HETATM    4  C   UNL     1      -5.224   3.497 -31.276  1.00  0.00     0.057 A 
HETATM    5  C   UNL     1      -5.624   3.252 -29.984  1.00  0.00     0.087 A 
HETATM    6  S   UNL     1      -6.413   1.764 -29.800  1.00  0.00    -0.074 SA
HETATM    7  C   UNL     1      -6.327   1.469 -31.476  1.00  0.00     0.018 A 
HETATM    8  C   UNL     1      -5.651   2.466 -32.163  1.00  0.00    -0.024 A 
HETATM    9  C   UNL     1      -5.478   2.415 -33.650  1.00  0.00     0.068 C 
HETATM   10  C   UNL     1      -6.444   1.404 -34.290  1.00  0.00     0.240 C 
HETATM   11  N   UNL     1      -6.479   0.076 -33.530  1.00  0.00    -0.063 N 
HETATM   12  H   UNL     1      -7.180  -0.505 -34.000  1.00  0.00     0.280 HD
HETATM   13  C   UNL     1      -6.974   0.283 -32.104  1.00  0.00     0.282 C 
HETATM   14  N   UNL     1      -5.425   4.168 -29.013  1.00  0.00    -0.357 N 
HETATM   15  H   UNL     1      -5.887   4.047 -28.119  1.00  0.00     0.162 HD
ENDROOT
BRANCH   1  16
HETATM   16  C   UNL     1      -6.823   6.042 -29.792  1.00  0.00    -0.014 A 
HETATM   17  C   UNL     1      -7.791   6.108 -28.766  1.00  0.00     0.014 A 
HETATM   18  C   UNL     1      -9.022   6.731 -28.977  1.00  0.00     0.038 A 
HETATM   19  C   UNL     1      -9.293   7.288 -30.220  1.00  0.00     0.079 A 
HETATM   20  C   UNL     1      -8.415   7.126 -31.287  1.00  0.00     0.038 A 
HETATM   21  C   UNL     1      -7.189   6.497 -31.074  1.00  0.00     0.014 A 
BRANCH  19  22
HETATM   22  O   UNL     1     -10.462   8.013 -30.442  1.00  0.00    -0.276 OA
BRANCH  22  23
HETATM   23  C   UNL     1     -11.588   7.332 -30.015  1.00  0.00     0.288 C 
HETATM   24  O   UNL     1     -12.254   7.538 -29.007  1.00  0.00    -0.260 OA
BRANCH  23  25
HETATM   25  C   UNL     1     -11.968   6.271 -30.974  1.00  0.00     0.083 C 
HETATM   26  C   UNL     1     -12.523   5.101 -30.624  1.00  0.00     0.017 C 
BRANCH  26  27
HETATM   27  C   UNL     1     -12.762   4.019 -31.586  1.00  0.00    -0.036 A 
HETATM   28  C   UNL     1     -14.018   3.406 -31.607  1.00  0.00     0.014 A 
HETATM   29  C   UNL     1     -14.283   2.368 -32.503  1.00  0.00     0.037 A 
HETATM   30  C   UNL     1     -13.306   1.937 -33.403  1.00  0.00     0.068 A 
HETATM   31  C   UNL     1     -12.057   2.556 -33.398  1.00  0.00     0.037 A 
HETATM   32  C   UNL     1     -11.788   3.595 -32.496  1.00  0.00     0.014 A 
BRANCH  30  33
HETATM   33  O   UNL     1     -13.697   0.914 -34.219  1.00  0.00    -0.356 OA
HETATM   34  C   UNL     1     -15.096   0.685 -34.342  1.00  0.00     0.210 C 
ENDBRANCH  30  33
ENDBRANCH  26  27
ENDBRANCH  23  25
ENDBRANCH  22  23
ENDBRANCH  19  22
ENDBRANCH   1  16
BRANCH   3  35
HETATM   35  O   UNL     1      -3.816   4.824 -32.644  1.00  0.00    -0.344 OA
HETATM   36  H   UNL     1      -3.342   3.980 -32.747  1.00  0.00     0.219 HD
ENDBRANCH   3  35
BRANCH  11  37
HETATM   37  C   UNL     1      -5.190  -0.714 -33.568  1.00  0.00     0.273 C 
BRANCH  37  38
HETATM   38  C   UNL     1      -5.371  -2.130 -34.041  1.00  0.00    -0.033 A 
HETATM   39  C   UNL     1      -6.599  -2.543 -34.582  1.00  0.00     0.009 A 
HETATM   40  C   UNL     1      -6.785  -3.865 -34.986  1.00  0.00     0.001 A 
HETATM   41  C   UNL     1      -5.748  -4.786 -34.858  1.00  0.00     0.000 A 
HETATM   42  C   UNL     1      -4.521  -4.387 -34.333  1.00  0.00     0.001 A 
HETATM   43  C   UNL     1      -4.330  -3.065 -33.928  1.00  0.00     0.009 A 
ENDBRANCH  37  38
ENDBRANCH  11  37
TORSDOF 9
ENDMDL
MODEL 10
REMARK VINA RESULT:      -8.8      3.939      9.168
REMARK  9 active torsions:
REMARK  status: ('A' for Active; 'I' for Inactive)
REMARK    1  A    between atoms: O_2  and  C_3 
REMARK    2  A    between atoms: C_6  and  C_7 
REMARK    3  A    between atoms: C_8  and  C_9 
REMARK    4  A    between atoms: C_9  and  O_10 
REMARK    5  A    between atoms: O_10  and  C_11 
REMARK    6  A    between atoms: C_14  and  C_15 
REMARK    7  A    between atoms: C_17  and  O_18 
REMARK    8  A    between atoms: N_26  and  C_28 
REMARK    9  A    between atoms: C_28  and  C_29 
ROOT
HETATM    1  C   UNL     1      -3.917   8.392 -27.532  1.00  0.00     0.243 C 
HETATM    2  N   UNL     1      -4.183   7.214 -26.665  1.00  0.00    -0.235 NA
HETATM    3  C   UNL     1      -5.064   6.407 -27.140  1.00  0.00     0.173 C 
HETATM    4  C   UNL     1      -5.827   6.634 -28.343  1.00  0.00     0.057 A 
HETATM    5  C   UNL     1      -5.849   7.926 -28.811  1.00  0.00     0.087 A 
HETATM    6  S   UNL     1      -6.800   8.116 -30.200  1.00  0.00    -0.074 SA
HETATM    7  C   UNL     1      -7.113   6.442 -30.260  1.00  0.00     0.018 A 
HETATM    8  C   UNL     1      -6.548   5.751 -29.199  1.00  0.00    -0.024 A 
HETATM    9  C   UNL     1      -6.685   4.265 -29.068  1.00  0.00     0.068 C 
HETATM   10  C   UNL     1      -7.136   3.628 -30.394  1.00  0.00     0.240 C 
HETATM   11  N   UNL     1      -8.291   4.396 -31.041  1.00  0.00    -0.063 N 
HETATM   12  H   UNL     1      -8.483   3.927 -31.931  1.00  0.00     0.280 HD
HETATM   13  C   UNL     1      -7.868   5.819 -31.383  1.00  0.00     0.282 C 
HETATM   14  N   UNL     1      -5.123   8.892 -28.210  1.00  0.00    -0.357 N 
HETATM   15  H   UNL     1      -5.010   9.785 -28.676  1.00  0.00     0.162 HD
ENDROOT
BRANCH   1  16
HETATM   16  C   UNL     1      -2.820   8.097 -28.578  1.00  0.00    -0.014 A 
HETATM   17  C   UNL     1      -1.760   7.210 -28.295  1.00  0.00     0.014 A 
HETATM   18  C   UNL     1      -0.884   6.789 -29.297  1.00  0.00     0.038 A 
HETATM   19  C   UNL     1      -1.064   7.261 -30.592  1.00  0.00     0.079 A 
HETATM   20  C   UNL     1      -2.017   8.233 -30.877  1.00  0.00     0.038 A 
HETATM   21  C   UNL     1      -2.885   8.656 -29.870  1.00  0.00     0.014 A 
BRANCH  19  22
HETATM   22  O   UNL     1      -0.284   6.785 -31.643  1.00  0.00    -0.276 OA
BRANCH  22  23
HETATM   23  C   UNL     1      -0.288   5.403 -31.714  1.00  0.00     0.288 C 
HETATM   24  O   UNL     1       0.590   4.629 -31.350  1.00  0.00    -0.260 OA
BRANCH  23  25
HETATM   25  C   UNL     1      -1.557   4.901 -32.286  1.00  0.00     0.083 C 
HETATM   26  C   UNL     1      -2.408   4.093 -31.637  1.00  0.00     0.017 C 
BRANCH  26  27
HETATM   27  C   UNL     1      -3.589   3.507 -32.281  1.00  0.00    -0.036 A 
HETATM   28  C   UNL     1      -4.380   4.320 -33.099  1.00  0.00     0.014 A 
HETATM   29  C   UNL     1      -5.516   3.801 -33.725  1.00  0.00     0.037 A 
HETATM   30  C   UNL     1      -5.871   2.461 -33.559  1.00  0.00     0.068 A 
HETATM   31  C   UNL     1      -5.078   1.641 -32.758  1.00  0.00     0.037 A 
HETATM   32  C   UNL     1      -3.940   2.161 -32.126  1.00  0.00     0.014 A 
BRANCH  30  33
HETATM   33  O   UNL     1      -7.005   2.087 -34.224  1.00  0.00    -0.356 OA
HETATM   34  C   UNL     1      -6.965   0.847 -34.919  1.00  0.00     0.210 C 
ENDBRANCH  30  33
ENDBRANCH  26  27
ENDBRANCH  23  25
ENDBRANCH  22  23
ENDBRANCH  19  22
ENDBRANCH   1  16
BRANCH   3  35
HETATM   35  O   UNL     1      -5.315   5.263 -26.479  1.00  0.00    -0.344 OA
HETATM   36  H   UNL     1      -5.151   5.446 -25.537  1.00  0.00     0.219 HD
ENDBRANCH   3  35
BRANCH  11  37
HETATM   37  C   UNL     1      -9.589   4.368 -30.266  1.00  0.00     0.273 C 
BRANCH  37  38
HETATM   38  C   UNL     1     -10.772   3.954 -31.097  1.00  0.00    -0.033 A 
HETATM   39  C   UNL     1     -10.583   3.223 -32.280  1.00  0.00     0.009 A 
HETATM   40  C   UNL     1     -11.674   2.869 -33.075  1.00  0.00     0.001 A 
HETATM   41  C   UNL     1     -12.962   3.239 -32.696  1.00  0.00     0.000 A 
HETATM   42  C   UNL     1     -13.165   3.955 -31.519  1.00  0.00     0.001 A 
HETATM   43  C   UNL     1     -12.076   4.310 -30.719  1.00  0.00     0.009 A 
ENDBRANCH  37  38
ENDBRANCH  11  37
TORSDOF 9
ENDMDL
