MODEL 1
REMARK VINA RESULT:      -8.1      0.000      0.000
REMARK  3 active torsions:
REMARK  status: ('A' for Active; 'I' for Inactive)
REMARK    1  A    between atoms: C_3  and  N_4 
REMARK       I    between atoms: N_4  and  C_5 
REMARK    2  A    between atoms: C_5  and  C_6 
REMARK    3  A    between atoms: C_6  and  C_7 
ROOT
HETATM    1  C   UNL     1      -6.775   3.334 -32.739  1.00  0.00     0.286 C 
HETATM    2  N   UNL     1      -5.339   2.807 -32.670  1.00  0.00    -0.056 N 
HETATM    3  H   UNL     1      -5.224   2.143 -31.897  1.00  0.00     0.278 HD
HETATM    4  H   UNL     1      -5.191   2.273 -33.554  1.00  0.00     0.278 HD
HETATM    5  C   UNL     1      -4.335   3.918 -32.603  1.00  0.00     0.209 C 
HETATM    6  C   UNL     1      -4.497   4.790 -33.867  1.00  0.00     0.115 C 
HETATM    7  N   UNL     1      -5.863   5.286 -34.005  1.00  0.00    -0.353 N 
HETATM    8  C   UNL     1      -6.959   4.487 -33.759  1.00  0.00     0.249 C 
HETATM    9  O   UNL     1      -8.046   4.760 -34.256  1.00  0.00    -0.271 OA
HETATM   10  C   UNL     1      -2.930   3.339 -32.497  1.00  0.00     0.035 C 
HETATM   11  C   UNL     1      -1.896   4.464 -32.498  1.00  0.00     0.002 C 
HETATM   12  C   UNL     1      -2.050   5.384 -33.711  1.00  0.00     0.002 C 
HETATM   13  C   UNL     1      -3.474   5.927 -33.854  1.00  0.00     0.027 C 
HETATM   14  H   UNL     1      -6.046   5.983 -34.726  1.00  0.00     0.163 HD
ENDROOT
BRANCH   1  15
HETATM   15  C   UNL     1      -7.754   2.185 -33.009  1.00  0.00     0.146 C 
BRANCH  15  16
HETATM   16  C   UNL     1      -7.065   1.094 -33.795  1.00  0.00     0.224 C 
HETATM   17  N   UNL     1      -6.845  -0.058 -33.076  1.00  0.00    -0.327 N 
HETATM   18  H   UNL     1      -6.754   0.039 -32.070  1.00  0.00     0.169 HD
HETATM   19  O   UNL     1      -6.663   1.339 -34.933  1.00  0.00    -0.273 OA
BRANCH  17  20
HETATM   20  C   UNL     1      -6.273  -1.229 -33.622  1.00  0.00     0.040 A 
HETATM   21  C   UNL     1      -4.892  -1.500 -33.617  1.00  0.00    -0.035 A 
HETATM   22  C   UNL     1      -3.847  -0.529 -33.139  1.00  0.00     0.050 C 
HETATM   23  C   UNL     1      -4.443  -2.724 -34.146  1.00  0.00     0.009 A 
HETATM   24  C   UNL     1      -5.333  -3.634 -34.713  1.00  0.00     0.001 A 
HETATM   25  C   UNL     1      -6.688  -3.329 -34.776  1.00  0.00     0.002 A 
HETATM   26  C   UNL     1      -7.154  -2.126 -34.246  1.00  0.00     0.030 A 
ENDBRANCH  17  20
ENDBRANCH  15  16
ENDBRANCH   1  15
TORSDOF 3
ENDMDL
MODEL 2
REMARK VINA RESULT:      -8.0      2.915      5.260
REMARK  3 active torsions:
REMARK  status: ('A' for Active; 'I' for Inactive)
REMARK    1  A    between atoms: C_3  and  N_4 
REMARK       I    between atoms: N_4  and  C_5 
REMARK    2  A    between atoms: C_5  and  C_6 
REMARK    3  A    between atoms: C_6  and  C_7 
ROOT
HETATM    1  C   UNL     1      -8.606   2.508 -32.388  1.00  0.00     0.286 C 
HETATM    2  N   UNL     1      -8.924   3.172 -33.730  1.00  0.00    -0.056 N 
HETATM    3  H   UNL     1      -8.481   4.094 -33.804  1.00  0.00     0.278 HD
HETATM    4  H   UNL     1      -8.486   2.565 -34.456  1.00  0.00     0.278 HD
HETATM    5  C   UNL     1     -10.400   3.242 -33.986  1.00  0.00     0.209 C 
HETATM    6  C   UNL     1     -10.958   1.802 -33.985  1.00  0.00     0.115 C 
HETATM    7  N   UNL     1     -10.644   1.107 -32.740  1.00  0.00    -0.353 N 
HETATM    8  C   UNL     1      -9.407   1.205 -32.140  1.00  0.00     0.249 C 
HETATM    9  O   UNL     1      -9.027   0.334 -31.366  1.00  0.00    -0.271 OA
HETATM   10  C   UNL     1     -10.661   3.944 -35.312  1.00  0.00     0.035 C 
HETATM   11  C   UNL     1     -12.160   3.958 -35.614  1.00  0.00     0.002 C 
HETATM   12  C   UNL     1     -12.766   2.554 -35.576  1.00  0.00     0.002 C 
HETATM   13  C   UNL     1     -12.461   1.822 -34.267  1.00  0.00     0.027 C 
HETATM   14  H   UNL     1     -11.083   0.201 -32.577  1.00  0.00     0.163 HD
ENDROOT
BRANCH   1  15
HETATM   15  C   UNL     1      -7.096   2.272 -32.253  1.00  0.00     0.146 C 
BRANCH  15  16
HETATM   16  C   UNL     1      -6.647   1.226 -33.245  1.00  0.00     0.224 C 
HETATM   17  N   UNL     1      -6.372   0.002 -32.679  1.00  0.00    -0.327 N 
HETATM   18  H   UNL     1      -6.083   0.001 -31.706  1.00  0.00     0.169 HD
HETATM   19  O   UNL     1      -6.454   1.554 -34.417  1.00  0.00    -0.273 OA
BRANCH  17  20
HETATM   20  C   UNL     1      -5.997  -1.141 -33.421  1.00  0.00     0.040 A 
HETATM   21  C   UNL     1      -4.661  -1.532 -33.630  1.00  0.00    -0.035 A 
HETATM   22  C   UNL     1      -3.470  -0.723 -33.195  1.00  0.00     0.050 C 
HETATM   23  C   UNL     1      -4.410  -2.719 -34.343  1.00  0.00     0.009 A 
HETATM   24  C   UNL     1      -5.454  -3.471 -34.881  1.00  0.00     0.001 A 
HETATM   25  C   UNL     1      -6.766  -3.042 -34.728  1.00  0.00     0.002 A 
HETATM   26  C   UNL     1      -7.036  -1.874 -34.013  1.00  0.00     0.030 A 
ENDBRANCH  17  20
ENDBRANCH  15  16
ENDBRANCH   1  15
TORSDOF 3
ENDMDL
MODEL 3
REMARK VINA RESULT:      -7.9      2.266      7.023
REMARK  3 active torsions:
REMARK  status: ('A' for Active; 'I' for Inactive)
REMARK    1  A    between atoms: C_3  and  N_4 
REMARK       I    between atoms: N_4  and  C_5 
REMARK    2  A    between atoms: C_5  and  C_6 
REMARK    3  A    between atoms: C_6  and  C_7 
ROOT
HETATM    1  C   UNL     1      -4.899   0.687 -30.882  1.00  0.00     0.286 C 
HETATM    2  N   UNL     1      -5.989   0.528 -31.944  1.00  0.00    -0.056 N 
HETATM    3  H   UNL     1      -6.918   0.726 -31.557  1.00  0.00     0.278 HD
HETATM    4  H   UNL     1      -5.796   1.262 -32.659  1.00  0.00     0.278 HD
HETATM    5  C   UNL     1      -5.937  -0.816 -32.606  1.00  0.00     0.209 C 
HETATM    6  C   UNL     1      -4.552  -0.972 -33.270  1.00  0.00     0.115 C 
HETATM    7  N   UNL     1      -3.471  -0.788 -32.307  1.00  0.00    -0.353 N 
HETATM    8  C   UNL     1      -3.503   0.210 -31.356  1.00  0.00     0.249 C 
HETATM    9  O   UNL     1      -2.461   0.611 -30.849  1.00  0.00    -0.271 OA
HETATM   10  C   UNL     1      -7.065  -0.934 -33.624  1.00  0.00     0.035 C 
HETATM   11  C   UNL     1      -6.977  -2.275 -34.353  1.00  0.00     0.002 C 
HETATM   12  C   UNL     1      -5.603  -2.494 -34.987  1.00  0.00     0.002 C 
HETATM   13  C   UNL     1      -4.462  -2.324 -33.981  1.00  0.00     0.027 C 
HETATM   14  H   UNL     1      -2.523  -1.007 -32.608  1.00  0.00     0.163 HD
ENDROOT
BRANCH   1  15
HETATM   15  C   UNL     1      -4.854   2.133 -30.373  1.00  0.00     0.146 C 
BRANCH  15  16
HETATM   16  C   UNL     1      -4.412   3.057 -31.484  1.00  0.00     0.224 C 
HETATM   17  N   UNL     1      -3.220   3.699 -31.235  1.00  0.00    -0.327 N 
HETATM   18  H   UNL     1      -2.974   3.848 -30.261  1.00  0.00     0.169 HD
HETATM   19  O   UNL     1      -5.167   3.253 -32.437  1.00  0.00    -0.273 OA
BRANCH  17  20
HETATM   20  C   UNL     1      -2.583   4.560 -32.156  1.00  0.00     0.040 A 
HETATM   21  C   UNL     1      -2.105   5.842 -31.825  1.00  0.00    -0.035 A 
HETATM   22  C   UNL     1      -2.317   6.499 -30.488  1.00  0.00     0.050 C 
HETATM   23  C   UNL     1      -1.442   6.590 -32.815  1.00  0.00     0.009 A 
HETATM   24  C   UNL     1      -1.301   6.104 -34.114  1.00  0.00     0.001 A 
HETATM   25  C   UNL     1      -1.836   4.866 -34.450  1.00  0.00     0.002 A 
HETATM   26  C   UNL     1      -2.486   4.104 -33.479  1.00  0.00     0.030 A 
ENDBRANCH  17  20
ENDBRANCH  15  16
ENDBRANCH   1  15
TORSDOF 3
ENDMDL
MODEL 4
REMARK VINA RESULT:      -7.8      1.882      6.958
REMARK  3 active torsions:
REMARK  status: ('A' for Active; 'I' for Inactive)
REMARK    1  A    between atoms: C_3  and  N_4 
REMARK       I    between atoms: N_4  and  C_5 
REMARK    2  A    between atoms: C_5  and  C_6 
REMARK    3  A    between atoms: C_6  and  C_7 
ROOT
HETATM    1  C   UNL     1      -5.008   1.469 -32.361  1.00  0.00     0.286 C 
HETATM    2  N   UNL     1      -4.435   0.050 -32.369  1.00  0.00    -0.056 N 
HETATM    3  H   UNL     1      -3.413   0.061 -32.295  1.00  0.00     0.278 HD
HETATM    4  H   UNL     1      -4.797  -0.406 -31.504  1.00  0.00     0.278 HD
HETATM    5  C   UNL     1      -4.899  -0.736 -33.559  1.00  0.00     0.209 C 
HETATM    6  C   UNL     1      -6.441  -0.810 -33.516  1.00  0.00     0.115 C 
HETATM    7  N   UNL     1      -7.039   0.521 -33.465  1.00  0.00    -0.353 N 
HETATM    8  C   UNL     1      -6.526   1.522 -32.669  1.00  0.00     0.249 C 
HETATM    9  O   UNL     1      -7.237   2.458 -32.320  1.00  0.00    -0.271 OA
HETATM   10  C   UNL     1      -4.270  -2.124 -33.537  1.00  0.00     0.035 C 
HETATM   11  C   UNL     1      -4.792  -2.956 -34.709  1.00  0.00     0.002 C 
HETATM   12  C   UNL     1      -6.320  -3.016 -34.735  1.00  0.00     0.002 C 
HETATM   13  C   UNL     1      -6.959  -1.625 -34.701  1.00  0.00     0.027 C 
HETATM   14  H   UNL     1      -8.050   0.593 -33.574  1.00  0.00     0.163 HD
ENDROOT
BRANCH   1  15
HETATM   15  C   UNL     1      -4.679   2.171 -31.038  1.00  0.00     0.146 C 
BRANCH  15  16
HETATM   16  C   UNL     1      -4.116   3.546 -31.311  1.00  0.00     0.224 C 
HETATM   17  N   UNL     1      -3.106   3.560 -32.246  1.00  0.00    -0.327 N 
HETATM   18  H   UNL     1      -2.560   2.710 -32.344  1.00  0.00     0.169 HD
HETATM   19  O   UNL     1      -4.498   4.497 -30.628  1.00  0.00    -0.273 OA
BRANCH  17  20
HETATM   20  C   UNL     1      -2.474   4.738 -32.704  1.00  0.00     0.040 A 
HETATM   21  C   UNL     1      -2.927   5.490 -33.805  1.00  0.00    -0.035 A 
HETATM   22  C   UNL     1      -4.064   5.071 -34.698  1.00  0.00     0.050 C 
HETATM   23  C   UNL     1      -2.246   6.675 -34.138  1.00  0.00     0.009 A 
HETATM   24  C   UNL     1      -1.113   7.077 -33.433  1.00  0.00     0.001 A 
HETATM   25  C   UNL     1      -0.633   6.294 -32.391  1.00  0.00     0.002 A 
HETATM   26  C   UNL     1      -1.302   5.122 -32.037  1.00  0.00     0.030 A 
ENDBRANCH  17  20
ENDBRANCH  15  16
ENDBRANCH   1  15
TORSDOF 3
ENDMDL
MODEL 5
REMARK VINA RESULT:      -7.8      2.008      7.047
REMARK  3 active torsions:
REMARK  status: ('A' for Active; 'I' for Inactive)
REMARK    1  A    between atoms: C_3  and  N_4 
REMARK       I    between atoms: N_4  and  C_5 
REMARK    2  A    between atoms: C_5  and  C_6 
REMARK    3  A    between atoms: C_6  and  C_7 
ROOT
HETATM    1  C   UNL     1      -4.897   1.414 -32.294  1.00  0.00     0.286 C 
HETATM    2  N   UNL     1      -4.293   0.022 -32.500  1.00  0.00    -0.056 N 
HETATM    3  H   UNL     1      -3.279   0.074 -32.639  1.00  0.00     0.278 HD
HETATM    4  H   UNL     1      -4.451  -0.489 -31.605  1.00  0.00     0.278 HD
HETATM    5  C   UNL     1      -4.970  -0.725 -33.610  1.00  0.00     0.209 C 
HETATM    6  C   UNL     1      -6.466  -0.867 -33.253  1.00  0.00     0.115 C 
HETATM    7  N   UNL     1      -7.083   0.433 -33.004  1.00  0.00    -0.353 N 
HETATM    8  C   UNL     1      -6.447   1.416 -32.277  1.00  0.00     0.249 C 
HETATM    9  O   UNL     1      -7.099   2.303 -31.737  1.00  0.00    -0.271 OA
HETATM   10  C   UNL     1      -4.306  -2.084 -33.796  1.00  0.00     0.035 C 
HETATM   11  C   UNL     1      -5.035  -2.881 -34.879  1.00  0.00     0.002 C 
HETATM   12  C   UNL     1      -6.531  -3.005 -34.591  1.00  0.00     0.002 C 
HETATM   13  C   UNL     1      -7.194  -1.646 -34.348  1.00  0.00     0.027 C 
HETATM   14  H   UNL     1      -8.096   0.466 -32.898  1.00  0.00     0.163 HD
ENDROOT
BRANCH   1  15
HETATM   15  C   UNL     1      -4.321   2.065 -31.031  1.00  0.00     0.146 C 
BRANCH  15  16
HETATM   16  C   UNL     1      -3.884   3.479 -31.334  1.00  0.00     0.224 C 
HETATM   17  N   UNL     1      -2.727   3.559 -32.075  1.00  0.00    -0.327 N 
HETATM   18  H   UNL     1      -2.075   2.785 -31.993  1.00  0.00     0.169 HD
HETATM   19  O   UNL     1      -4.497   4.419 -30.825  1.00  0.00    -0.273 OA
BRANCH  17  20
HETATM   20  C   UNL     1      -2.165   4.773 -32.529  1.00  0.00     0.040 A 
HETATM   21  C   UNL     1      -1.137   5.459 -31.855  1.00  0.00    -0.035 A 
HETATM   22  C   UNL     1      -0.593   5.049 -30.513  1.00  0.00     0.050 C 
HETATM   23  C   UNL     1      -0.621   6.635 -32.429  1.00  0.00     0.009 A 
HETATM   24  C   UNL     1      -1.146   7.148 -33.615  1.00  0.00     0.001 A 
HETATM   25  C   UNL     1      -2.207   6.502 -34.238  1.00  0.00     0.002 A 
HETATM   26  C   UNL     1      -2.724   5.328 -33.690  1.00  0.00     0.030 A 
ENDBRANCH  17  20
ENDBRANCH  15  16
ENDBRANCH   1  15
TORSDOF 3
ENDMDL
MODEL 6
REMARK VINA RESULT:      -7.7     15.274     16.947
REMARK  3 active torsions:
REMARK  status: ('A' for Active; 'I' for Inactive)
REMARK    1  A    between atoms: C_3  and  N_4 
REMARK       I    between atoms: N_4  and  C_5 
REMARK    2  A    between atoms: C_5  and  C_6 
REMARK    3  A    between atoms: C_6  and  C_7 
ROOT
HETATM    1  C   UNL     1      -4.018 -13.059 -38.719  1.00  0.00     0.286 C 
HETATM    2  N   UNL     1      -2.969 -13.114 -39.832  1.00  0.00    -0.056 N 
HETATM    3  H   UNL     1      -3.398 -13.333 -40.737  1.00  0.00     0.278 HD
HETATM    4  H   UNL     1      -2.583 -12.148 -39.904  1.00  0.00     0.278 HD
HETATM    5  C   UNL     1      -1.851 -14.057 -39.504  1.00  0.00     0.209 C 
HETATM    6  C   UNL     1      -1.183 -13.576 -38.198  1.00  0.00     0.115 C 
HETATM    7  N   UNL     1      -2.150 -13.466 -37.110  1.00  0.00    -0.353 N 
HETATM    8  C   UNL     1      -3.406 -12.930 -37.301  1.00  0.00     0.249 C 
HETATM    9  O   UNL     1      -4.032 -12.472 -36.352  1.00  0.00    -0.271 OA
HETATM   10  C   UNL     1      -0.858 -14.102 -40.659  1.00  0.00     0.035 C 
HETATM   11  C   UNL     1       0.321 -15.008 -40.304  1.00  0.00     0.002 C 
HETATM   12  C   UNL     1       0.985 -14.597 -38.989  1.00  0.00     0.002 C 
HETATM   13  C   UNL     1      -0.017 -14.497 -37.835  1.00  0.00     0.027 C 
HETATM   14  H   UNL     1      -1.794 -13.291 -36.172  1.00  0.00     0.163 HD
ENDROOT
BRANCH   1  15
HETATM   15  C   UNL     1      -5.034 -11.943 -38.996  1.00  0.00     0.146 C 
BRANCH  15  16
HETATM   16  C   UNL     1      -6.438 -12.496 -38.926  1.00  0.00     0.224 C 
HETATM   17  N   UNL     1      -7.130 -12.414 -40.113  1.00  0.00    -0.327 N 
HETATM   18  H   UNL     1      -6.859 -11.672 -40.751  1.00  0.00     0.169 HD
HETATM   19  O   UNL     1      -6.886 -12.858 -37.837  1.00  0.00    -0.273 OA
BRANCH  17  20
HETATM   20  C   UNL     1      -8.435 -12.924 -40.300  1.00  0.00     0.040 A 
HETATM   21  C   UNL     1      -8.708 -14.257 -40.660  1.00  0.00    -0.035 A 
HETATM   22  C   UNL     1      -7.649 -15.269 -41.004  1.00  0.00     0.050 C 
HETATM   23  C   UNL     1     -10.050 -14.664 -40.769  1.00  0.00     0.009 A 
HETATM   24  C   UNL     1     -11.095 -13.760 -40.578  1.00  0.00     0.001 A 
HETATM   25  C   UNL     1     -10.815 -12.430 -40.290  1.00  0.00     0.002 A 
HETATM   26  C   UNL     1      -9.490 -12.010 -40.165  1.00  0.00     0.030 A 
ENDBRANCH  17  20
ENDBRANCH  15  16
ENDBRANCH   1  15
TORSDOF 3
ENDMDL
MODEL 7
REMARK VINA RESULT:      -7.6      1.944      2.352
REMARK  3 active torsions:
REMARK  status: ('A' for Active; 'I' for Inactive)
REMARK    1  A    between atoms: C_3  and  N_4 
REMARK       I    between atoms: N_4  and  C_5 
REMARK    2  A    between atoms: C_5  and  C_6 
REMARK    3  A    between atoms: C_6  and  C_7 
ROOT
HETATM    1  C   UNL     1      -4.786   3.307 -32.113  1.00  0.00     0.286 C 
HETATM    2  N   UNL     1      -4.325   3.977 -33.410  1.00  0.00    -0.056 N 
HETATM    3  H   UNL     1      -4.331   3.315 -34.193  1.00  0.00     0.278 HD
HETATM    4  H   UNL     1      -5.042   4.704 -33.622  1.00  0.00     0.278 HD
HETATM    5  C   UNL     1      -2.992   4.644 -33.254  1.00  0.00     0.209 C 
HETATM    6  C   UNL     1      -3.113   5.711 -32.145  1.00  0.00     0.115 C 
HETATM    7  N   UNL     1      -3.591   5.131 -30.893  1.00  0.00    -0.353 N 
HETATM    8  C   UNL     1      -4.609   4.202 -30.860  1.00  0.00     0.249 C 
HETATM    9  O   UNL     1      -5.262   4.040 -29.836  1.00  0.00    -0.271 OA
HETATM   10  C   UNL     1      -2.565   5.259 -34.581  1.00  0.00     0.035 C 
HETATM   11  C   UNL     1      -1.238   6.001 -34.414  1.00  0.00     0.002 C 
HETATM   12  C   UNL     1      -1.298   7.037 -33.291  1.00  0.00     0.002 C 
HETATM   13  C   UNL     1      -1.779   6.437 -31.967  1.00  0.00     0.027 C 
HETATM   14  H   UNL     1      -3.575   5.718 -30.060  1.00  0.00     0.163 HD
ENDROOT
BRANCH   1  15
HETATM   15  C   UNL     1      -6.232   2.814 -32.250  1.00  0.00     0.146 C 
BRANCH  15  16
HETATM   16  C   UNL     1      -6.254   1.307 -32.362  1.00  0.00     0.224 C 
HETATM   17  N   UNL     1      -5.834   0.833 -33.583  1.00  0.00    -0.327 N 
HETATM   18  H   UNL     1      -5.957   1.448 -34.381  1.00  0.00     0.169 HD
HETATM   19  O   UNL     1      -6.731   0.644 -31.440  1.00  0.00    -0.273 OA
BRANCH  17  20
HETATM   20  C   UNL     1      -5.712  -0.541 -33.894  1.00  0.00     0.040 A 
HETATM   21  C   UNL     1      -4.554  -1.299 -33.639  1.00  0.00    -0.035 A 
HETATM   22  C   UNL     1      -3.268  -0.720 -33.115  1.00  0.00     0.050 C 
HETATM   23  C   UNL     1      -4.567  -2.672 -33.946  1.00  0.00     0.009 A 
HETATM   24  C   UNL     1      -5.679  -3.268 -34.539  1.00  0.00     0.001 A 
HETATM   25  C   UNL     1      -6.792  -2.498 -34.850  1.00  0.00     0.002 A 
HETATM   26  C   UNL     1      -6.803  -1.137 -34.542  1.00  0.00     0.030 A 
ENDBRANCH  17  20
ENDBRANCH  15  16
ENDBRANCH   1  15
TORSDOF 3
ENDMDL
MODEL 8
REMARK VINA RESULT:      -7.6      3.129      4.904
REMARK  3 active torsions:
REMARK  status: ('A' for Active; 'I' for Inactive)
REMARK    1  A    between atoms: C_3  and  N_4 
REMARK       I    between atoms: N_4  and  C_5 
REMARK    2  A    between atoms: C_5  and  C_6 
REMARK    3  A    between atoms: C_6  and  C_7 
ROOT
HETATM    1  C   UNL     1      -5.214   1.456 -31.526  1.00  0.00     0.286 C 
HETATM    2  N   UNL     1      -5.838   1.325 -32.918  1.00  0.00    -0.056 N 
HETATM    3  H   UNL     1      -5.322   1.877 -33.611  1.00  0.00     0.278 HD
HETATM    4  H   UNL     1      -5.728   0.323 -33.184  1.00  0.00     0.278 HD
HETATM    5  C   UNL     1      -7.298   1.665 -32.912  1.00  0.00     0.209 C 
HETATM    6  C   UNL     1      -8.013   0.701 -31.941  1.00  0.00     0.115 C 
HETATM    7  N   UNL     1      -7.428   0.755 -30.604  1.00  0.00    -0.353 N 
HETATM    8  C   UNL     1      -6.065   0.806 -30.406  1.00  0.00     0.249 C 
HETATM    9  O   UNL     1      -5.583   0.443 -29.338  1.00  0.00    -0.271 OA
HETATM   10  C   UNL     1      -7.859   1.555 -34.325  1.00  0.00     0.035 C 
HETATM   11  C   UNL     1      -9.363   1.832 -34.317  1.00  0.00     0.002 C 
HETATM   12  C   UNL     1     -10.107   0.931 -33.330  1.00  0.00     0.002 C 
HETATM   13  C   UNL     1      -9.514   0.995 -31.920  1.00  0.00     0.027 C 
HETATM   14  H   UNL     1      -7.910   0.264 -29.853  1.00  0.00     0.163 HD
ENDROOT
BRANCH   1  15
HETATM   15  C   UNL     1      -3.780   0.911 -31.530  1.00  0.00     0.146 C 
BRANCH  15  16
HETATM   16  C   UNL     1      -3.660  -0.216 -32.529  1.00  0.00     0.224 C 
HETATM   17  N   UNL     1      -4.257  -1.387 -32.124  1.00  0.00    -0.327 N 
HETATM   18  H   UNL     1      -4.332  -1.542 -31.123  1.00  0.00     0.169 HD
HETATM   19  O   UNL     1      -2.970  -0.053 -33.536  1.00  0.00    -0.273 OA
BRANCH  17  20
HETATM   20  C   UNL     1      -4.324  -2.553 -32.920  1.00  0.00     0.040 A 
HETATM   21  C   UNL     1      -5.256  -2.736 -33.959  1.00  0.00    -0.035 A 
HETATM   22  C   UNL     1      -6.366  -1.770 -34.273  1.00  0.00     0.050 C 
HETATM   23  C   UNL     1      -5.195  -3.919 -34.719  1.00  0.00     0.009 A 
HETATM   24  C   UNL     1      -4.269  -4.919 -34.423  1.00  0.00     0.001 A 
HETATM   25  C   UNL     1      -3.398  -4.759 -33.352  1.00  0.00     0.002 A 
HETATM   26  C   UNL     1      -3.435  -3.587 -32.595  1.00  0.00     0.030 A 
ENDBRANCH  17  20
ENDBRANCH  15  16
ENDBRANCH   1  15
TORSDOF 3
ENDMDL
MODEL 9
REMARK VINA RESULT:      -7.6      3.791      7.244
REMARK  3 active torsions:
REMARK  status: ('A' for Active; 'I' for Inactive)
REMARK    1  A    between atoms: C_3  and  N_4 
REMARK       I    between atoms: N_4  and  C_5 
REMARK    2  A    between atoms: C_5  and  C_6 
REMARK    3  A    between atoms: C_6  and  C_7 
ROOT
HETATM    1  C   UNL     1      -7.505  -0.519 -33.770  1.00  0.00     0.286 C 
HETATM    2  N   UNL     1      -7.329  -1.739 -34.677  1.00  0.00    -0.056 N 
HETATM    3  H   UNL     1      -8.230  -2.179 -34.888  1.00  0.00     0.278 HD
HETATM    4  H   UNL     1      -6.954  -1.369 -35.577  1.00  0.00     0.278 HD
HETATM    5  C   UNL     1      -6.348  -2.722 -34.114  1.00  0.00     0.209 C 
HETATM    6  C   UNL     1      -4.989  -2.007 -33.951  1.00  0.00     0.115 C 
HETATM    7  N   UNL     1      -5.108  -0.810 -33.125  1.00  0.00    -0.353 N 
HETATM    8  C   UNL     1      -6.165   0.066 -33.258  1.00  0.00     0.249 C 
HETATM    9  O   UNL     1      -6.053   1.228 -32.881  1.00  0.00    -0.271 OA
HETATM   10  C   UNL     1      -6.240  -3.930 -35.035  1.00  0.00     0.035 C 
HETATM   11  C   UNL     1      -5.190  -4.906 -34.503  1.00  0.00     0.002 C 
HETATM   12  C   UNL     1      -3.837  -4.228 -34.281  1.00  0.00     0.002 C 
HETATM   13  C   UNL     1      -3.947  -2.981 -33.399  1.00  0.00     0.027 C 
HETATM   14  H   UNL     1      -4.250  -0.340 -32.840  1.00  0.00     0.163 HD
ENDROOT
BRANCH   1  15
HETATM   15  C   UNL     1      -8.354   0.550 -34.468  1.00  0.00     0.146 C 
BRANCH  15  16
HETATM   16  C   UNL     1      -9.638   0.770 -33.702  1.00  0.00     0.224 C 
HETATM   17  N   UNL     1     -10.660   1.287 -34.464  1.00  0.00    -0.327 N 
HETATM   18  H   UNL     1     -10.396   1.844 -35.271  1.00  0.00     0.169 HD
HETATM   19  O   UNL     1      -9.647   0.591 -32.484  1.00  0.00    -0.273 OA
BRANCH  17  20
HETATM   20  C   UNL     1     -11.967   1.516 -33.976  1.00  0.00     0.040 A 
HETATM   21  C   UNL     1     -12.391   2.739 -33.424  1.00  0.00    -0.035 A 
HETATM   22  C   UNL     1     -11.480   3.911 -33.177  1.00  0.00     0.050 C 
HETATM   23  C   UNL     1     -13.731   2.867 -33.017  1.00  0.00     0.009 A 
HETATM   24  C   UNL     1     -14.617   1.793 -33.105  1.00  0.00     0.001 A 
HETATM   25  C   UNL     1     -14.172   0.568 -33.588  1.00  0.00     0.002 A 
HETATM   26  C   UNL     1     -12.849   0.426 -34.008  1.00  0.00     0.030 A 
ENDBRANCH  17  20
ENDBRANCH  15  16
ENDBRANCH   1  15
TORSDOF 3
ENDMDL
MODEL 10
REMARK VINA RESULT:      -7.3      3.428      6.616
REMARK  3 active torsions:
REMARK  status: ('A' for Active; 'I' for Inactive)
REMARK    1  A    between atoms: C_3  and  N_4 
REMARK       I    between atoms: N_4  and  C_5 
REMARK    2  A    between atoms: C_5  and  C_6 
REMARK    3  A    between atoms: C_6  and  C_7 
ROOT
HETATM    1  C   UNL     1      -7.153   0.554 -31.438  1.00  0.00     0.286 C 
HETATM    2  N   UNL     1      -7.331   0.091 -32.886  1.00  0.00    -0.056 N 
HETATM    3  H   UNL     1      -8.323   0.010 -33.132  1.00  0.00     0.278 HD
HETATM    4  H   UNL     1      -6.933   0.853 -33.477  1.00  0.00     0.278 HD
HETATM    5  C   UNL     1      -6.583  -1.178 -33.166  1.00  0.00     0.209 C 
HETATM    6  C   UNL     1      -5.085  -0.924 -32.893  1.00  0.00     0.115 C 
HETATM    7  N   UNL     1      -4.863  -0.439 -31.534  1.00  0.00    -0.353 N 
HETATM    8  C   UNL     1      -5.683   0.503 -30.951  1.00  0.00     0.249 C 
HETATM    9  O   UNL     1      -5.273   1.185 -30.019  1.00  0.00    -0.271 OA
HETATM   10  C   UNL     1      -6.825  -1.612 -34.606  1.00  0.00     0.035 C 
HETATM   11  C   UNL     1      -6.011  -2.868 -34.921  1.00  0.00     0.002 C 
HETATM   12  C   UNL     1      -4.524  -2.677 -34.618  1.00  0.00     0.002 C 
HETATM   13  C   UNL     1      -4.277  -2.188 -33.189  1.00  0.00     0.027 C 
HETATM   14  H   UNL     1      -3.901  -0.373 -31.203  1.00  0.00     0.163 HD
ENDROOT
BRANCH   1  15
HETATM   15  C   UNL     1      -7.761   1.949 -31.244  1.00  0.00     0.146 C 
BRANCH  15  16
HETATM   16  C   UNL     1      -8.684   2.274 -32.395  1.00  0.00     0.224 C 
HETATM   17  N   UNL     1      -9.999   1.934 -32.168  1.00  0.00    -0.327 N 
HETATM   18  H   UNL     1     -10.170   1.172 -31.519  1.00  0.00     0.169 HD
HETATM   19  O   UNL     1      -8.204   2.691 -33.449  1.00  0.00    -0.273 OA
BRANCH  17  20
HETATM   20  C   UNL     1     -11.048   2.201 -33.076  1.00  0.00     0.040 A 
HETATM   21  C   UNL     1     -11.751   3.419 -33.122  1.00  0.00    -0.035 A 
HETATM   22  C   UNL     1     -11.555   4.540 -32.137  1.00  0.00     0.050 C 
HETATM   23  C   UNL     1     -12.744   3.588 -34.104  1.00  0.00     0.009 A 
HETATM   24  C   UNL     1     -13.069   2.558 -34.985  1.00  0.00     0.001 A 
HETATM   25  C   UNL     1     -12.417   1.334 -34.889  1.00  0.00     0.002 A 
HETATM   26  C   UNL     1     -11.421   1.152 -33.929  1.00  0.00     0.030 A 
ENDBRANCH  17  20
ENDBRANCH  15  16
ENDBRANCH   1  15
TORSDOF 3
ENDMDL
