MODEL 1
REMARK VINA RESULT:      -8.2      0.000      0.000
REMARK  5 active torsions:
REMARK  status: ('A' for Active; 'I' for Inactive)
REMARK    1  A    between atoms: C_6  and  C_7 
REMARK    2  A    between atoms: C_12  and  C_13 
REMARK    3  A    between atoms: C_13  and  N_14 
REMARK    4  A    between atoms: C_17  and  O_18 
REMARK    5  A    between atoms: C_17  and  C_19 
ROOT
HETATM    1  C   UNL     1      -5.039   0.013 -33.242  1.00  0.00     0.096 A 
HETATM    2  N   UNL     1      -3.883   0.306 -32.636  1.00  0.00    -0.174 NA
HETATM    3  N   UNL     1      -3.994   1.588 -32.270  1.00  0.00    -0.288 N 
HETATM    4  H   UNL     1      -3.232   2.007 -31.741  1.00  0.00     0.188 HD
HETATM    5  C   UNL     1      -5.151   2.166 -32.703  1.00  0.00     0.120 A 
HETATM    6  C   UNL     1      -5.865   1.177 -33.354  1.00  0.00     0.016 A 
ENDROOT
BRANCH   6   7
HETATM    7  C   UNL     1      -7.181   1.314 -34.028  1.00  0.00     0.277 C 
BRANCH   7   8
HETATM    8  N   UNL     1      -8.336   1.279 -33.055  1.00  0.00    -0.064 N 
HETATM    9  H   UNL     1      -8.001   0.788 -32.214  1.00  0.00     0.280 HD
HETATM   10  C   UNL     1      -9.569   0.534 -33.580  1.00  0.00     0.282 C 
HETATM   11  C   UNL     1     -10.603   1.634 -33.807  1.00  0.00     0.180 C 
HETATM   12  C   UNL     1     -10.321   2.584 -32.652  1.00  0.00     0.076 C 
HETATM   13  C   UNL     1      -8.801   2.663 -32.646  1.00  0.00     0.238 C 
BRANCH  11  14
HETATM   14  O   UNL     1     -10.287   2.331 -35.034  1.00  0.00    -0.379 OA
HETATM   15  H   UNL     1      -9.571   1.840 -35.493  1.00  0.00     0.211 HD
ENDBRANCH  11  14
BRANCH  11  16
HETATM   16  C   UNL     1     -12.006   1.037 -33.792  1.00  0.00     0.419 C 
HETATM   17  F   UNL     1     -11.993  -0.216 -33.296  1.00  0.00    -0.168 F 
HETATM   18  F   UNL     1     -12.825   1.790 -33.030  1.00  0.00    -0.168 F 
HETATM   19  F   UNL     1     -12.514   0.989 -35.039  1.00  0.00    -0.168 F 
ENDBRANCH  11  16
ENDBRANCH   7   8
ENDBRANCH   6   7
BRANCH   1  20
HETATM   20  C   UNL     1      -5.286  -1.334 -33.751  1.00  0.00    -0.003 A 
HETATM   21  C   UNL     1      -4.286  -2.312 -33.711  1.00  0.00     0.037 A 
HETATM   22  C   UNL     1      -4.556  -3.603 -34.166  1.00  0.00     0.035 A 
HETATM   23  C   UNL     1      -5.809  -3.930 -34.678  1.00  0.00     0.024 A 
HETATM   24 CL   UNL     1      -3.329  -4.805 -34.072  1.00  0.00    -0.084 Cl
HETATM   25  C   UNL     1      -6.802  -2.952 -34.745  1.00  0.00     0.003 A 
HETATM   26  C   UNL     1      -6.542  -1.660 -34.283  1.00  0.00     0.014 A 
ENDBRANCH   1  20
TORSDOF 5
ENDMDL
MODEL 2
REMARK VINA RESULT:      -8.1      1.925      2.518
REMARK  5 active torsions:
REMARK  status: ('A' for Active; 'I' for Inactive)
REMARK    1  A    between atoms: C_6  and  C_7 
REMARK    2  A    between atoms: C_12  and  C_13 
REMARK    3  A    between atoms: C_13  and  N_14 
REMARK    4  A    between atoms: C_17  and  O_18 
REMARK    5  A    between atoms: C_17  and  C_19 
ROOT
HETATM    1  C   UNL     1      -6.255   1.103 -31.178  1.00  0.00     0.096 A 
HETATM    2  N   UNL     1      -5.996   1.041 -29.867  1.00  0.00    -0.174 NA
HETATM    3  N   UNL     1      -6.701   2.038 -29.322  1.00  0.00    -0.288 N 
HETATM    4  H   UNL     1      -6.687   2.143 -28.310  1.00  0.00     0.188 HD
HETATM    5  C   UNL     1      -7.338   2.808 -30.250  1.00  0.00     0.120 A 
HETATM    6  C   UNL     1      -7.068   2.241 -31.482  1.00  0.00     0.016 A 
ENDROOT
BRANCH   6   7
HETATM    7  C   UNL     1      -7.513   2.729 -32.813  1.00  0.00     0.277 C 
BRANCH   7   8
HETATM    8  N   UNL     1      -8.967   3.139 -32.822  1.00  0.00    -0.064 N 
HETATM    9  H   UNL     1      -9.099   3.781 -32.029  1.00  0.00     0.280 HD
HETATM   10  C   UNL     1      -9.944   1.969 -32.654  1.00  0.00     0.282 C 
HETATM   11  C   UNL     1     -10.615   1.841 -34.020  1.00  0.00     0.180 C 
HETATM   12  C   UNL     1     -10.727   3.293 -34.459  1.00  0.00     0.076 C 
HETATM   13  C   UNL     1      -9.364   3.862 -34.094  1.00  0.00     0.238 C 
BRANCH  11  14
HETATM   14  O   UNL     1      -9.707   1.177 -34.929  1.00  0.00    -0.379 OA
HETATM   15  H   UNL     1      -8.903   1.732 -35.024  1.00  0.00     0.211 HD
ENDBRANCH  11  14
BRANCH  11  16
HETATM   16  C   UNL     1     -11.955   1.129 -33.873  1.00  0.00     0.419 C 
HETATM   17  F   UNL     1     -11.797  -0.093 -33.328  1.00  0.00    -0.168 F 
HETATM   18  F   UNL     1     -12.779   1.847 -33.084  1.00  0.00    -0.168 F 
HETATM   19  F   UNL     1     -12.546   0.979 -35.075  1.00  0.00    -0.168 F 
ENDBRANCH  11  16
ENDBRANCH   7   8
ENDBRANCH   6   7
BRANCH   1  20
HETATM   20  C   UNL     1      -5.668   0.129 -32.095  1.00  0.00    -0.003 A 
HETATM   21  C   UNL     1      -6.475  -0.759 -32.814  1.00  0.00     0.037 A 
HETATM   22  C   UNL     1      -5.896  -1.655 -33.713  1.00  0.00     0.035 A 
HETATM   23  C   UNL     1      -4.516  -1.690 -33.894  1.00  0.00     0.024 A 
HETATM   24 CL   UNL     1      -6.907  -2.710 -34.621  1.00  0.00    -0.084 Cl
HETATM   25  C   UNL     1      -3.703  -0.826 -33.160  1.00  0.00     0.003 A 
HETATM   26  C   UNL     1      -4.276   0.079 -32.264  1.00  0.00     0.014 A 
ENDBRANCH   1  20
TORSDOF 5
ENDMDL
MODEL 3
REMARK VINA RESULT:      -8.0      4.767      6.053
REMARK  5 active torsions:
REMARK  status: ('A' for Active; 'I' for Inactive)
REMARK    1  A    between atoms: C_6  and  C_7 
REMARK    2  A    between atoms: C_12  and  C_13 
REMARK    3  A    between atoms: C_13  and  N_14 
REMARK    4  A    between atoms: C_17  and  O_18 
REMARK    5  A    between atoms: C_17  and  C_19 
ROOT
HETATM    1  C   UNL     1      -7.173   0.868 -31.959  1.00  0.00     0.096 A 
HETATM    2  N   UNL     1      -8.447   0.699 -31.589  1.00  0.00    -0.174 NA
HETATM    3  N   UNL     1      -8.774   1.819 -30.935  1.00  0.00    -0.288 N 
HETATM    4  H   UNL     1      -9.731   1.924 -30.604  1.00  0.00     0.188 HD
HETATM    5  C   UNL     1      -7.722   2.674 -30.785  1.00  0.00     0.120 A 
HETATM    6  C   UNL     1      -6.647   2.090 -31.431  1.00  0.00     0.016 A 
ENDROOT
BRANCH   6   7
HETATM    7  C   UNL     1      -5.262   2.618 -31.528  1.00  0.00     0.277 C 
BRANCH   7   8
HETATM    8  N   UNL     1      -5.215   4.022 -32.082  1.00  0.00    -0.064 N 
HETATM    9  H   UNL     1      -6.178   4.384 -32.056  1.00  0.00     0.280 HD
HETATM   10  C   UNL     1      -4.716   4.102 -33.530  1.00  0.00     0.282 C 
HETATM   11  C   UNL     1      -3.346   4.767 -33.417  1.00  0.00     0.180 C 
HETATM   12  C   UNL     1      -3.564   5.763 -32.289  1.00  0.00     0.076 C 
HETATM   13  C   UNL     1      -4.336   4.947 -31.263  1.00  0.00     0.238 C 
BRANCH  11  14
HETATM   14  O   UNL     1      -2.385   3.788 -32.959  1.00  0.00    -0.379 OA
HETATM   15  H   UNL     1      -1.518   4.234 -32.847  1.00  0.00     0.211 HD
ENDBRANCH  11  14
BRANCH  11  16
HETATM   16  C   UNL     1      -2.971   5.407 -34.749  1.00  0.00     0.419 C 
HETATM   17  F   UNL     1      -2.687   6.715 -34.595  1.00  0.00    -0.168 F 
HETATM   18  F   UNL     1      -1.890   4.794 -35.272  1.00  0.00    -0.168 F 
HETATM   19  F   UNL     1      -3.985   5.299 -35.630  1.00  0.00    -0.168 F 
ENDBRANCH  11  16
ENDBRANCH   7   8
ENDBRANCH   6   7
BRANCH   1  20
HETATM   20  C   UNL     1      -6.486  -0.163 -32.734  1.00  0.00    -0.003 A 
HETATM   21  C   UNL     1      -5.348  -0.802 -32.231  1.00  0.00     0.037 A 
HETATM   22  C   UNL     1      -4.731  -1.811 -32.971  1.00  0.00     0.035 A 
HETATM   23  C   UNL     1      -5.225  -2.181 -34.220  1.00  0.00     0.024 A 
HETATM   24 CL   UNL     1      -3.358  -2.616 -32.320  1.00  0.00    -0.084 Cl
HETATM   25  C   UNL     1      -6.343  -1.529 -34.739  1.00  0.00     0.003 A 
HETATM   26  C   UNL     1      -6.971  -0.524 -34.000  1.00  0.00     0.014 A 
ENDBRANCH   1  20
TORSDOF 5
ENDMDL
MODEL 4
REMARK VINA RESULT:      -8.0      4.949      6.279
REMARK  5 active torsions:
REMARK  status: ('A' for Active; 'I' for Inactive)
REMARK    1  A    between atoms: C_6  and  C_7 
REMARK    2  A    between atoms: C_12  and  C_13 
REMARK    3  A    between atoms: C_13  and  N_14 
REMARK    4  A    between atoms: C_17  and  O_18 
REMARK    5  A    between atoms: C_17  and  C_19 
ROOT
HETATM    1  C   UNL     1      -7.080   0.435 -34.123  1.00  0.00     0.096 A 
HETATM    2  N   UNL     1      -8.226   0.509 -34.809  1.00  0.00    -0.174 NA
HETATM    3  N   UNL     1      -8.687   1.746 -34.590  1.00  0.00    -0.288 N 
HETATM    4  H   UNL     1      -9.539   2.035 -35.065  1.00  0.00     0.188 HD
HETATM    5  C   UNL     1      -7.923   2.448 -33.705  1.00  0.00     0.120 A 
HETATM    6  C   UNL     1      -6.863   1.629 -33.363  1.00  0.00     0.016 A 
ENDROOT
BRANCH   6   7
HETATM    7  C   UNL     1      -5.768   1.928 -32.406  1.00  0.00     0.277 C 
BRANCH   7   8
HETATM    8  N   UNL     1      -5.390   3.391 -32.398  1.00  0.00    -0.064 N 
HETATM    9  H   UNL     1      -6.113   3.887 -32.936  1.00  0.00     0.280 HD
HETATM   10  C   UNL     1      -4.030   3.684 -33.043  1.00  0.00     0.282 C 
HETATM   11  C   UNL     1      -3.139   4.087 -31.871  1.00  0.00     0.180 C 
HETATM   12  C   UNL     1      -4.104   4.854 -30.981  1.00  0.00     0.076 C 
HETATM   13  C   UNL     1      -5.348   3.978 -31.000  1.00  0.00     0.238 C 
BRANCH  11  14
HETATM   14  O   UNL     1      -2.735   2.896 -31.157  1.00  0.00    -0.379 OA
HETATM   15  H   UNL     1      -3.223   2.865 -30.306  1.00  0.00     0.211 HD
ENDBRANCH  11  14
BRANCH  11  16
HETATM   16  C   UNL     1      -1.964   4.918 -32.377  1.00  0.00     0.419 C 
HETATM   17  F   UNL     1      -2.268   6.231 -32.385  1.00  0.00    -0.168 F 
HETATM   18  F   UNL     1      -0.889   4.733 -31.585  1.00  0.00    -0.168 F 
HETATM   19  F   UNL     1      -1.632   4.557 -33.631  1.00  0.00    -0.168 F 
ENDBRANCH  11  16
ENDBRANCH   7   8
ENDBRANCH   6   7
BRANCH   1  20
HETATM   20  C   UNL     1      -6.274  -0.783 -34.160  1.00  0.00    -0.003 A 
HETATM   21  C   UNL     1      -6.795  -1.975 -34.674  1.00  0.00     0.037 A 
HETATM   22  C   UNL     1      -5.995  -3.116 -34.736  1.00  0.00     0.035 A 
HETATM   23  C   UNL     1      -4.682  -3.090 -34.274  1.00  0.00     0.024 A 
HETATM   24 CL   UNL     1      -6.638  -4.562 -35.410  1.00  0.00    -0.084 Cl
HETATM   25  C   UNL     1      -4.164  -1.912 -33.735  1.00  0.00     0.003 A 
HETATM   26  C   UNL     1      -4.957  -0.764 -33.678  1.00  0.00     0.014 A 
ENDBRANCH   1  20
TORSDOF 5
ENDMDL
MODEL 5
REMARK VINA RESULT:      -8.0      5.788      7.159
REMARK  5 active torsions:
REMARK  status: ('A' for Active; 'I' for Inactive)
REMARK    1  A    between atoms: C_6  and  C_7 
REMARK    2  A    between atoms: C_12  and  C_13 
REMARK    3  A    between atoms: C_13  and  N_14 
REMARK    4  A    between atoms: C_17  and  O_18 
REMARK    5  A    between atoms: C_17  and  C_19 
ROOT
HETATM    1  C   UNL     1      -5.449   1.115 -30.913  1.00  0.00     0.096 A 
HETATM    2  N   UNL     1      -6.533   0.996 -30.138  1.00  0.00    -0.174 NA
HETATM    3  N   UNL     1      -6.702   2.201 -29.583  1.00  0.00    -0.288 N 
HETATM    4  H   UNL     1      -7.512   2.349 -28.985  1.00  0.00     0.188 HD
HETATM    5  C   UNL     1      -5.705   3.076 -29.900  1.00  0.00     0.120 A 
HETATM    6  C   UNL     1      -4.854   2.408 -30.761  1.00  0.00     0.016 A 
ENDROOT
BRANCH   6   7
HETATM    7  C   UNL     1      -3.600   2.925 -31.366  1.00  0.00     0.277 C 
BRANCH   7   8
HETATM    8  N   UNL     1      -3.756   4.323 -31.918  1.00  0.00    -0.064 N 
HETATM    9  H   UNL     1      -4.762   4.463 -32.089  1.00  0.00     0.280 HD
HETATM   10  C   UNL     1      -3.012   4.557 -33.237  1.00  0.00     0.282 C 
HETATM   11  C   UNL     1      -1.873   5.502 -32.862  1.00  0.00     0.180 C 
HETATM   12  C   UNL     1      -2.524   6.389 -31.813  1.00  0.00     0.076 C 
HETATM   13  C   UNL     1      -3.283   5.391 -30.951  1.00  0.00     0.238 C 
BRANCH  11  14
HETATM   14  O   UNL     1      -0.829   4.743 -32.209  1.00  0.00    -0.379 OA
HETATM   15  H   UNL     1      -1.178   3.848 -32.006  1.00  0.00     0.211 HD
ENDBRANCH  11  14
BRANCH  11  16
HETATM   16  C   UNL     1      -1.394   6.251 -34.101  1.00  0.00     0.419 C 
HETATM   17  F   UNL     1      -0.950   5.396 -35.043  1.00  0.00    -0.168 F 
HETATM   18  F   UNL     1      -2.401   6.979 -34.623  1.00  0.00    -0.168 F 
HETATM   19  F   UNL     1      -0.386   7.089 -33.788  1.00  0.00    -0.168 F 
ENDBRANCH  11  16
ENDBRANCH   7   8
ENDBRANCH   6   7
BRANCH   1  20
HETATM   20  C   UNL     1      -4.981  -0.018 -31.709  1.00  0.00    -0.003 A 
HETATM   21  C   UNL     1      -5.739  -0.507 -32.777  1.00  0.00     0.037 A 
HETATM   22  C   UNL     1      -5.255  -1.564 -33.549  1.00  0.00     0.035 A 
HETATM   23  C   UNL     1      -4.028  -2.154 -33.257  1.00  0.00     0.024 A 
HETATM   24 CL   UNL     1      -6.180  -2.127 -34.885  1.00  0.00    -0.084 Cl
HETATM   25  C   UNL     1      -3.279  -1.688 -32.176  1.00  0.00     0.003 A 
HETATM   26  C   UNL     1      -3.754  -0.625 -31.405  1.00  0.00     0.014 A 
ENDBRANCH   1  20
TORSDOF 5
ENDMDL
MODEL 6
REMARK VINA RESULT:      -7.7      1.761      2.483
REMARK  5 active torsions:
REMARK  status: ('A' for Active; 'I' for Inactive)
REMARK    1  A    between atoms: C_6  and  C_7 
REMARK    2  A    between atoms: C_12  and  C_13 
REMARK    3  A    between atoms: C_13  and  N_14 
REMARK    4  A    between atoms: C_17  and  O_18 
REMARK    5  A    between atoms: C_17  and  C_19 
ROOT
HETATM    1  C   UNL     1      -4.136   0.711 -31.664  1.00  0.00     0.096 A 
HETATM    2  N   UNL     1      -3.033   1.467 -31.634  1.00  0.00    -0.174 NA
HETATM    3  N   UNL     1      -3.404   2.607 -31.041  1.00  0.00    -0.288 N 
HETATM    4  H   UNL     1      -2.694   3.316 -30.869  1.00  0.00     0.188 HD
HETATM    5  C   UNL     1      -4.739   2.653 -30.768  1.00  0.00     0.120 A 
HETATM    6  C   UNL     1      -5.264   1.438 -31.167  1.00  0.00     0.016 A 
ENDROOT
BRANCH   6   7
HETATM    7  C   UNL     1      -6.685   1.008 -31.104  1.00  0.00     0.277 C 
BRANCH   7   8
HETATM    8  N   UNL     1      -7.590   1.876 -31.946  1.00  0.00    -0.064 N 
HETATM    9  H   UNL     1      -7.494   2.837 -31.591  1.00  0.00     0.280 HD
HETATM   10  C   UNL     1      -9.071   1.486 -31.871  1.00  0.00     0.282 C 
HETATM   11  C   UNL     1      -9.376   0.907 -33.250  1.00  0.00     0.180 C 
HETATM   12  C   UNL     1      -8.531   1.784 -34.161  1.00  0.00     0.076 C 
HETATM   13  C   UNL     1      -7.209   1.870 -33.414  1.00  0.00     0.238 C 
BRANCH  11  14
HETATM   14  O   UNL     1      -8.849  -0.437 -33.322  1.00  0.00    -0.379 OA
HETATM   15  H   UNL     1      -8.615  -0.728 -32.414  1.00  0.00     0.211 HD
ENDBRANCH  11  14
BRANCH  11  16
HETATM   16  C   UNL     1     -10.874   0.986 -33.524  1.00  0.00     0.419 C 
HETATM   17  F   UNL     1     -11.443   1.984 -32.819  1.00  0.00    -0.168 F 
HETATM   18  F   UNL     1     -11.096   1.208 -34.835  1.00  0.00    -0.168 F 
HETATM   19  F   UNL     1     -11.481  -0.167 -33.182  1.00  0.00    -0.168 F 
ENDBRANCH  11  16
ENDBRANCH   7   8
ENDBRANCH   6   7
BRANCH   1  20
HETATM   20  C   UNL     1      -4.093  -0.638 -32.223  1.00  0.00    -0.003 A 
HETATM   21  C   UNL     1      -4.883  -0.985 -33.324  1.00  0.00     0.037 A 
HETATM   22  C   UNL     1      -4.796  -2.268 -33.867  1.00  0.00     0.035 A 
HETATM   23  C   UNL     1      -3.942  -3.218 -33.314  1.00  0.00     0.024 A 
HETATM   24 CL   UNL     1      -5.743  -2.665 -35.247  1.00  0.00    -0.084 Cl
HETATM   25  C   UNL     1      -3.172  -2.887 -32.200  1.00  0.00     0.003 A 
HETATM   26  C   UNL     1      -3.247  -1.603 -31.656  1.00  0.00     0.014 A 
ENDBRANCH   1  20
TORSDOF 5
ENDMDL
MODEL 7
REMARK VINA RESULT:      -7.7      8.072     10.070
REMARK  5 active torsions:
REMARK  status: ('A' for Active; 'I' for Inactive)
REMARK    1  A    between atoms: C_6  and  C_7 
REMARK    2  A    between atoms: C_12  and  C_13 
REMARK    3  A    between atoms: C_13  and  N_14 
REMARK    4  A    between atoms: C_17  and  O_18 
REMARK    5  A    between atoms: C_17  and  C_19 
ROOT
HETATM    1  C   UNL     1      -2.892   4.696 -33.176  1.00  0.00     0.096 A 
HETATM    2  N   UNL     1      -3.405   4.976 -34.380  1.00  0.00    -0.174 NA
HETATM    3  N   UNL     1      -2.467   5.700 -35.001  1.00  0.00    -0.288 N 
HETATM    4  H   UNL     1      -2.634   5.982 -35.965  1.00  0.00     0.188 HD
HETATM    5  C   UNL     1      -1.398   5.981 -34.203  1.00  0.00     0.120 A 
HETATM    6  C   UNL     1      -1.634   5.353 -32.994  1.00  0.00     0.016 A 
ENDROOT
BRANCH   6   7
HETATM    7  C   UNL     1      -0.774   5.381 -31.783  1.00  0.00     0.277 C 
BRANCH   7   8
HETATM    8  N   UNL     1      -0.866   6.692 -31.037  1.00  0.00    -0.064 N 
HETATM    9  H   UNL     1      -0.991   7.428 -31.746  1.00  0.00     0.280 HD
HETATM   10  C   UNL     1       0.383   7.028 -30.216  1.00  0.00     0.282 C 
HETATM   11  C   UNL     1      -0.072   6.885 -28.766  1.00  0.00     0.180 C 
HETATM   12  C   UNL     1      -1.502   7.401 -28.825  1.00  0.00     0.076 C 
HETATM   13  C   UNL     1      -2.045   6.743 -30.085  1.00  0.00     0.238 C 
BRANCH  11  14
HETATM   14  O   UNL     1      -0.127   5.481 -28.427  1.00  0.00    -0.379 OA
HETATM   15  H   UNL     1      -0.344   4.974 -29.239  1.00  0.00     0.211 HD
ENDBRANCH  11  14
BRANCH  11  16
HETATM   16  C   UNL     1       0.844   7.694 -27.853  1.00  0.00     0.419 C 
HETATM   17  F   UNL     1       0.130   8.482 -27.026  1.00  0.00    -0.168 F 
HETATM   18  F   UNL     1       1.604   6.868 -27.107  1.00  0.00    -0.168 F 
HETATM   19  F   UNL     1       1.662   8.480 -28.579  1.00  0.00    -0.168 F 
ENDBRANCH  11  16
ENDBRANCH   7   8
ENDBRANCH   6   7
BRANCH   1  20
HETATM   20  C   UNL     1      -3.643   3.880 -32.225  1.00  0.00    -0.003 A 
HETATM   21  C   UNL     1      -3.378   2.513 -32.085  1.00  0.00     0.037 A 
HETATM   22  C   UNL     1      -4.079   1.761 -31.143  1.00  0.00     0.035 A 
HETATM   23  C   UNL     1      -5.058   2.350 -30.347  1.00  0.00     0.024 A 
HETATM   24 CL   UNL     1      -3.712   0.091 -30.953  1.00  0.00    -0.084 Cl
HETATM   25  C   UNL     1      -5.346   3.706 -30.500  1.00  0.00     0.003 A 
HETATM   26  C   UNL     1      -4.642   4.468 -31.436  1.00  0.00     0.014 A 
ENDBRANCH   1  20
TORSDOF 5
ENDMDL
MODEL 8
REMARK VINA RESULT:      -7.6     15.202     16.948
REMARK  5 active torsions:
REMARK  status: ('A' for Active; 'I' for Inactive)
REMARK    1  A    between atoms: C_6  and  C_7 
REMARK    2  A    between atoms: C_12  and  C_13 
REMARK    3  A    between atoms: C_13  and  N_14 
REMARK    4  A    between atoms: C_17  and  O_18 
REMARK    5  A    between atoms: C_17  and  C_19 
ROOT
HETATM    1  C   UNL     1      -7.031 -13.200 -38.218  1.00  0.00     0.096 A 
HETATM    2  N   UNL     1      -6.964 -13.388 -36.896  1.00  0.00    -0.174 NA
HETATM    3  N   UNL     1      -5.687 -13.154 -36.572  1.00  0.00    -0.288 N 
HETATM    4  H   UNL     1      -5.423 -13.194 -35.590  1.00  0.00     0.188 HD
HETATM    5  C   UNL     1      -4.900 -12.913 -37.659  1.00  0.00     0.120 A 
HETATM    6  C   UNL     1      -5.733 -12.942 -38.762  1.00  0.00     0.016 A 
ENDROOT
BRANCH   6   7
HETATM    7  C   UNL     1      -5.346 -12.763 -40.185  1.00  0.00     0.277 C 
BRANCH   7   8
HETATM    8  N   UNL     1      -5.221 -14.076 -40.921  1.00  0.00    -0.064 N 
HETATM    9  H   UNL     1      -6.054 -14.632 -40.680  1.00  0.00     0.280 HD
HETATM   10  C   UNL     1      -3.980 -14.889 -40.534  1.00  0.00     0.282 C 
HETATM   11  C   UNL     1      -3.089 -14.823 -41.772  1.00  0.00     0.180 C 
HETATM   12  C   UNL     1      -4.106 -14.869 -42.903  1.00  0.00     0.076 C 
HETATM   13  C   UNL     1      -5.182 -13.904 -42.427  1.00  0.00     0.238 C 
BRANCH  11  14
HETATM   14  O   UNL     1      -2.441 -13.531 -41.817  1.00  0.00    -0.379 OA
HETATM   15  H   UNL     1      -2.317 -13.215 -40.896  1.00  0.00     0.211 HD
ENDBRANCH  11  14
BRANCH  11  16
HETATM   16  C   UNL     1      -2.110 -15.992 -41.768  1.00  0.00     0.419 C 
HETATM   17  F   UNL     1      -1.996 -16.532 -42.997  1.00  0.00    -0.168 F 
HETATM   18  F   UNL     1      -0.891 -15.577 -41.368  1.00  0.00    -0.168 F 
HETATM   19  F   UNL     1      -2.526 -16.957 -40.924  1.00  0.00    -0.168 F 
ENDBRANCH  11  16
ENDBRANCH   7   8
ENDBRANCH   6   7
BRANCH   1  20
HETATM   20  C   UNL     1      -8.304 -13.342 -38.921  1.00  0.00    -0.003 A 
HETATM   21  C   UNL     1      -9.004 -12.218 -39.374  1.00  0.00     0.037 A 
HETATM   22  C   UNL     1     -10.198 -12.378 -40.078  1.00  0.00     0.035 A 
HETATM   23  C   UNL     1     -10.715 -13.647 -40.323  1.00  0.00     0.024 A 
HETATM   24 CL   UNL     1     -11.024 -10.988 -40.666  1.00  0.00    -0.084 Cl
HETATM   25  C   UNL     1     -10.037 -14.771 -39.850  1.00  0.00     0.003 A 
HETATM   26  C   UNL     1      -8.837 -14.618 -39.152  1.00  0.00     0.014 A 
ENDBRANCH   1  20
TORSDOF 5
ENDMDL
MODEL 9
REMARK VINA RESULT:      -7.6      6.298      7.894
REMARK  5 active torsions:
REMARK  status: ('A' for Active; 'I' for Inactive)
REMARK    1  A    between atoms: C_6  and  C_7 
REMARK    2  A    between atoms: C_12  and  C_13 
REMARK    3  A    between atoms: C_13  and  N_14 
REMARK    4  A    between atoms: C_17  and  O_18 
REMARK    5  A    between atoms: C_17  and  C_19 
ROOT
HETATM    1  C   UNL     1      -5.309   2.360 -31.085  1.00  0.00     0.096 A 
HETATM    2  N   UNL     1      -5.662   2.159 -29.811  1.00  0.00    -0.174 NA
HETATM    3  N   UNL     1      -5.644   3.371 -29.246  1.00  0.00    -0.288 N 
HETATM    4  H   UNL     1      -5.933   3.456 -28.274  1.00  0.00     0.188 HD
HETATM    5  C   UNL     1      -5.197   4.344 -30.091  1.00  0.00     0.120 A 
HETATM    6  C   UNL     1      -4.956   3.729 -31.306  1.00  0.00     0.016 A 
ENDROOT
BRANCH   6   7
HETATM    7  C   UNL     1      -4.430   4.359 -32.544  1.00  0.00     0.277 C 
BRANCH   7   8
HETATM    8  N   UNL     1      -2.955   4.097 -32.746  1.00  0.00    -0.064 N 
HETATM    9  H   UNL     1      -2.859   3.095 -32.960  1.00  0.00     0.280 HD
HETATM   10  C   UNL     1      -2.096   4.405 -31.514  1.00  0.00     0.282 C 
HETATM   11  C   UNL     1      -1.296   5.642 -31.916  1.00  0.00     0.180 C 
HETATM   12  C   UNL     1      -1.025   5.385 -33.391  1.00  0.00     0.076 C 
HETATM   13  C   UNL     1      -2.371   4.890 -33.899  1.00  0.00     0.238 C 
BRANCH  11  14
HETATM   14  O   UNL     1      -2.151   6.805 -31.823  1.00  0.00    -0.379 OA
HETATM   15  H   UNL     1      -1.666   7.576 -32.190  1.00  0.00     0.211 HD
ENDBRANCH  11  14
BRANCH  11  16
HETATM   16  C   UNL     1      -0.038   5.745 -31.061  1.00  0.00     0.419 C 
HETATM   17  F   UNL     1       0.874   4.823 -31.428  1.00  0.00    -0.168 F 
HETATM   18  F   UNL     1       0.514   6.968 -31.191  1.00  0.00    -0.168 F 
HETATM   19  F   UNL     1      -0.330   5.550 -29.761  1.00  0.00    -0.168 F 
ENDBRANCH  11  16
ENDBRANCH   7   8
ENDBRANCH   6   7
BRANCH   1  20
HETATM   20  C   UNL     1      -5.253   1.240 -32.022  1.00  0.00    -0.003 A 
HETATM   21  C   UNL     1      -6.151   1.151 -33.091  1.00  0.00     0.037 A 
HETATM   22  C   UNL     1      -6.055   0.094 -33.996  1.00  0.00     0.035 A 
HETATM   23  C   UNL     1      -5.081  -0.890 -33.840  1.00  0.00     0.024 A 
HETATM   24 CL   UNL     1      -7.140   0.022 -35.329  1.00  0.00    -0.084 Cl
HETATM   25  C   UNL     1      -4.200  -0.822 -32.762  1.00  0.00     0.003 A 
HETATM   26  C   UNL     1      -4.285   0.238 -31.857  1.00  0.00     0.014 A 
ENDBRANCH   1  20
TORSDOF 5
ENDMDL
MODEL 10
REMARK VINA RESULT:      -7.5      5.476      6.789
REMARK  5 active torsions:
REMARK  status: ('A' for Active; 'I' for Inactive)
REMARK    1  A    between atoms: C_6  and  C_7 
REMARK    2  A    between atoms: C_12  and  C_13 
REMARK    3  A    between atoms: C_13  and  N_14 
REMARK    4  A    between atoms: C_17  and  O_18 
REMARK    5  A    between atoms: C_17  and  C_19 
ROOT
HETATM    1  C   UNL     1      -4.933  -0.064 -32.260  1.00  0.00     0.096 A 
HETATM    2  N   UNL     1      -4.304  -1.241 -32.164  1.00  0.00    -0.174 NA
HETATM    3  N   UNL     1      -3.265  -1.019 -31.351  1.00  0.00    -0.288 N 
HETATM    4  H   UNL     1      -2.672  -1.807 -31.100  1.00  0.00     0.188 HD
HETATM    5  C   UNL     1      -3.144   0.290 -30.990  1.00  0.00     0.120 A 
HETATM    6  C   UNL     1      -4.207   0.958 -31.568  1.00  0.00     0.016 A 
ENDROOT
BRANCH   6   7
HETATM    7  C   UNL     1      -4.504   2.412 -31.495  1.00  0.00     0.277 C 
BRANCH   7   8
HETATM    8  N   UNL     1      -4.213   3.128 -32.792  1.00  0.00    -0.064 N 
HETATM    9  H   UNL     1      -4.257   2.420 -33.538  1.00  0.00     0.280 HD
HETATM   10  C   UNL     1      -2.830   3.788 -32.842  1.00  0.00     0.282 C 
HETATM   11  C   UNL     1      -3.128   5.285 -32.803  1.00  0.00     0.180 C 
HETATM   12  C   UNL     1      -4.404   5.381 -33.624  1.00  0.00     0.076 C 
HETATM   13  C   UNL     1      -5.228   4.212 -33.103  1.00  0.00     0.238 C 
BRANCH  11  14
HETATM   14  O   UNL     1      -3.450   5.664 -31.445  1.00  0.00    -0.379 OA
HETATM   15  H   UNL     1      -3.729   6.605 -31.444  1.00  0.00     0.211 HD
ENDBRANCH  11  14
BRANCH  11  16
HETATM   16  C   UNL     1      -1.952   6.061 -33.386  1.00  0.00     0.419 C 
HETATM   17  F   UNL     1      -2.285   6.634 -34.559  1.00  0.00    -0.168 F 
HETATM   18  F   UNL     1      -1.564   7.029 -32.532  1.00  0.00    -0.168 F 
HETATM   19  F   UNL     1      -0.904   5.243 -33.603  1.00  0.00    -0.168 F 
ENDBRANCH  11  16
ENDBRANCH   7   8
ENDBRANCH   6   7
BRANCH   1  20
HETATM   20  C   UNL     1      -6.151   0.060 -33.056  1.00  0.00    -0.003 A 
HETATM   21  C   UNL     1      -7.409  -0.163 -32.485  1.00  0.00     0.037 A 
HETATM   22  C   UNL     1      -8.562   0.000 -33.254  1.00  0.00     0.035 A 
HETATM   23  C   UNL     1      -8.477   0.368 -34.595  1.00  0.00     0.024 A 
HETATM   24 CL   UNL     1     -10.102  -0.236 -32.526  1.00  0.00    -0.084 Cl
HETATM   25  C   UNL     1      -7.225   0.565 -35.177  1.00  0.00     0.003 A 
HETATM   26  C   UNL     1      -6.068   0.412 -34.411  1.00  0.00     0.014 A 
ENDBRANCH   1  20
TORSDOF 5
ENDMDL
