MODEL 1
REMARK VINA RESULT:      -9.2      0.000      0.000
REMARK  7 active torsions:
REMARK  status: ('A' for Active; 'I' for Inactive)
REMARK    1  A    between atoms: O_2  and  C_3 
REMARK    2  A    between atoms: C_6  and  C_7 
REMARK    3  A    between atoms: C_7  and  C_8 
REMARK    4  A    between atoms: C_7  and  C_14 
REMARK    5  A    between atoms: C_14  and  C_15 
REMARK       I    between atoms: C_15  and  N_16 
REMARK    6  A    between atoms: N_16  and  C_17 
REMARK    7  A    between atoms: C_17  and  C_18 
ROOT
HETATM    1  C   UNL     1      -5.107  -1.193 -33.169  1.00  0.00     0.060 C 
ENDROOT
BRANCH   1   2
HETATM    2  C   UNL     1      -6.378  -0.428 -33.552  1.00  0.00    -0.049 A 
HETATM    3  C   UNL     1      -7.404  -0.297 -32.595  1.00  0.00     0.010 A 
HETATM    4  C   UNL     1      -8.587   0.388 -32.884  1.00  0.00     0.037 A 
HETATM    5  C   UNL     1      -8.778   0.977 -34.131  1.00  0.00     0.068 A 
HETATM    6  C   UNL     1      -7.763   0.886 -35.080  1.00  0.00     0.037 A 
HETATM    7  C   UNL     1      -6.575   0.198 -34.790  1.00  0.00     0.010 A 
BRANCH   5   8
HETATM    8  O   UNL     1      -9.979   1.611 -34.291  1.00  0.00    -0.356 OA
HETATM    9  C   UNL     1     -11.103   1.025 -33.646  1.00  0.00     0.210 C 
ENDBRANCH   5   8
ENDBRANCH   1   2
BRANCH   1  10
HETATM   10  C   UNL     1      -5.012  -2.623 -33.714  1.00  0.00    -0.049 A 
HETATM   11  C   UNL     1      -3.898  -3.446 -33.494  1.00  0.00     0.008 A 
HETATM   12  C   UNL     1      -3.856  -4.745 -34.008  1.00  0.00     0.001 A 
HETATM   13  C   UNL     1      -4.924  -5.240 -34.751  1.00  0.00     0.000 A 
HETATM   14  C   UNL     1      -6.037  -4.439 -34.981  1.00  0.00     0.001 A 
HETATM   15  C   UNL     1      -6.081  -3.142 -34.467  1.00  0.00     0.008 A 
ENDBRANCH   1  10
BRANCH   1  16
HETATM   16  C   UNL     1      -3.747  -0.464 -33.238  1.00  0.00     0.116 C 
BRANCH  16  17
HETATM   17  C   UNL     1      -3.372   0.546 -32.170  1.00  0.00     0.218 C 
HETATM   18  N   UNL     1      -3.813   1.827 -32.314  1.00  0.00    -0.355 N 
HETATM   19  H   UNL     1      -4.491   2.092 -33.017  1.00  0.00     0.162 HD
HETATM   20  O   UNL     1      -2.636   0.217 -31.237  1.00  0.00    -0.274 OA
BRANCH  18  21
HETATM   21  C   UNL     1      -3.555   2.811 -31.285  1.00  0.00     0.184 C 
BRANCH  21  22
HETATM   22  C   UNL     1      -2.562   3.821 -31.760  1.00  0.00     0.080 A 
HETATM   23  N   UNL     1      -1.428   4.089 -31.067  1.00  0.00    -0.177 NA
HETATM   24  N   UNL     1      -0.769   5.004 -31.820  1.00  0.00    -0.281 N 
HETATM   25  H   UNL     1       0.130   5.346 -31.496  1.00  0.00     0.189 HD
HETATM   26  C   UNL     1      -1.457   5.313 -32.935  1.00  0.00     0.036 A 
HETATM   27  C   UNL     1      -2.606   4.585 -32.931  1.00  0.00    -0.006 A 
HETATM   28  C   UNL     1      -1.265   6.185 -34.098  1.00  0.00     0.059 C 
HETATM   29  C   UNL     1      -3.420   4.847 -34.128  1.00  0.00     0.043 C 
HETATM   30  C   UNL     1      -2.698   6.106 -34.735  1.00  0.00     0.011 C 
ENDBRANCH  21  22
ENDBRANCH  18  21
ENDBRANCH  16  17
ENDBRANCH   1  16
TORSDOF 7
ENDMDL
MODEL 2
REMARK VINA RESULT:      -9.1      1.217      1.854
REMARK  7 active torsions:
REMARK  status: ('A' for Active; 'I' for Inactive)
REMARK    1  A    between atoms: O_2  and  C_3 
REMARK    2  A    between atoms: C_6  and  C_7 
REMARK    3  A    between atoms: C_7  and  C_8 
REMARK    4  A    between atoms: C_7  and  C_14 
REMARK    5  A    between atoms: C_14  and  C_15 
REMARK       I    between atoms: C_15  and  N_16 
REMARK    6  A    between atoms: N_16  and  C_17 
REMARK    7  A    between atoms: C_17  and  C_18 
ROOT
HETATM    1  C   UNL     1      -4.999  -1.160 -33.110  1.00  0.00     0.060 C 
ENDROOT
BRANCH   1   2
HETATM    2  C   UNL     1      -6.296  -0.447 -33.507  1.00  0.00    -0.049 A 
HETATM    3  C   UNL     1      -7.288  -0.252 -32.526  1.00  0.00     0.010 A 
HETATM    4  C   UNL     1      -8.493   0.391 -32.825  1.00  0.00     0.037 A 
HETATM    5  C   UNL     1      -8.739   0.871 -34.108  1.00  0.00     0.068 A 
HETATM    6  C   UNL     1      -7.758   0.716 -35.084  1.00  0.00     0.037 A 
HETATM    7  C   UNL     1      -6.548   0.071 -34.784  1.00  0.00     0.010 A 
BRANCH   5   8
HETATM    8  O   UNL     1      -9.955   1.473 -34.275  1.00  0.00    -0.356 OA
HETATM    9  C   UNL     1      -9.955   2.887 -34.421  1.00  0.00     0.210 C 
ENDBRANCH   5   8
ENDBRANCH   1   2
BRANCH   1  10
HETATM   10  C   UNL     1      -4.871  -2.609 -33.595  1.00  0.00    -0.049 A 
HETATM   11  C   UNL     1      -5.826  -3.220 -34.420  1.00  0.00     0.008 A 
HETATM   12  C   UNL     1      -5.666  -4.543 -34.842  1.00  0.00     0.001 A 
HETATM   13  C   UNL     1      -4.552  -5.276 -34.444  1.00  0.00     0.000 A 
HETATM   14  C   UNL     1      -3.593  -4.688 -33.625  1.00  0.00     0.001 A 
HETATM   15  C   UNL     1      -3.751  -3.366 -33.204  1.00  0.00     0.008 A 
ENDBRANCH   1  10
BRANCH   1  16
HETATM   16  C   UNL     1      -3.661  -0.398 -33.230  1.00  0.00     0.116 C 
BRANCH  16  17
HETATM   17  C   UNL     1      -3.266   0.615 -32.172  1.00  0.00     0.218 C 
HETATM   18  N   UNL     1      -3.483   1.934 -32.432  1.00  0.00    -0.355 N 
HETATM   19  H   UNL     1      -4.021   2.249 -33.229  1.00  0.00     0.162 HD
HETATM   20  O   UNL     1      -2.708   0.244 -31.136  1.00  0.00    -0.274 OA
BRANCH  18  21
HETATM   21  C   UNL     1      -3.203   2.935 -31.426  1.00  0.00     0.184 C 
BRANCH  21  22
HETATM   22  C   UNL     1      -2.639   4.169 -32.054  1.00  0.00     0.080 A 
HETATM   23  N   UNL     1      -3.163   4.697 -33.187  1.00  0.00    -0.177 NA
HETATM   24  N   UNL     1      -2.432   5.816 -33.419  1.00  0.00    -0.281 N 
HETATM   25  H   UNL     1      -2.661   6.390 -34.223  1.00  0.00     0.189 HD
HETATM   26  C   UNL     1      -1.480   5.985 -32.482  1.00  0.00     0.036 A 
HETATM   27  C   UNL     1      -1.575   4.955 -31.599  1.00  0.00    -0.006 A 
HETATM   28  C   UNL     1      -0.434   6.972 -32.192  1.00  0.00     0.059 C 
HETATM   29  C   UNL     1      -0.578   5.066 -30.523  1.00  0.00     0.043 C 
HETATM   30  C   UNL     1       0.358   6.206 -31.073  1.00  0.00     0.011 C 
ENDBRANCH  21  22
ENDBRANCH  18  21
ENDBRANCH  16  17
ENDBRANCH   1  16
TORSDOF 7
ENDMDL
MODEL 3
REMARK VINA RESULT:      -8.9      3.228      7.438
REMARK  7 active torsions:
REMARK  status: ('A' for Active; 'I' for Inactive)
REMARK    1  A    between atoms: O_2  and  C_3 
REMARK    2  A    between atoms: C_6  and  C_7 
REMARK    3  A    between atoms: C_7  and  C_8 
REMARK    4  A    between atoms: C_7  and  C_14 
REMARK    5  A    between atoms: C_14  and  C_15 
REMARK       I    between atoms: C_15  and  N_16 
REMARK    6  A    between atoms: N_16  and  C_17 
REMARK    7  A    between atoms: C_17  and  C_18 
ROOT
HETATM    1  C   UNL     1      -6.712  -0.682 -34.004  1.00  0.00     0.060 C 
ENDROOT
BRANCH   1   2
HETATM    2  C   UNL     1      -5.877   0.240 -33.110  1.00  0.00    -0.049 A 
HETATM    3  C   UNL     1      -5.652   1.566 -33.529  1.00  0.00     0.010 A 
HETATM    4  C   UNL     1      -4.899   2.456 -32.758  1.00  0.00     0.037 A 
HETATM    5  C   UNL     1      -4.359   2.056 -31.539  1.00  0.00     0.068 A 
HETATM    6  C   UNL     1      -4.597   0.758 -31.092  1.00  0.00     0.037 A 
HETATM    7  C   UNL     1      -5.354  -0.135 -31.866  1.00  0.00     0.010 A 
BRANCH   5   8
HETATM    8  O   UNL     1      -3.637   3.015 -30.885  1.00  0.00    -0.356 OA
HETATM    9  C   UNL     1      -2.748   3.796 -31.674  1.00  0.00     0.210 C 
ENDBRANCH   5   8
ENDBRANCH   1   2
BRANCH   1  10
HETATM   10  C   UNL     1      -6.125  -2.080 -34.237  1.00  0.00    -0.049 A 
HETATM   11  C   UNL     1      -4.760  -2.365 -34.079  1.00  0.00     0.008 A 
HETATM   12  C   UNL     1      -4.269  -3.655 -34.298  1.00  0.00     0.001 A 
HETATM   13  C   UNL     1      -5.132  -4.678 -34.681  1.00  0.00     0.000 A 
HETATM   14  C   UNL     1      -6.488  -4.415 -34.844  1.00  0.00     0.001 A 
HETATM   15  C   UNL     1      -6.981  -3.127 -34.623  1.00  0.00     0.008 A 
ENDBRANCH   1  10
BRANCH   1  16
HETATM   16  C   UNL     1      -8.243  -0.734 -33.802  1.00  0.00     0.116 C 
BRANCH  16  17
HETATM   17  C   UNL     1      -8.948   0.384 -33.059  1.00  0.00     0.218 C 
HETATM   18  N   UNL     1      -9.415   1.441 -33.780  1.00  0.00    -0.355 N 
HETATM   19  H   UNL     1      -9.436   1.440 -34.793  1.00  0.00     0.162 HD
HETATM   20  O   UNL     1      -9.036   0.354 -31.829  1.00  0.00    -0.274 OA
BRANCH  18  21
HETATM   21  C   UNL     1     -10.167   2.495 -33.136  1.00  0.00     0.184 C 
BRANCH  21  22
HETATM   22  C   UNL     1     -11.592   2.476 -33.588  1.00  0.00     0.080 A 
HETATM   23  N   UNL     1     -12.226   3.602 -33.996  1.00  0.00    -0.177 NA
HETATM   24  N   UNL     1     -13.463   3.189 -34.368  1.00  0.00    -0.281 N 
HETATM   25  H   UNL     1     -14.119   3.874 -34.728  1.00  0.00     0.189 HD
HETATM   26  C   UNL     1     -13.612   1.862 -34.194  1.00  0.00     0.036 A 
HETATM   27  C   UNL     1     -12.445   1.373 -33.694  1.00  0.00    -0.006 A 
HETATM   28  C   UNL     1     -14.668   0.870 -34.419  1.00  0.00     0.059 C 
HETATM   29  C   UNL     1     -12.510  -0.082 -33.485  1.00  0.00     0.043 C 
HETATM   30  C   UNL     1     -14.048  -0.362 -33.669  1.00  0.00     0.011 C 
ENDBRANCH  21  22
ENDBRANCH  18  21
ENDBRANCH  16  17
ENDBRANCH   1  16
TORSDOF 7
ENDMDL
MODEL 4
REMARK VINA RESULT:      -8.9      1.885      4.724
REMARK  7 active torsions:
REMARK  status: ('A' for Active; 'I' for Inactive)
REMARK    1  A    between atoms: O_2  and  C_3 
REMARK    2  A    between atoms: C_6  and  C_7 
REMARK    3  A    between atoms: C_7  and  C_8 
REMARK    4  A    between atoms: C_7  and  C_14 
REMARK    5  A    between atoms: C_14  and  C_15 
REMARK       I    between atoms: C_15  and  N_16 
REMARK    6  A    between atoms: N_16  and  C_17 
REMARK    7  A    between atoms: C_17  and  C_18 
ROOT
HETATM    1  C   UNL     1      -6.986   0.653 -32.592  1.00  0.00     0.060 C 
ENDROOT
BRANCH   1   2
HETATM    2  C   UNL     1      -6.235  -0.540 -33.193  1.00  0.00    -0.049 A 
HETATM    3  C   UNL     1      -4.982  -0.891 -32.654  1.00  0.00     0.010 A 
HETATM    4  C   UNL     1      -4.248  -1.969 -33.158  1.00  0.00     0.037 A 
HETATM    5  C   UNL     1      -4.747  -2.738 -34.205  1.00  0.00     0.068 A 
HETATM    6  C   UNL     1      -5.999  -2.427 -34.730  1.00  0.00     0.037 A 
HETATM    7  C   UNL     1      -6.736  -1.345 -34.224  1.00  0.00     0.010 A 
BRANCH   5   8
HETATM    8  O   UNL     1      -3.932  -3.758 -34.611  1.00  0.00    -0.356 OA
HETATM    9  C   UNL     1      -3.643  -4.767 -33.652  1.00  0.00     0.210 C 
ENDBRANCH   5   8
ENDBRANCH   1   2
BRANCH   1  10
HETATM   10  C   UNL     1      -8.436   0.820 -33.061  1.00  0.00    -0.049 A 
HETATM   11  C   UNL     1      -9.480   0.001 -32.606  1.00  0.00     0.008 A 
HETATM   12  C   UNL     1     -10.788   0.192 -33.059  1.00  0.00     0.001 A 
HETATM   13  C   UNL     1     -11.074   1.201 -33.974  1.00  0.00     0.000 A 
HETATM   14  C   UNL     1     -10.052   2.024 -34.438  1.00  0.00     0.001 A 
HETATM   15  C   UNL     1      -8.745   1.835 -33.985  1.00  0.00     0.008 A 
ENDBRANCH   1  10
BRANCH   1  16
HETATM   16  C   UNL     1      -6.837   0.946 -31.083  1.00  0.00     0.116 C 
BRANCH  16  17
HETATM   17  C   UNL     1      -6.250   2.266 -30.620  1.00  0.00     0.218 C 
HETATM   18  N   UNL     1      -4.984   2.578 -31.011  1.00  0.00    -0.355 N 
HETATM   19  H   UNL     1      -4.482   2.040 -31.707  1.00  0.00     0.162 HD
HETATM   20  O   UNL     1      -6.890   2.996 -29.860  1.00  0.00    -0.274 OA
BRANCH  18  21
HETATM   21  C   UNL     1      -4.405   3.859 -30.669  1.00  0.00     0.184 C 
BRANCH  21  22
HETATM   22  C   UNL     1      -3.354   4.244 -31.659  1.00  0.00     0.080 A 
HETATM   23  N   UNL     1      -2.045   4.324 -31.316  1.00  0.00    -0.177 NA
HETATM   24  N   UNL     1      -1.404   4.646 -32.467  1.00  0.00    -0.281 N 
HETATM   25  H   UNL     1      -0.394   4.747 -32.451  1.00  0.00     0.189 HD
HETATM   26  C   UNL     1      -2.267   4.776 -33.492  1.00  0.00     0.036 A 
HETATM   27  C   UNL     1      -3.518   4.533 -33.017  1.00  0.00    -0.006 A 
HETATM   28  C   UNL     1      -2.182   5.082 -34.923  1.00  0.00     0.059 C 
HETATM   29  C   UNL     1      -4.532   4.637 -34.078  1.00  0.00     0.043 C 
HETATM   30  C   UNL     1      -3.705   5.289 -35.247  1.00  0.00     0.011 C 
ENDBRANCH  21  22
ENDBRANCH  18  21
ENDBRANCH  16  17
ENDBRANCH   1  16
TORSDOF 7
ENDMDL
MODEL 5
REMARK VINA RESULT:      -8.8      2.797      4.536
REMARK  7 active torsions:
REMARK  status: ('A' for Active; 'I' for Inactive)
REMARK    1  A    between atoms: O_2  and  C_3 
REMARK    2  A    between atoms: C_6  and  C_7 
REMARK    3  A    between atoms: C_7  and  C_8 
REMARK    4  A    between atoms: C_7  and  C_14 
REMARK    5  A    between atoms: C_14  and  C_15 
REMARK       I    between atoms: C_15  and  N_16 
REMARK    6  A    between atoms: N_16  and  C_17 
REMARK    7  A    between atoms: C_17  and  C_18 
ROOT
HETATM    1  C   UNL     1      -6.457  -0.459 -33.070  1.00  0.00     0.060 C 
ENDROOT
BRANCH   1   2
HETATM    2  C   UNL     1      -7.860   0.088 -33.354  1.00  0.00    -0.049 A 
HETATM    3  C   UNL     1      -8.848  -0.037 -32.358  1.00  0.00     0.010 A 
HETATM    4  C   UNL     1     -10.147   0.441 -32.556  1.00  0.00     0.037 A 
HETATM    5  C   UNL     1     -10.495   1.071 -33.747  1.00  0.00     0.068 A 
HETATM    6  C   UNL     1      -9.524   1.232 -34.732  1.00  0.00     0.037 A 
HETATM    7  C   UNL     1      -8.220   0.753 -34.533  1.00  0.00     0.010 A 
BRANCH   5   8
HETATM    8  O   UNL     1     -11.796   1.486 -33.821  1.00  0.00    -0.356 OA
HETATM    9  C   UNL     1     -12.795   0.480 -33.721  1.00  0.00     0.210 C 
ENDBRANCH   5   8
ENDBRANCH   1   2
BRANCH   1  10
HETATM   10  C   UNL     1      -6.114  -1.782 -33.766  1.00  0.00    -0.049 A 
HETATM   11  C   UNL     1      -7.094  -2.651 -34.267  1.00  0.00     0.008 A 
HETATM   12  C   UNL     1      -6.736  -3.846 -34.897  1.00  0.00     0.001 A 
HETATM   13  C   UNL     1      -5.394  -4.191 -35.035  1.00  0.00     0.000 A 
HETATM   14  C   UNL     1      -4.407  -3.343 -34.544  1.00  0.00     0.001 A 
HETATM   15  C   UNL     1      -4.764  -2.148 -33.915  1.00  0.00     0.008 A 
ENDBRANCH   1  10
BRANCH   1  16
HETATM   16  C   UNL     1      -5.259   0.517 -33.079  1.00  0.00     0.116 C 
BRANCH  16  17
HETATM   17  C   UNL     1      -5.450   1.957 -32.643  1.00  0.00     0.218 C 
HETATM   18  N   UNL     1      -5.748   2.882 -33.597  1.00  0.00    -0.355 N 
HETATM   19  H   UNL     1      -5.986   2.625 -34.547  1.00  0.00     0.162 HD
HETATM   20  O   UNL     1      -5.276   2.277 -31.465  1.00  0.00    -0.274 OA
BRANCH  18  21
HETATM   21  C   UNL     1      -6.022   4.254 -33.228  1.00  0.00     0.184 C 
BRANCH  21  22
HETATM   22  C   UNL     1      -7.495   4.508 -33.201  1.00  0.00     0.080 A 
HETATM   23  N   UNL     1      -8.123   5.178 -34.197  1.00  0.00    -0.177 NA
HETATM   24  N   UNL     1      -9.434   5.167 -33.851  1.00  0.00    -0.281 N 
HETATM   25  H   UNL     1     -10.106   5.608 -34.470  1.00  0.00     0.189 HD
HETATM   26  C   UNL     1      -9.629   4.528 -32.681  1.00  0.00     0.036 A 
HETATM   27  C   UNL     1      -8.419   4.099 -32.233  1.00  0.00    -0.006 A 
HETATM   28  C   UNL     1     -10.775   4.188 -31.832  1.00  0.00     0.059 C 
HETATM   29  C   UNL     1      -8.537   3.371 -30.960  1.00  0.00     0.043 C 
HETATM   30  C   UNL     1     -10.022   3.690 -30.547  1.00  0.00     0.011 C 
ENDBRANCH  21  22
ENDBRANCH  18  21
ENDBRANCH  16  17
ENDBRANCH   1  16
TORSDOF 7
ENDMDL
MODEL 6
REMARK VINA RESULT:      -8.8      1.998      3.180
REMARK  7 active torsions:
REMARK  status: ('A' for Active; 'I' for Inactive)
REMARK    1  A    between atoms: O_2  and  C_3 
REMARK    2  A    between atoms: C_6  and  C_7 
REMARK    3  A    between atoms: C_7  and  C_8 
REMARK    4  A    between atoms: C_7  and  C_14 
REMARK    5  A    between atoms: C_14  and  C_15 
REMARK       I    between atoms: C_15  and  N_16 
REMARK    6  A    between atoms: N_16  and  C_17 
REMARK    7  A    between atoms: C_17  and  C_18 
ROOT
HETATM    1  C   UNL     1      -5.142  -1.182 -33.146  1.00  0.00     0.060 C 
ENDROOT
BRANCH   1   2
HETATM    2  C   UNL     1      -6.439  -0.479 -33.561  1.00  0.00    -0.049 A 
HETATM    3  C   UNL     1      -7.412  -0.218 -32.575  1.00  0.00     0.010 A 
HETATM    4  C   UNL     1      -8.616   0.419 -32.890  1.00  0.00     0.037 A 
HETATM    5  C   UNL     1      -8.880   0.828 -34.194  1.00  0.00     0.068 A 
HETATM    6  C   UNL     1      -7.918   0.608 -35.176  1.00  0.00     0.037 A 
HETATM    7  C   UNL     1      -6.709  -0.031 -34.860  1.00  0.00     0.010 A 
BRANCH   5   8
HETATM    8  O   UNL     1     -10.093   1.432 -34.373  1.00  0.00    -0.356 OA
HETATM    9  C   UNL     1     -11.189   0.898 -33.641  1.00  0.00     0.210 C 
ENDBRANCH   5   8
ENDBRANCH   1   2
BRANCH   1  10
HETATM   10  C   UNL     1      -4.968  -2.608 -33.682  1.00  0.00    -0.049 A 
HETATM   11  C   UNL     1      -3.819  -3.375 -33.437  1.00  0.00     0.008 A 
HETATM   12  C   UNL     1      -3.705  -4.673 -33.942  1.00  0.00     0.001 A 
HETATM   13  C   UNL     1      -4.735  -5.223 -34.702  1.00  0.00     0.000 A 
HETATM   14  C   UNL     1      -5.881  -4.478 -34.956  1.00  0.00     0.001 A 
HETATM   15  C   UNL     1      -5.997  -3.182 -34.450  1.00  0.00     0.008 A 
ENDBRANCH   1  10
BRANCH   1  16
HETATM   16  C   UNL     1      -3.817  -0.390 -33.190  1.00  0.00     0.116 C 
BRANCH  16  17
HETATM   17  C   UNL     1      -3.631   0.830 -32.308  1.00  0.00     0.218 C 
HETATM   18  N   UNL     1      -4.248   1.988 -32.675  1.00  0.00    -0.355 N 
HETATM   19  H   UNL     1      -4.930   2.026 -33.422  1.00  0.00     0.162 HD
HETATM   20  O   UNL     1      -2.891   0.777 -31.323  1.00  0.00    -0.274 OA
BRANCH  18  21
HETATM   21  C   UNL     1      -4.174   3.158 -31.828  1.00  0.00     0.184 C 
BRANCH  21  22
HETATM   22  C   UNL     1      -5.426   3.308 -31.026  1.00  0.00     0.080 A 
HETATM   23  N   UNL     1      -5.438   3.135 -29.682  1.00  0.00    -0.177 NA
HETATM   24  N   UNL     1      -6.715   3.397 -29.309  1.00  0.00    -0.281 N 
HETATM   25  H   UNL     1      -6.957   3.341 -28.325  1.00  0.00     0.189 HD
HETATM   26  C   UNL     1      -7.483   3.712 -30.370  1.00  0.00     0.036 A 
HETATM   27  C   UNL     1      -6.700   3.661 -31.481  1.00  0.00    -0.006 A 
HETATM   28  C   UNL     1      -8.880   4.093 -30.597  1.00  0.00     0.059 C 
HETATM   29  C   UNL     1      -7.456   4.009 -32.694  1.00  0.00     0.043 C 
HETATM   30  C   UNL     1      -8.937   3.994 -32.163  1.00  0.00     0.011 C 
ENDBRANCH  21  22
ENDBRANCH  18  21
ENDBRANCH  16  17
ENDBRANCH   1  16
TORSDOF 7
ENDMDL
MODEL 7
REMARK VINA RESULT:      -8.7      2.266      5.000
REMARK  7 active torsions:
REMARK  status: ('A' for Active; 'I' for Inactive)
REMARK    1  A    between atoms: O_2  and  C_3 
REMARK    2  A    between atoms: C_6  and  C_7 
REMARK    3  A    between atoms: C_7  and  C_8 
REMARK    4  A    between atoms: C_7  and  C_14 
REMARK    5  A    between atoms: C_14  and  C_15 
REMARK       I    between atoms: C_15  and  N_16 
REMARK    6  A    between atoms: N_16  and  C_17 
REMARK    7  A    between atoms: C_17  and  C_18 
ROOT
HETATM    1  C   UNL     1      -6.516   0.833 -33.658  1.00  0.00     0.060 C 
ENDROOT
BRANCH   1   2
HETATM    2  C   UNL     1      -5.916  -0.552 -33.928  1.00  0.00    -0.049 A 
HETATM    3  C   UNL     1      -4.782  -0.952 -33.194  1.00  0.00     0.010 A 
HETATM    4  C   UNL     1      -4.189  -2.202 -33.394  1.00  0.00     0.037 A 
HETATM    5  C   UNL     1      -4.717  -3.096 -34.320  1.00  0.00     0.068 A 
HETATM    6  C   UNL     1      -5.856  -2.732 -35.033  1.00  0.00     0.037 A 
HETATM    7  C   UNL     1      -6.453  -1.477 -34.832  1.00  0.00     0.010 A 
BRANCH   5   8
HETATM    8  O   UNL     1      -4.042  -4.281 -34.427  1.00  0.00    -0.356 OA
HETATM    9  C   UNL     1      -3.381  -4.748 -33.259  1.00  0.00     0.210 C 
ENDBRANCH   5   8
ENDBRANCH   1   2
BRANCH   1  10
HETATM   10  C   UNL     1      -8.048   0.889 -33.620  1.00  0.00    -0.049 A 
HETATM   11  C   UNL     1      -8.790   1.834 -34.343  1.00  0.00     0.008 A 
HETATM   12  C   UNL     1     -10.187   1.845 -34.281  1.00  0.00     0.001 A 
HETATM   13  C   UNL     1     -10.861   0.915 -33.495  1.00  0.00     0.000 A 
HETATM   14  C   UNL     1     -10.143  -0.029 -32.769  1.00  0.00     0.001 A 
HETATM   15  C   UNL     1      -8.748  -0.043 -32.832  1.00  0.00     0.008 A 
ENDBRANCH   1  10
BRANCH   1  16
HETATM   16  C   UNL     1      -5.885   1.719 -32.561  1.00  0.00     0.116 C 
BRANCH  16  17
HETATM   17  C   UNL     1      -4.981   2.874 -32.945  1.00  0.00     0.218 C 
HETATM   18  N   UNL     1      -3.746   2.941 -32.374  1.00  0.00    -0.355 N 
HETATM   19  H   UNL     1      -3.361   2.184 -31.823  1.00  0.00     0.162 HD
HETATM   20  O   UNL     1      -5.388   3.754 -33.707  1.00  0.00    -0.274 OA
BRANCH  18  21
HETATM   21  C   UNL     1      -2.812   3.974 -32.765  1.00  0.00     0.184 C 
BRANCH  21  22
HETATM   22  C   UNL     1      -2.620   4.958 -31.657  1.00  0.00     0.080 A 
HETATM   23  N   UNL     1      -3.650   5.364 -30.876  1.00  0.00    -0.177 NA
HETATM   24  N   UNL     1      -3.090   6.203 -29.970  1.00  0.00    -0.281 N 
HETATM   25  H   UNL     1      -3.683   6.624 -29.262  1.00  0.00     0.189 HD
HETATM   26  C   UNL     1      -1.765   6.334 -30.173  1.00  0.00     0.036 A 
HETATM   27  C   UNL     1      -1.429   5.562 -31.241  1.00  0.00    -0.006 A 
HETATM   28  C   UNL     1      -0.656   7.056 -29.541  1.00  0.00     0.059 C 
HETATM   29  C   UNL     1       0.013   5.629 -31.529  1.00  0.00     0.043 C 
HETATM   30  C   UNL     1       0.463   6.831 -30.619  1.00  0.00     0.011 C 
ENDBRANCH  21  22
ENDBRANCH  18  21
ENDBRANCH  16  17
ENDBRANCH   1  16
TORSDOF 7
ENDMDL
MODEL 8
REMARK VINA RESULT:      -8.6      1.724      2.439
REMARK  7 active torsions:
REMARK  status: ('A' for Active; 'I' for Inactive)
REMARK    1  A    between atoms: O_2  and  C_3 
REMARK    2  A    between atoms: C_6  and  C_7 
REMARK    3  A    between atoms: C_7  and  C_8 
REMARK    4  A    between atoms: C_7  and  C_14 
REMARK    5  A    between atoms: C_14  and  C_15 
REMARK       I    between atoms: C_15  and  N_16 
REMARK    6  A    between atoms: N_16  and  C_17 
REMARK    7  A    between atoms: C_17  and  C_18 
ROOT
HETATM    1  C   UNL     1      -6.774   0.223 -33.209  1.00  0.00     0.060 C 
ENDROOT
BRANCH   1   2
HETATM    2  C   UNL     1      -8.274   0.454 -33.416  1.00  0.00    -0.049 A 
HETATM    3  C   UNL     1      -9.185  -0.254 -32.607  1.00  0.00     0.010 A 
HETATM    4  C   UNL     1     -10.566  -0.088 -32.747  1.00  0.00     0.037 A 
HETATM    5  C   UNL     1     -11.080   0.800 -33.687  1.00  0.00     0.068 A 
HETATM    6  C   UNL     1     -10.196   1.533 -34.475  1.00  0.00     0.037 A 
HETATM    7  C   UNL     1      -8.809   1.366 -34.334  1.00  0.00     0.010 A 
BRANCH   5   8
HETATM    8  O   UNL     1     -12.445   0.866 -33.731  1.00  0.00    -0.356 OA
HETATM    9  C   UNL     1     -13.015   1.616 -34.797  1.00  0.00     0.210 C 
ENDBRANCH   5   8
ENDBRANCH   1   2
BRANCH   1  10
HETATM   10  C   UNL     1      -6.240  -1.122 -33.716  1.00  0.00    -0.049 A 
HETATM   11  C   UNL     1      -4.920  -1.544 -33.502  1.00  0.00     0.008 A 
HETATM   12  C   UNL     1      -4.478  -2.781 -33.979  1.00  0.00     0.001 A 
HETATM   13  C   UNL     1      -5.347  -3.614 -34.679  1.00  0.00     0.000 A 
HETATM   14  C   UNL     1      -6.661  -3.213 -34.902  1.00  0.00     0.001 A 
HETATM   15  C   UNL     1      -7.104  -1.978 -34.424  1.00  0.00     0.008 A 
ENDBRANCH   1  10
BRANCH   1  16
HETATM   16  C   UNL     1      -5.792   1.377 -33.512  1.00  0.00     0.116 C 
BRANCH  16  17
HETATM   17  C   UNL     1      -5.090   2.095 -32.375  1.00  0.00     0.218 C 
HETATM   18  N   UNL     1      -3.742   2.265 -32.456  1.00  0.00    -0.355 N 
HETATM   19  H   UNL     1      -3.219   2.061 -33.299  1.00  0.00     0.162 HD
HETATM   20  O   UNL     1      -5.727   2.456 -31.382  1.00  0.00    -0.274 OA
BRANCH  18  21
HETATM   21  C   UNL     1      -3.034   3.014 -31.442  1.00  0.00     0.184 C 
BRANCH  21  22
HETATM   22  C   UNL     1      -2.475   4.277 -32.014  1.00  0.00     0.080 A 
HETATM   23  N   UNL     1      -3.000   4.853 -33.122  1.00  0.00    -0.177 NA
HETATM   24  N   UNL     1      -2.274   5.984 -33.304  1.00  0.00    -0.281 N 
HETATM   25  H   UNL     1      -2.505   6.593 -34.082  1.00  0.00     0.189 HD
HETATM   26  C   UNL     1      -1.322   6.114 -32.361  1.00  0.00     0.036 A 
HETATM   27  C   UNL     1      -1.413   5.045 -31.525  1.00  0.00    -0.006 A 
HETATM   28  C   UNL     1      -0.279   7.090 -32.028  1.00  0.00     0.059 C 
HETATM   29  C   UNL     1      -0.415   5.112 -30.446  1.00  0.00     0.043 C 
HETATM   30  C   UNL     1       0.516   6.278 -30.944  1.00  0.00     0.011 C 
ENDBRANCH  21  22
ENDBRANCH  18  21
ENDBRANCH  16  17
ENDBRANCH   1  16
TORSDOF 7
ENDMDL
MODEL 9
REMARK VINA RESULT:      -8.6      1.516      1.964
REMARK  7 active torsions:
REMARK  status: ('A' for Active; 'I' for Inactive)
REMARK    1  A    between atoms: O_2  and  C_3 
REMARK    2  A    between atoms: C_6  and  C_7 
REMARK    3  A    between atoms: C_7  and  C_8 
REMARK    4  A    between atoms: C_7  and  C_14 
REMARK    5  A    between atoms: C_14  and  C_15 
REMARK       I    between atoms: C_15  and  N_16 
REMARK    6  A    between atoms: N_16  and  C_17 
REMARK    7  A    between atoms: C_17  and  C_18 
ROOT
HETATM    1  C   UNL     1      -6.426  -0.471 -33.078  1.00  0.00     0.060 C 
ENDROOT
BRANCH   1   2
HETATM    2  C   UNL     1      -7.801   0.131 -33.390  1.00  0.00    -0.049 A 
HETATM    3  C   UNL     1      -8.822   0.020 -32.425  1.00  0.00     0.010 A 
HETATM    4  C   UNL     1     -10.097   0.548 -32.649  1.00  0.00     0.037 A 
HETATM    5  C   UNL     1     -10.388   1.216 -33.835  1.00  0.00     0.068 A 
HETATM    6  C   UNL     1      -9.383   1.365 -34.787  1.00  0.00     0.037 A 
HETATM    7  C   UNL     1      -8.103   0.835 -34.562  1.00  0.00     0.010 A 
BRANCH   5   8
HETATM    8  O   UNL     1     -11.671   1.678 -33.935  1.00  0.00    -0.356 OA
HETATM    9  C   UNL     1     -12.335   1.458 -35.173  1.00  0.00     0.210 C 
ENDBRANCH   5   8
ENDBRANCH   1   2
BRANCH   1  10
HETATM   10  C   UNL     1      -6.117  -1.798 -33.781  1.00  0.00    -0.049 A 
HETATM   11  C   UNL     1      -7.119  -2.642 -34.283  1.00  0.00     0.008 A 
HETATM   12  C   UNL     1      -6.790  -3.842 -34.921  1.00  0.00     0.001 A 
HETATM   13  C   UNL     1      -5.457  -4.217 -35.064  1.00  0.00     0.000 A 
HETATM   14  C   UNL     1      -4.449  -3.395 -34.572  1.00  0.00     0.001 A 
HETATM   15  C   UNL     1      -4.776  -2.195 -33.936  1.00  0.00     0.008 A 
ENDBRANCH   1  10
BRANCH   1  16
HETATM   16  C   UNL     1      -5.193   0.459 -33.047  1.00  0.00     0.116 C 
BRANCH  16  17
HETATM   17  C   UNL     1      -5.285   1.820 -32.384  1.00  0.00     0.218 C 
HETATM   18  N   UNL     1      -5.328   2.923 -33.182  1.00  0.00    -0.355 N 
HETATM   19  H   UNL     1      -5.445   2.862 -34.187  1.00  0.00     0.162 HD
HETATM   20  O   UNL     1      -5.259   1.914 -31.155  1.00  0.00    -0.274 OA
BRANCH  18  21
HETATM   21  C   UNL     1      -5.499   4.239 -32.607  1.00  0.00     0.184 C 
BRANCH  21  22
HETATM   22  C   UNL     1      -4.179   4.812 -32.201  1.00  0.00     0.080 A 
HETATM   23  N   UNL     1      -3.876   5.057 -30.904  1.00  0.00    -0.177 NA
HETATM   24  N   UNL     1      -2.601   5.518 -30.926  1.00  0.00    -0.281 N 
HETATM   25  H   UNL     1      -2.154   5.758 -30.047  1.00  0.00     0.189 HD
HETATM   26  C   UNL     1      -2.120   5.574 -32.182  1.00  0.00     0.036 A 
HETATM   27  C   UNL     1      -3.095   5.138 -33.023  1.00  0.00    -0.006 A 
HETATM   28  C   UNL     1      -0.857   5.955 -32.822  1.00  0.00     0.059 C 
HETATM   29  C   UNL     1      -2.650   5.149 -34.425  1.00  0.00     0.043 C 
HETATM   30  C   UNL     1      -1.307   5.963 -34.326  1.00  0.00     0.011 C 
ENDBRANCH  21  22
ENDBRANCH  18  21
ENDBRANCH  16  17
ENDBRANCH   1  16
TORSDOF 7
ENDMDL
MODEL 10
REMARK VINA RESULT:      -8.4      4.107      8.914
REMARK  7 active torsions:
REMARK  status: ('A' for Active; 'I' for Inactive)
REMARK    1  A    between atoms: O_2  and  C_3 
REMARK    2  A    between atoms: C_6  and  C_7 
REMARK    3  A    between atoms: C_7  and  C_8 
REMARK    4  A    between atoms: C_7  and  C_14 
REMARK    5  A    between atoms: C_14  and  C_15 
REMARK       I    between atoms: C_15  and  N_16 
REMARK    6  A    between atoms: N_16  and  C_17 
REMARK    7  A    between atoms: C_17  and  C_18 
ROOT
HETATM    1  C   UNL     1      -7.311   0.441 -32.138  1.00  0.00     0.060 C 
ENDROOT
BRANCH   1   2
HETATM    2  C   UNL     1      -6.498  -0.644 -32.853  1.00  0.00    -0.049 A 
HETATM    3  C   UNL     1      -5.158  -0.848 -32.469  1.00  0.00     0.010 A 
HETATM    4  C   UNL     1      -4.364  -1.822 -33.082  1.00  0.00     0.037 A 
HETATM    5  C   UNL     1      -4.886  -2.630 -34.088  1.00  0.00     0.068 A 
HETATM    6  C   UNL     1      -6.218  -2.465 -34.461  1.00  0.00     0.037 A 
HETATM    7  C   UNL     1      -7.015  -1.488 -33.844  1.00  0.00     0.010 A 
BRANCH   5   8
HETATM    8  O   UNL     1      -4.008  -3.537 -34.613  1.00  0.00    -0.356 OA
HETATM    9  C   UNL     1      -3.519  -4.539 -33.730  1.00  0.00     0.210 C 
ENDBRANCH   5   8
ENDBRANCH   1   2
BRANCH   1  10
HETATM   10  C   UNL     1      -6.929   1.884 -32.487  1.00  0.00    -0.049 A 
HETATM   11  C   UNL     1      -7.043   2.941 -31.572  1.00  0.00     0.008 A 
HETATM   12  C   UNL     1      -6.679   4.242 -31.933  1.00  0.00     0.001 A 
HETATM   13  C   UNL     1      -6.199   4.506 -33.212  1.00  0.00     0.000 A 
HETATM   14  C   UNL     1      -6.079   3.472 -34.134  1.00  0.00     0.001 A 
HETATM   15  C   UNL     1      -6.441   2.172 -33.775  1.00  0.00     0.008 A 
ENDBRANCH   1  10
BRANCH   1  16
HETATM   16  C   UNL     1      -8.841   0.269 -32.017  1.00  0.00     0.116 C 
BRANCH  16  17
HETATM   17  C   UNL     1      -9.763   0.954 -33.008  1.00  0.00     0.218 C 
HETATM   18  N   UNL     1     -10.694   1.823 -32.525  1.00  0.00    -0.355 N 
HETATM   19  H   UNL     1     -10.698   2.134 -31.561  1.00  0.00     0.162 HD
HETATM   20  O   UNL     1      -9.701   0.676 -34.208  1.00  0.00    -0.274 OA
BRANCH  18  21
HETATM   21  C   UNL     1     -11.542   2.567 -33.430  1.00  0.00     0.184 C 
BRANCH  21  22
HETATM   22  C   UNL     1     -12.954   2.082 -33.347  1.00  0.00     0.080 A 
HETATM   23  N   UNL     1     -13.335   0.899 -33.886  1.00  0.00    -0.177 NA
HETATM   24  N   UNL     1     -14.650   0.782 -33.573  1.00  0.00    -0.281 N 
HETATM   25  H   UNL     1     -15.149  -0.050 -33.869  1.00  0.00     0.189 HD
HETATM   26  C   UNL     1     -15.086   1.848 -32.876  1.00  0.00     0.036 A 
HETATM   27  C   UNL     1     -14.038   2.700 -32.716  1.00  0.00    -0.006 A 
HETATM   28  C   UNL     1     -16.349   2.277 -32.265  1.00  0.00     0.059 C 
HETATM   29  C   UNL     1     -14.421   3.894 -31.946  1.00  0.00     0.043 C 
HETATM   30  C   UNL     1     -15.989   3.764 -31.914  1.00  0.00     0.011 C 
ENDBRANCH  21  22
ENDBRANCH  18  21
ENDBRANCH  16  17
ENDBRANCH   1  16
TORSDOF 7
ENDMDL
