MODEL 1
REMARK VINA RESULT:      -8.4      0.000      0.000
REMARK  4 active torsions:
REMARK  status: ('A' for Active; 'I' for Inactive)
REMARK    1  A    between atoms: C_9  and  C_10 
REMARK    2  A    between atoms: C_18  and  C_19 
REMARK       I    between atoms: C_19  and  N_20 
REMARK    3  A    between atoms: N_20  and  C_21 
REMARK    4  A    between atoms: C_24  and  O_25 
ROOT
HETATM    1  C   UNL     1      -7.549   4.269 -29.789  1.00  0.00     0.070 C 
HETATM    2  C   UNL     1      -6.985   3.997 -31.163  1.00  0.00     0.037 C 
HETATM    3  N   UNL     1      -5.763   4.604 -31.437  1.00  0.00    -0.192 N 
HETATM    4  C   UNL     1      -5.269   4.718 -32.687  1.00  0.00     0.725 A 
HETATM    5  N   UNL     1      -5.879   4.051 -33.712  1.00  0.00    -0.084 N 
HETATM    6  N   UNL     1      -5.303   4.336 -34.898  1.00  0.00    -0.149 NA
HETATM    7  C   UNL     1      -4.327   5.162 -34.504  1.00  0.00     0.275 A 
HETATM    8  N   UNL     1      -4.266   5.416 -33.156  1.00  0.00    -0.054 NA
HETATM    9  C   UNL     1      -7.032   3.160 -33.539  1.00  0.00     0.202 C 
HETATM   10  C   UNL     1      -7.615   3.288 -32.134  1.00  0.00     0.062 C 
HETATM   11  H   UNL     1      -5.369   5.210 -30.721  1.00  0.00     0.184 HD
ENDROOT
BRANCH  10  12
HETATM   12  C   UNL     1      -8.976   2.700 -32.001  1.00  0.00     0.256 C 
HETATM   13  N   UNL     1      -9.918   3.262 -32.831  1.00  0.00    -0.323 N 
HETATM   14  H   UNL     1      -9.624   4.037 -33.410  1.00  0.00     0.169 HD
HETATM   15  O   UNL     1      -9.151   1.832 -31.153  1.00  0.00    -0.267 OA
BRANCH  13  16
HETATM   16  C   UNL     1     -11.264   2.861 -32.978  1.00  0.00     0.035 A 
HETATM   17  C   UNL     1     -12.344   3.517 -32.385  1.00  0.00     0.032 A 
HETATM   18  C   UNL     1     -13.648   3.044 -32.569  1.00  0.00     0.039 A 
HETATM   19  C   UNL     1     -13.899   1.914 -33.346  1.00  0.00     0.068 A 
HETATM   20  C   UNL     1     -12.826   1.248 -33.933  1.00  0.00     0.039 A 
HETATM   21  C   UNL     1     -11.518   1.721 -33.752  1.00  0.00     0.032 A 
BRANCH  19  22
HETATM   22  O   UNL     1     -15.216   1.565 -33.441  1.00  0.00    -0.356 OA
HETATM   23  C   UNL     1     -16.094   2.097 -32.458  1.00  0.00     0.210 C 
ENDBRANCH  19  22
ENDBRANCH  13  16
ENDBRANCH  10  12
BRANCH   9  24
HETATM   24  C   UNL     1      -6.643   1.716 -33.864  1.00  0.00    -0.026 A 
HETATM   25  C   UNL     1      -5.611   1.095 -33.137  1.00  0.00     0.035 A 
HETATM   26  C   UNL     1      -5.236  -0.227 -33.407  1.00  0.00     0.056 A 
HETATM   27 CL   UNL     1      -3.965  -0.912 -32.459  1.00  0.00    -0.083 Cl
HETATM   28  C   UNL     1      -5.886  -0.944 -34.416  1.00  0.00     0.055 A 
HETATM   29 CL   UNL     1      -5.487  -2.580 -34.801  1.00  0.00    -0.083 Cl
HETATM   30  C   UNL     1      -6.901  -0.333 -35.156  1.00  0.00     0.026 A 
HETATM   31  C   UNL     1      -7.272   0.988 -34.889  1.00  0.00     0.011 A 
ENDBRANCH   9  24
TORSDOF 4
ENDMDL
MODEL 2
REMARK VINA RESULT:      -8.4      1.991      2.693
REMARK  4 active torsions:
REMARK  status: ('A' for Active; 'I' for Inactive)
REMARK    1  A    between atoms: C_9  and  C_10 
REMARK    2  A    between atoms: C_18  and  C_19 
REMARK       I    between atoms: C_19  and  N_20 
REMARK    3  A    between atoms: N_20  and  C_21 
REMARK    4  A    between atoms: C_24  and  O_25 
ROOT
HETATM    1  C   UNL     1      -6.606   4.482 -29.322  1.00  0.00     0.070 C 
HETATM    2  C   UNL     1      -5.607   3.994 -30.342  1.00  0.00     0.037 C 
HETATM    3  N   UNL     1      -4.359   4.611 -30.299  1.00  0.00    -0.192 N 
HETATM    4  C   UNL     1      -3.465   4.520 -31.303  1.00  0.00     0.725 A 
HETATM    5  N   UNL     1      -3.690   3.639 -32.325  1.00  0.00    -0.084 N 
HETATM    6  N   UNL     1      -2.739   3.733 -33.276  1.00  0.00    -0.149 NA
HETATM    7  C   UNL     1      -1.951   4.675 -32.743  1.00  0.00     0.275 A 
HETATM    8  N   UNL     1      -2.356   5.177 -31.531  1.00  0.00    -0.054 NA
HETATM    9  C   UNL     1      -4.840   2.729 -32.383  1.00  0.00     0.202 C 
HETATM   10  C   UNL     1      -5.870   3.081 -31.312  1.00  0.00     0.062 C 
HETATM   11  H   UNL     1      -4.231   5.361 -29.624  1.00  0.00     0.184 HD
ENDROOT
BRANCH  10  12
HETATM   12  C   UNL     1      -7.198   2.448 -31.537  1.00  0.00     0.256 C 
HETATM   13  N   UNL     1      -7.983   3.095 -32.464  1.00  0.00    -0.323 N 
HETATM   14  H   UNL     1      -7.618   3.947 -32.867  1.00  0.00     0.169 HD
HETATM   15  O   UNL     1      -7.495   1.470 -30.860  1.00  0.00    -0.267 OA
BRANCH  13  16
HETATM   16  C   UNL     1      -9.250   2.685 -32.934  1.00  0.00     0.035 A 
HETATM   17  C   UNL     1     -10.448   3.317 -32.600  1.00  0.00     0.032 A 
HETATM   18  C   UNL     1     -11.666   2.837 -33.096  1.00  0.00     0.039 A 
HETATM   19  C   UNL     1     -11.709   1.723 -33.934  1.00  0.00     0.068 A 
HETATM   20  C   UNL     1     -10.519   1.080 -34.263  1.00  0.00     0.039 A 
HETATM   21  C   UNL     1      -9.297   1.561 -33.769  1.00  0.00     0.032 A 
BRANCH  19  22
HETATM   22  O   UNL     1     -12.962   1.364 -34.345  1.00  0.00    -0.356 OA
HETATM   23  C   UNL     1     -13.474   0.136 -33.845  1.00  0.00     0.210 C 
ENDBRANCH  19  22
ENDBRANCH  13  16
ENDBRANCH  10  12
BRANCH   9  24
HETATM   24  C   UNL     1      -4.375   1.275 -32.270  1.00  0.00    -0.026 A 
HETATM   25  C   UNL     1      -4.898   0.309 -33.149  1.00  0.00     0.035 A 
HETATM   26  C   UNL     1      -4.488  -1.028 -33.074  1.00  0.00     0.056 A 
HETATM   27 CL   UNL     1      -5.176  -2.145 -34.198  1.00  0.00    -0.083 Cl
HETATM   28  C   UNL     1      -3.552  -1.417 -32.111  1.00  0.00     0.055 A 
HETATM   29 CL   UNL     1      -2.991  -3.045 -31.962  1.00  0.00    -0.083 Cl
HETATM   30  C   UNL     1      -3.039  -0.470 -31.222  1.00  0.00     0.026 A 
HETATM   31  C   UNL     1      -3.452   0.863 -31.294  1.00  0.00     0.011 A 
ENDBRANCH   9  24
TORSDOF 4
ENDMDL
MODEL 3
REMARK VINA RESULT:      -8.3      3.345      6.923
REMARK  4 active torsions:
REMARK  status: ('A' for Active; 'I' for Inactive)
REMARK    1  A    between atoms: C_9  and  C_10 
REMARK    2  A    between atoms: C_18  and  C_19 
REMARK       I    between atoms: C_19  and  N_20 
REMARK    3  A    between atoms: N_20  and  C_21 
REMARK    4  A    between atoms: C_24  and  O_25 
ROOT
HETATM    1  C   UNL     1     -11.386   0.411 -33.460  1.00  0.00     0.070 C 
HETATM    2  C   UNL     1     -10.597   1.695 -33.539  1.00  0.00     0.037 C 
HETATM    3  N   UNL     1     -11.329   2.824 -33.901  1.00  0.00    -0.192 N 
HETATM    4  C   UNL     1     -10.748   3.970 -34.307  1.00  0.00     0.725 A 
HETATM    5  N   UNL     1      -9.394   4.117 -34.183  1.00  0.00    -0.084 N 
HETATM    6  N   UNL     1      -8.974   5.287 -34.705  1.00  0.00    -0.149 NA
HETATM    7  C   UNL     1     -10.141   5.811 -35.101  1.00  0.00     0.275 A 
HETATM    8  N   UNL     1     -11.252   5.040 -34.868  1.00  0.00    -0.054 NA
HETATM    9  C   UNL     1      -8.512   3.110 -33.580  1.00  0.00     0.202 C 
HETATM   10  C   UNL     1      -9.255   1.794 -33.363  1.00  0.00     0.062 C 
HETATM   11  H   UNL     1     -12.313   2.693 -34.123  1.00  0.00     0.184 HD
ENDROOT
BRANCH  10  12
HETATM   12  C   UNL     1      -8.352   0.641 -33.098  1.00  0.00     0.256 C 
HETATM   13  N   UNL     1      -7.719   0.150 -34.218  1.00  0.00    -0.323 N 
HETATM   14  H   UNL     1      -7.951   0.573 -35.105  1.00  0.00     0.169 HD
HETATM   15  O   UNL     1      -8.292   0.204 -31.955  1.00  0.00    -0.267 OA
BRANCH  13  16
HETATM   16  C   UNL     1      -6.755  -0.881 -34.261  1.00  0.00     0.035 A 
HETATM   17  C   UNL     1      -7.007  -2.164 -34.749  1.00  0.00     0.032 A 
HETATM   18  C   UNL     1      -5.998  -3.135 -34.742  1.00  0.00     0.039 A 
HETATM   19  C   UNL     1      -4.726  -2.844 -34.252  1.00  0.00     0.068 A 
HETATM   20  C   UNL     1      -4.470  -1.569 -33.754  1.00  0.00     0.039 A 
HETATM   21  C   UNL     1      -5.478  -0.594 -33.762  1.00  0.00     0.032 A 
BRANCH  19  22
HETATM   22  O   UNL     1      -3.840  -3.883 -34.306  1.00  0.00    -0.356 OA
HETATM   23  C   UNL     1      -3.408  -4.424 -33.064  1.00  0.00     0.210 C 
ENDBRANCH  19  22
ENDBRANCH  13  16
ENDBRANCH  10  12
BRANCH   9  24
HETATM   24  C   UNL     1      -7.907   3.643 -32.279  1.00  0.00    -0.026 A 
HETATM   25  C   UNL     1      -6.519   3.854 -32.196  1.00  0.00     0.035 A 
HETATM   26  C   UNL     1      -5.935   4.346 -31.021  1.00  0.00     0.056 A 
HETATM   27 CL   UNL     1      -4.224   4.584 -31.011  1.00  0.00    -0.083 Cl
HETATM   28  C   UNL     1      -6.736   4.627 -29.910  1.00  0.00     0.055 A 
HETATM   29 CL   UNL     1      -6.092   5.244 -28.430  1.00  0.00    -0.083 Cl
HETATM   30  C   UNL     1      -8.113   4.405 -29.975  1.00  0.00     0.026 A 
HETATM   31  C   UNL     1      -8.694   3.910 -31.146  1.00  0.00     0.011 A 
ENDBRANCH   9  24
TORSDOF 4
ENDMDL
MODEL 4
REMARK VINA RESULT:      -8.2      2.641      6.847
REMARK  4 active torsions:
REMARK  status: ('A' for Active; 'I' for Inactive)
REMARK    1  A    between atoms: C_9  and  C_10 
REMARK    2  A    between atoms: C_18  and  C_19 
REMARK       I    between atoms: C_19  and  N_20 
REMARK    3  A    between atoms: N_20  and  C_21 
REMARK    4  A    between atoms: C_24  and  O_25 
ROOT
HETATM    1  C   UNL     1     -10.098   5.519 -35.381  1.00  0.00     0.070 C 
HETATM    2  C   UNL     1     -10.311   4.108 -34.890  1.00  0.00     0.037 C 
HETATM    3  N   UNL     1     -11.353   3.414 -35.501  1.00  0.00    -0.192 N 
HETATM    4  C   UNL     1     -11.870   2.278 -34.992  1.00  0.00     0.725 A 
HETATM    5  N   UNL     1     -11.239   1.664 -33.946  1.00  0.00    -0.084 N 
HETATM    6  N   UNL     1     -11.930   0.588 -33.516  1.00  0.00    -0.149 NA
HETATM    7  C   UNL     1     -12.957   0.598 -34.374  1.00  0.00     0.275 A 
HETATM    8  N   UNL     1     -12.953   1.612 -35.299  1.00  0.00    -0.054 NA
HETATM    9  C   UNL     1      -9.982   2.137 -33.354  1.00  0.00     0.202 C 
HETATM   10  C   UNL     1      -9.624   3.528 -33.873  1.00  0.00     0.062 C 
HETATM   11  H   UNL     1     -11.910   3.916 -36.189  1.00  0.00     0.184 HD
ENDROOT
BRANCH  10  12
HETATM   12  C   UNL     1      -8.579   4.211 -33.063  1.00  0.00     0.256 C 
HETATM   13  N   UNL     1      -7.289   3.937 -33.458  1.00  0.00    -0.323 N 
HETATM   14  H   UNL     1      -7.166   3.277 -34.214  1.00  0.00     0.169 HD
HETATM   15  O   UNL     1      -8.939   4.891 -32.110  1.00  0.00    -0.267 OA
BRANCH  13  16
HETATM   16  C   UNL     1      -6.105   4.495 -32.929  1.00  0.00     0.035 A 
HETATM   17  C   UNL     1      -5.420   5.564 -33.508  1.00  0.00     0.032 A 
HETATM   18  C   UNL     1      -4.242   6.048 -32.927  1.00  0.00     0.039 A 
HETATM   19  C   UNL     1      -3.730   5.478 -31.762  1.00  0.00     0.068 A 
HETATM   20  C   UNL     1      -4.402   4.404 -31.184  1.00  0.00     0.039 A 
HETATM   21  C   UNL     1      -5.584   3.919 -31.763  1.00  0.00     0.032 A 
BRANCH  19  22
HETATM   22  O   UNL     1      -2.576   6.049 -31.304  1.00  0.00    -0.356 OA
HETATM   23  C   UNL     1      -1.380   5.298 -31.467  1.00  0.00     0.210 C 
ENDBRANCH  19  22
ENDBRANCH  13  16
ENDBRANCH  10  12
BRANCH   9  24
HETATM   24  C   UNL     1      -8.860   1.128 -33.611  1.00  0.00    -0.026 A 
HETATM   25  C   UNL     1      -8.038   0.719 -32.545  1.00  0.00     0.035 A 
HETATM   26  C   UNL     1      -7.006  -0.207 -32.746  1.00  0.00     0.056 A 
HETATM   27 CL   UNL     1      -6.053  -0.659 -31.379  1.00  0.00    -0.083 Cl
HETATM   28  C   UNL     1      -6.779  -0.731 -34.023  1.00  0.00     0.055 A 
HETATM   29 CL   UNL     1      -5.534  -1.882 -34.348  1.00  0.00    -0.083 Cl
HETATM   30  C   UNL     1      -7.578  -0.318 -35.092  1.00  0.00     0.026 A 
HETATM   31  C   UNL     1      -8.604   0.609 -34.891  1.00  0.00     0.011 A 
ENDBRANCH   9  24
TORSDOF 4
ENDMDL
MODEL 5
REMARK VINA RESULT:      -8.2      3.574      6.503
REMARK  4 active torsions:
REMARK  status: ('A' for Active; 'I' for Inactive)
REMARK    1  A    between atoms: C_9  and  C_10 
REMARK    2  A    between atoms: C_18  and  C_19 
REMARK       I    between atoms: C_19  and  N_20 
REMARK    3  A    between atoms: N_20  and  C_21 
REMARK    4  A    between atoms: C_24  and  O_25 
ROOT
HETATM    1  C   UNL     1      -4.233   3.309 -32.629  1.00  0.00     0.070 C 
HETATM    2  C   UNL     1      -5.663   3.551 -32.213  1.00  0.00     0.037 C 
HETATM    3  N   UNL     1      -6.004   4.883 -31.995  1.00  0.00    -0.192 N 
HETATM    4  C   UNL     1      -7.124   5.252 -31.341  1.00  0.00     0.725 A 
HETATM    5  N   UNL     1      -8.068   4.308 -31.043  1.00  0.00    -0.084 N 
HETATM    6  N   UNL     1      -9.082   4.834 -30.325  1.00  0.00    -0.149 NA
HETATM    7  C   UNL     1      -8.694   6.113 -30.255  1.00  0.00     0.275 A 
HETATM    8  N   UNL     1      -7.505   6.412 -30.871  1.00  0.00    -0.054 NA
HETATM    9  C   UNL     1      -7.969   2.897 -31.435  1.00  0.00     0.202 C 
HETATM   10  C   UNL     1      -6.576   2.576 -31.971  1.00  0.00     0.062 C 
HETATM   11  H   UNL     1      -5.266   5.577 -32.089  1.00  0.00     0.184 HD
ENDROOT
BRANCH  10  12
HETATM   12  C   UNL     1      -6.293   1.117 -32.047  1.00  0.00     0.256 C 
HETATM   13  N   UNL     1      -6.304   0.605 -33.324  1.00  0.00    -0.323 N 
HETATM   14  H   UNL     1      -6.543   1.237 -34.076  1.00  0.00     0.169 HD
HETATM   15  O   UNL     1      -6.136   0.503 -30.998  1.00  0.00    -0.267 OA
BRANCH  13  16
HETATM   16  C   UNL     1      -5.999  -0.720 -33.708  1.00  0.00     0.035 A 
HETATM   17  C   UNL     1      -4.719  -1.274 -33.650  1.00  0.00     0.032 A 
HETATM   18  C   UNL     1      -4.499  -2.592 -34.066  1.00  0.00     0.039 A 
HETATM   19  C   UNL     1      -5.546  -3.379 -34.542  1.00  0.00     0.068 A 
HETATM   20  C   UNL     1      -6.824  -2.830 -34.613  1.00  0.00     0.039 A 
HETATM   21  C   UNL     1      -7.048  -1.510 -34.194  1.00  0.00     0.032 A 
BRANCH  19  22
HETATM   22  O   UNL     1      -5.190  -4.645 -34.911  1.00  0.00    -0.356 OA
HETATM   23  C   UNL     1      -4.222  -5.302 -34.103  1.00  0.00     0.210 C 
ENDBRANCH  19  22
ENDBRANCH  13  16
ENDBRANCH  10  12
BRANCH   9  24
HETATM   24  C   UNL     1      -9.063   2.548 -32.447  1.00  0.00    -0.026 A 
HETATM   25  C   UNL     1      -9.405   3.477 -33.447  1.00  0.00     0.035 A 
HETATM   26  C   UNL     1     -10.398   3.185 -34.391  1.00  0.00     0.056 A 
HETATM   27 CL   UNL     1     -10.747   4.381 -35.588  1.00  0.00    -0.083 Cl
HETATM   28  C   UNL     1     -11.066   1.958 -34.342  1.00  0.00     0.055 A 
HETATM   29 CL   UNL     1     -12.294   1.521 -35.476  1.00  0.00    -0.083 Cl
HETATM   30  C   UNL     1     -10.747   1.035 -33.344  1.00  0.00     0.026 A 
HETATM   31  C   UNL     1      -9.760   1.329 -32.399  1.00  0.00     0.011 A 
ENDBRANCH   9  24
TORSDOF 4
ENDMDL
MODEL 6
REMARK VINA RESULT:      -8.0      3.353      6.459
REMARK  4 active torsions:
REMARK  status: ('A' for Active; 'I' for Inactive)
REMARK    1  A    between atoms: C_9  and  C_10 
REMARK    2  A    between atoms: C_18  and  C_19 
REMARK       I    between atoms: C_19  and  N_20 
REMARK    3  A    between atoms: N_20  and  C_21 
REMARK    4  A    between atoms: C_24  and  O_25 
ROOT
HETATM    1  C   UNL     1      -4.291   2.991 -32.289  1.00  0.00     0.070 C 
HETATM    2  C   UNL     1      -5.708   3.405 -31.976  1.00  0.00     0.037 C 
HETATM    3  N   UNL     1      -5.886   4.757 -31.693  1.00  0.00    -0.192 N 
HETATM    4  C   UNL     1      -7.001   5.240 -31.109  1.00  0.00     0.725 A 
HETATM    5  N   UNL     1      -8.087   4.422 -30.958  1.00  0.00    -0.084 N 
HETATM    6  N   UNL     1      -9.082   5.041 -30.291  1.00  0.00    -0.149 NA
HETATM    7  C   UNL     1      -8.534   6.247 -30.098  1.00  0.00     0.275 A 
HETATM    8  N   UNL     1      -7.264   6.412 -30.591  1.00  0.00    -0.054 NA
HETATM    9  C   UNL     1      -8.143   3.037 -31.440  1.00  0.00     0.202 C 
HETATM   10  C   UNL     1      -6.762   2.555 -31.881  1.00  0.00     0.062 C 
HETATM   11  H   UNL     1      -5.056   5.345 -31.676  1.00  0.00     0.184 HD
ENDROOT
BRANCH  10  12
HETATM   12  C   UNL     1      -6.673   1.078 -32.037  1.00  0.00     0.256 C 
HETATM   13  N   UNL     1      -6.259   0.665 -33.283  1.00  0.00    -0.323 N 
HETATM   14  H   UNL     1      -6.101   1.380 -33.979  1.00  0.00     0.169 HD
HETATM   15  O   UNL     1      -7.017   0.375 -31.094  1.00  0.00    -0.267 OA
BRANCH  13  16
HETATM   16  C   UNL     1      -6.011  -0.662 -33.696  1.00  0.00     0.035 A 
HETATM   17  C   UNL     1      -4.749  -1.257 -33.697  1.00  0.00     0.032 A 
HETATM   18  C   UNL     1      -4.587  -2.576 -34.138  1.00  0.00     0.039 A 
HETATM   19  C   UNL     1      -5.678  -3.322 -34.582  1.00  0.00     0.068 A 
HETATM   20  C   UNL     1      -6.939  -2.732 -34.595  1.00  0.00     0.039 A 
HETATM   21  C   UNL     1      -7.104  -1.412 -34.150  1.00  0.00     0.032 A 
BRANCH  19  22
HETATM   22  O   UNL     1      -5.377  -4.593 -34.982  1.00  0.00    -0.356 OA
HETATM   23  C   UNL     1      -4.399  -5.291 -34.222  1.00  0.00     0.210 C 
ENDBRANCH  19  22
ENDBRANCH  13  16
ENDBRANCH  10  12
BRANCH   9  24
HETATM   24  C   UNL     1      -9.176   2.905 -32.562  1.00  0.00    -0.026 A 
HETATM   25  C   UNL     1     -10.074   1.821 -32.554  1.00  0.00     0.035 A 
HETATM   26  C   UNL     1     -11.034   1.676 -33.563  1.00  0.00     0.056 A 
HETATM   27 CL   UNL     1     -12.101   0.320 -33.469  1.00  0.00    -0.083 Cl
HETATM   28  C   UNL     1     -11.104   2.612 -34.599  1.00  0.00     0.055 A 
HETATM   29 CL   UNL     1     -12.266   2.506 -35.873  1.00  0.00    -0.083 Cl
HETATM   30  C   UNL     1     -10.207   3.682 -34.626  1.00  0.00     0.026 A 
HETATM   31  C   UNL     1      -9.246   3.825 -33.622  1.00  0.00     0.011 A 
ENDBRANCH   9  24
TORSDOF 4
ENDMDL
MODEL 7
REMARK VINA RESULT:      -8.0      4.009      6.534
REMARK  4 active torsions:
REMARK  status: ('A' for Active; 'I' for Inactive)
REMARK    1  A    between atoms: C_9  and  C_10 
REMARK    2  A    between atoms: C_18  and  C_19 
REMARK       I    between atoms: C_19  and  N_20 
REMARK    3  A    between atoms: N_20  and  C_21 
REMARK    4  A    between atoms: C_24  and  O_25 
ROOT
HETATM    1  C   UNL     1      -3.007   3.022 -31.566  1.00  0.00     0.070 C 
HETATM    2  C   UNL     1      -4.337   3.449 -30.996  1.00  0.00     0.037 C 
HETATM    3  N   UNL     1      -4.387   4.753 -30.509  1.00  0.00    -0.192 N 
HETATM    4  C   UNL     1      -5.377   5.196 -29.708  1.00  0.00     0.725 A 
HETATM    5  N   UNL     1      -6.481   4.413 -29.512  1.00  0.00    -0.084 N 
HETATM    6  N   UNL     1      -7.332   4.974 -28.628  1.00  0.00    -0.149 NA
HETATM    7  C   UNL     1      -6.686   6.114 -28.356  1.00  0.00     0.275 A 
HETATM    8  N   UNL     1      -5.489   6.292 -29.003  1.00  0.00    -0.054 NA
HETATM    9  C   UNL     1      -6.693   3.116 -30.164  1.00  0.00     0.202 C 
HETATM   10  C   UNL     1      -5.421   2.642 -30.863  1.00  0.00     0.062 C 
HETATM   11  H   UNL     1      -3.526   5.295 -30.534  1.00  0.00     0.184 HD
ENDROOT
BRANCH  10  12
HETATM   12  C   UNL     1      -5.449   1.200 -31.230  1.00  0.00     0.256 C 
HETATM   13  N   UNL     1      -5.620   0.962 -32.575  1.00  0.00    -0.323 N 
HETATM   14  H   UNL     1      -5.756   1.764 -33.174  1.00  0.00     0.169 HD
HETATM   15  O   UNL     1      -5.376   0.373 -30.329  1.00  0.00    -0.267 OA
BRANCH  13  16
HETATM   16  C   UNL     1      -5.612  -0.294 -33.220  1.00  0.00     0.035 A 
HETATM   17  C   UNL     1      -4.473  -1.086 -33.370  1.00  0.00     0.032 A 
HETATM   18  C   UNL     1      -4.547  -2.315 -34.038  1.00  0.00     0.039 A 
HETATM   19  C   UNL     1      -5.755  -2.773 -34.564  1.00  0.00     0.068 A 
HETATM   20  C   UNL     1      -6.893  -1.983 -34.427  1.00  0.00     0.039 A 
HETATM   21  C   UNL     1      -6.822  -0.753 -33.756  1.00  0.00     0.032 A 
BRANCH  19  22
HETATM   22  O   UNL     1      -5.683  -3.986 -35.189  1.00  0.00    -0.356 OA
HETATM   23  C   UNL     1      -4.983  -5.019 -34.508  1.00  0.00     0.210 C 
ENDBRANCH  19  22
ENDBRANCH  13  16
ENDBRANCH  10  12
BRANCH   9  24
HETATM   24  C   UNL     1      -7.878   3.192 -31.130  1.00  0.00    -0.026 A 
HETATM   25  C   UNL     1      -7.897   4.183 -32.128  1.00  0.00     0.035 A 
HETATM   26  C   UNL     1      -8.964   4.276 -33.030  1.00  0.00     0.056 A 
HETATM   27 CL   UNL     1      -8.900   5.518 -34.228  1.00  0.00    -0.083 Cl
HETATM   28  C   UNL     1     -10.033   3.378 -32.940  1.00  0.00     0.055 A 
HETATM   29 CL   UNL     1     -11.379   3.422 -34.021  1.00  0.00    -0.083 Cl
HETATM   30  C   UNL     1     -10.033   2.401 -31.942  1.00  0.00     0.026 A 
HETATM   31  C   UNL     1      -8.969   2.312 -31.039  1.00  0.00     0.011 A 
ENDBRANCH   9  24
TORSDOF 4
ENDMDL
MODEL 8
REMARK VINA RESULT:      -7.9      3.508      6.769
REMARK  4 active torsions:
REMARK  status: ('A' for Active; 'I' for Inactive)
REMARK    1  A    between atoms: C_9  and  C_10 
REMARK    2  A    between atoms: C_18  and  C_19 
REMARK       I    between atoms: C_19  and  N_20 
REMARK    3  A    between atoms: N_20  and  C_21 
REMARK    4  A    between atoms: C_24  and  O_25 
ROOT
HETATM    1  C   UNL     1     -10.654   0.300 -32.992  1.00  0.00     0.070 C 
HETATM    2  C   UNL     1     -10.015   1.635 -33.289  1.00  0.00     0.037 C 
HETATM    3  N   UNL     1     -10.771   2.750 -32.937  1.00  0.00    -0.192 N 
HETATM    4  C   UNL     1     -10.498   3.989 -33.393  1.00  0.00     0.725 A 
HETATM    5  N   UNL     1      -9.331   4.214 -34.069  1.00  0.00    -0.084 N 
HETATM    6  N   UNL     1      -9.256   5.484 -34.516  1.00  0.00    -0.149 NA
HETATM    7  C   UNL     1     -10.407   5.978 -34.043  1.00  0.00     0.275 A 
HETATM    8  N   UNL     1     -11.192   5.097 -33.342  1.00  0.00    -0.054 NA
HETATM    9  C   UNL     1      -8.306   3.188 -34.298  1.00  0.00     0.202 C 
HETATM   10  C   UNL     1      -8.828   1.802 -33.926  1.00  0.00     0.062 C 
HETATM   11  H   UNL     1     -11.699   2.585 -32.554  1.00  0.00     0.184 HD
ENDROOT
BRANCH  10  12
HETATM   12  C   UNL     1      -7.992   0.693 -34.460  1.00  0.00     0.256 C 
HETATM   13  N   UNL     1      -7.111   0.159 -33.547  1.00  0.00    -0.323 N 
HETATM   14  H   UNL     1      -7.076   0.585 -32.632  1.00  0.00     0.169 HD
HETATM   15  O   UNL     1      -8.114   0.395 -35.642  1.00  0.00    -0.267 OA
BRANCH  13  16
HETATM   16  C   UNL     1      -6.252  -0.945 -33.746  1.00  0.00     0.035 A 
HETATM   17  C   UNL     1      -4.915  -0.973 -33.350  1.00  0.00     0.032 A 
HETATM   18  C   UNL     1      -4.126  -2.103 -33.599  1.00  0.00     0.039 A 
HETATM   19  C   UNL     1      -4.657  -3.220 -34.243  1.00  0.00     0.068 A 
HETATM   20  C   UNL     1      -5.988  -3.195 -34.651  1.00  0.00     0.039 A 
HETATM   21  C   UNL     1      -6.781  -2.065 -34.400  1.00  0.00     0.032 A 
BRANCH  19  22
HETATM   22  O   UNL     1      -3.777  -4.251 -34.420  1.00  0.00    -0.356 OA
HETATM   23  C   UNL     1      -3.381  -4.964 -33.256  1.00  0.00     0.210 C 
ENDBRANCH  19  22
ENDBRANCH  13  16
ENDBRANCH  10  12
BRANCH   9  24
HETATM   24  C   UNL     1      -7.025   3.537 -33.537  1.00  0.00    -0.026 A 
HETATM   25  C   UNL     1      -7.036   3.555 -32.130  1.00  0.00     0.035 A 
HETATM   26  C   UNL     1      -5.879   3.865 -31.405  1.00  0.00     0.056 A 
HETATM   27 CL   UNL     1      -5.983   3.855 -29.680  1.00  0.00    -0.083 Cl
HETATM   28  C   UNL     1      -4.693   4.168 -32.081  1.00  0.00     0.055 A 
HETATM   29 CL   UNL     1      -3.223   4.550 -31.257  1.00  0.00    -0.083 Cl
HETATM   30  C   UNL     1      -4.674   4.169 -33.478  1.00  0.00     0.026 A 
HETATM   31  C   UNL     1      -5.830   3.865 -34.201  1.00  0.00     0.011 A 
ENDBRANCH   9  24
TORSDOF 4
ENDMDL
MODEL 9
REMARK VINA RESULT:      -7.7     16.571     19.098
REMARK  4 active torsions:
REMARK  status: ('A' for Active; 'I' for Inactive)
REMARK    1  A    between atoms: C_9  and  C_10 
REMARK    2  A    between atoms: C_18  and  C_19 
REMARK       I    between atoms: C_19  and  N_20 
REMARK    3  A    between atoms: N_20  and  C_21 
REMARK    4  A    between atoms: C_24  and  O_25 
ROOT
HETATM    1  C   UNL     1      -2.474 -12.929 -37.524  1.00  0.00     0.070 C 
HETATM    2  C   UNL     1      -3.843 -13.303 -37.010  1.00  0.00     0.037 C 
HETATM    3  N   UNL     1      -4.201 -12.727 -35.793  1.00  0.00    -0.192 N 
HETATM    4  C   UNL     1      -5.235 -13.174 -35.052  1.00  0.00     0.725 A 
HETATM    5  N   UNL     1      -6.094 -14.095 -35.585  1.00  0.00    -0.084 N 
HETATM    6  N   UNL     1      -7.020 -14.484 -34.684  1.00  0.00    -0.149 NA
HETATM    7  C   UNL     1      -6.675 -13.728 -33.635  1.00  0.00     0.275 A 
HETATM    8  N   UNL     1      -5.592 -12.906 -33.822  1.00  0.00    -0.054 NA
HETATM    9  C   UNL     1      -5.996 -14.611 -36.955  1.00  0.00     0.202 C 
HETATM   10  C   UNL     1      -4.677 -14.194 -37.602  1.00  0.00     0.062 C 
HETATM   11  H   UNL     1      -3.509 -12.143 -35.329  1.00  0.00     0.184 HD
ENDROOT
BRANCH  10  12
HETATM   12  C   UNL     1      -4.353 -14.965 -38.833  1.00  0.00     0.256 C 
HETATM   13  N   UNL     1      -4.364 -14.217 -39.988  1.00  0.00    -0.323 N 
HETATM   14  H   UNL     1      -4.630 -13.245 -39.909  1.00  0.00     0.169 HD
HETATM   15  O   UNL     1      -4.165 -16.171 -38.727  1.00  0.00    -0.267 OA
BRANCH  13  16
HETATM   16  C   UNL     1      -4.025 -14.658 -41.286  1.00  0.00     0.035 A 
HETATM   17  C   UNL     1      -2.888 -15.411 -41.582  1.00  0.00     0.032 A 
HETATM   18  C   UNL     1      -2.616 -15.795 -42.901  1.00  0.00     0.039 A 
HETATM   19  C   UNL     1      -3.470 -15.437 -43.943  1.00  0.00     0.068 A 
HETATM   20  C   UNL     1      -4.601 -14.676 -43.657  1.00  0.00     0.039 A 
HETATM   21  C   UNL     1      -4.877 -14.293 -42.336  1.00  0.00     0.032 A 
BRANCH  19  22
HETATM   22  O   UNL     1      -3.084 -15.879 -45.177  1.00  0.00    -0.356 OA
HETATM   23  C   UNL     1      -4.119 -16.168 -46.108  1.00  0.00     0.210 C 
ENDBRANCH  19  22
ENDBRANCH  13  16
ENDBRANCH  10  12
BRANCH   9  24
HETATM   24  C   UNL     1      -7.203 -14.159 -37.781  1.00  0.00    -0.026 A 
HETATM   25  C   UNL     1      -8.033 -15.123 -38.381  1.00  0.00     0.035 A 
HETATM   26  C   UNL     1      -9.148 -14.742 -39.138  1.00  0.00     0.056 A 
HETATM   27 CL   UNL     1     -10.117 -15.994 -39.830  1.00  0.00    -0.083 Cl
HETATM   28  C   UNL     1      -9.443 -13.387 -39.310  1.00  0.00     0.055 A 
HETATM   29 CL   UNL     1     -10.805 -12.838 -40.222  1.00  0.00    -0.083 Cl
HETATM   30  C   UNL     1      -8.616 -12.420 -38.734  1.00  0.00     0.026 A 
HETATM   31  C   UNL     1      -7.501 -12.801 -37.982  1.00  0.00     0.011 A 
ENDBRANCH   9  24
TORSDOF 4
ENDMDL
MODEL 10
REMARK VINA RESULT:      -7.6      8.195     12.389
REMARK  4 active torsions:
REMARK  status: ('A' for Active; 'I' for Inactive)
REMARK    1  A    between atoms: C_9  and  C_10 
REMARK    2  A    between atoms: C_18  and  C_19 
REMARK       I    between atoms: C_19  and  N_20 
REMARK    3  A    between atoms: N_20  and  C_21 
REMARK    4  A    between atoms: C_24  and  O_25 
ROOT
HETATM    1  C   UNL     1       0.956   4.684 -29.473  1.00  0.00     0.070 C 
HETATM    2  C   UNL     1      -0.022   5.625 -30.134  1.00  0.00     0.037 C 
HETATM    3  N   UNL     1      -0.324   5.335 -31.462  1.00  0.00    -0.192 N 
HETATM    4  C   UNL     1      -0.928   6.219 -32.282  1.00  0.00     0.725 A 
HETATM    5  N   UNL     1      -1.444   7.373 -31.761  1.00  0.00    -0.084 N 
HETATM    6  N   UNL     1      -1.940   8.172 -32.728  1.00  0.00    -0.149 NA
HETATM    7  C   UNL     1      -1.716   7.417 -33.810  1.00  0.00     0.275 A 
HETATM    8  N   UNL     1      -1.104   6.209 -33.579  1.00  0.00    -0.054 NA
HETATM    9  C   UNL     1      -1.431   7.705 -30.332  1.00  0.00     0.202 C 
HETATM   10  C   UNL     1      -0.541   6.737 -29.555  1.00  0.00     0.062 C 
HETATM   11  H   UNL     1       0.161   4.552 -31.893  1.00  0.00     0.184 HD
ENDROOT
BRANCH  10  12
HETATM   12  C   UNL     1      -0.196   7.217 -28.189  1.00  0.00     0.256 C 
HETATM   13  N   UNL     1       0.811   8.155 -28.157  1.00  0.00    -0.323 N 
HETATM   14  H   UNL     1       1.248   8.396 -29.035  1.00  0.00     0.169 HD
HETATM   15  O   UNL     1      -0.777   6.713 -27.235  1.00  0.00    -0.267 OA
BRANCH  13  16
HETATM   16  C   UNL     1       1.294   8.839 -27.020  1.00  0.00     0.035 A 
HETATM   17  C   UNL     1       2.138   8.269 -26.066  1.00  0.00     0.032 A 
HETATM   18  C   UNL     1       2.560   9.013 -24.958  1.00  0.00     0.039 A 
HETATM   19  C   UNL     1       2.150  10.334 -24.783  1.00  0.00     0.068 A 
HETATM   20  C   UNL     1       1.299  10.907 -25.725  1.00  0.00     0.039 A 
HETATM   21  C   UNL     1       0.877  10.164 -26.838  1.00  0.00     0.032 A 
BRANCH  19  22
HETATM   22  O   UNL     1       2.637  10.941 -23.660  1.00  0.00    -0.356 OA
HETATM   23  C   UNL     1       3.818  10.389 -23.093  1.00  0.00     0.210 C 
ENDBRANCH  19  22
ENDBRANCH  13  16
ENDBRANCH  10  12
BRANCH   9  24
HETATM   24  C   UNL     1      -2.857   7.735 -29.779  1.00  0.00    -0.026 A 
HETATM   25  C   UNL     1      -3.634   6.563 -29.799  1.00  0.00     0.035 A 
HETATM   26  C   UNL     1      -4.941   6.556 -29.295  1.00  0.00     0.056 A 
HETATM   27 CL   UNL     1      -5.819   5.069 -29.352  1.00  0.00    -0.083 Cl
HETATM   28  C   UNL     1      -5.491   7.729 -28.770  1.00  0.00     0.055 A 
HETATM   29 CL   UNL     1      -7.091   7.799 -28.122  1.00  0.00    -0.083 Cl
HETATM   30  C   UNL     1      -4.735   8.904 -28.760  1.00  0.00     0.026 A 
HETATM   31  C   UNL     1      -3.433   8.911 -29.267  1.00  0.00     0.011 A 
ENDBRANCH   9  24
TORSDOF 4
ENDMDL
