MODEL 1
REMARK VINA RESULT:      -8.1      0.000      0.000
REMARK  3 active torsions:
REMARK  status: ('A' for Active; 'I' for Inactive)
REMARK    1  A    between atoms: C_6  and  C_7 
REMARK       I    between atoms: C_7  and  N_8 
REMARK    2  A    between atoms: N_8  and  C_9 
REMARK    3  A    between atoms: C_11  and  C_12 
REMARK       I    between atoms: C_12  and  N_13 
ROOT
HETATM    1  C   UNL     1      -4.266   2.557 -31.967  1.00  0.00     0.258 C 
HETATM    2  N   UNL     1      -3.228   3.087 -32.708  1.00  0.00    -0.307 N 
HETATM    3  O   UNL     1      -4.731   2.962 -30.911  1.00  0.00    -0.267 OA
HETATM    4  H   UNL     1      -2.995   2.634 -33.579  1.00  0.00     0.170 HD
ENDROOT
BRANCH   2   5
HETATM    5  C   UNL     1      -2.468   4.202 -32.338  1.00  0.00     0.131 A 
HETATM    6  N   UNL     1      -1.537   4.096 -31.381  1.00  0.00    -0.226 NA
HETATM    7  C   UNL     1      -0.823   5.207 -31.064  1.00  0.00     0.126 A 
HETATM    8  C   UNL     1      -0.996   6.437 -31.676  1.00  0.00     0.037 A 
HETATM    9  C   UNL     1      -1.964   6.532 -32.668  1.00  0.00     0.006 A 
HETATM   10  C   UNL     1      -2.713   5.402 -33.001  1.00  0.00     0.050 A 
BRANCH   7  11
HETATM   11  C   UNL     1       0.193   5.033 -29.980  1.00  0.00     0.268 C 
HETATM   12  N   UNL     1      -0.143   5.603 -28.782  1.00  0.00    -0.365 N 
HETATM   13  H   UNL     1      -1.037   6.086 -28.699  1.00  0.00     0.159 HD
HETATM   14  H   UNL     1       0.477   5.537 -27.990  1.00  0.00     0.159 HD
HETATM   15  O   UNL     1       1.246   4.431 -30.149  1.00  0.00    -0.266 OA
ENDBRANCH   7  11
ENDBRANCH   2   5
BRANCH   1  16
HETATM   16  C   UNL     1      -4.868   1.351 -32.598  1.00  0.00     0.044 A 
HETATM   17  C   UNL     1      -4.388   0.067 -32.265  1.00  0.00    -0.045 A 
HETATM   18  C   UNL     1      -4.934  -1.047 -32.921  1.00  0.00     0.014 A 
HETATM   19  C   UNL     1      -3.308  -0.150 -31.241  1.00  0.00     0.049 C 
HETATM   20  C   UNL     1      -5.956  -0.900 -33.866  1.00  0.00    -0.061 A 
HETATM   21  C   UNL     1      -6.564  -2.110 -34.516  1.00  0.00     0.048 C 
HETATM   22  C   UNL     1      -6.456   0.378 -34.144  1.00  0.00     0.014 A 
HETATM   23  C   UNL     1      -5.915   1.515 -33.528  1.00  0.00    -0.045 A 
HETATM   24  C   UNL     1      -6.486   2.870 -33.849  1.00  0.00     0.049 C 
ENDBRANCH   1  16
TORSDOF 3
ENDMDL
MODEL 2
REMARK VINA RESULT:      -8.0      0.282      1.919
REMARK  3 active torsions:
REMARK  status: ('A' for Active; 'I' for Inactive)
REMARK    1  A    between atoms: C_6  and  C_7 
REMARK       I    between atoms: C_7  and  N_8 
REMARK    2  A    between atoms: N_8  and  C_9 
REMARK    3  A    between atoms: C_11  and  C_12 
REMARK       I    between atoms: C_12  and  N_13 
ROOT
HETATM    1  C   UNL     1      -4.323   2.357 -31.915  1.00  0.00     0.258 C 
HETATM    2  N   UNL     1      -3.348   3.009 -32.643  1.00  0.00    -0.307 N 
HETATM    3  O   UNL     1      -4.789   2.661 -30.826  1.00  0.00    -0.267 OA
HETATM    4  H   UNL     1      -3.104   2.629 -33.546  1.00  0.00     0.170 HD
ENDROOT
BRANCH   2   5
HETATM    5  C   UNL     1      -2.665   4.155 -32.221  1.00  0.00     0.131 A 
HETATM    6  N   UNL     1      -1.627   4.049 -31.380  1.00  0.00    -0.226 NA
HETATM    7  C   UNL     1      -0.994   5.191 -31.006  1.00  0.00     0.126 A 
HETATM    8  C   UNL     1      -1.354   6.453 -31.448  1.00  0.00     0.037 A 
HETATM    9  C   UNL     1      -2.430   6.548 -32.321  1.00  0.00     0.006 A 
HETATM   10  C   UNL     1      -3.098   5.385 -32.710  1.00  0.00     0.050 A 
BRANCH   7  11
HETATM   11  C   UNL     1       0.148   5.014 -30.057  1.00  0.00     0.268 C 
HETATM   12  N   UNL     1      -0.058   5.536 -28.808  1.00  0.00    -0.365 N 
HETATM   13  H   UNL     1      -0.949   5.987 -28.603  1.00  0.00     0.159 HD
HETATM   14  H   UNL     1       0.653   5.463 -28.098  1.00  0.00     0.159 HD
HETATM   15  O   UNL     1       1.189   4.452 -30.370  1.00  0.00    -0.266 OA
ENDBRANCH   7  11
ENDBRANCH   2   5
BRANCH   1  16
HETATM   16  C   UNL     1      -4.849   1.149 -32.606  1.00  0.00     0.044 A 
HETATM   17  C   UNL     1      -5.898   1.272 -33.542  1.00  0.00    -0.045 A 
HETATM   18  C   UNL     1      -6.415   0.108 -34.132  1.00  0.00     0.014 A 
HETATM   19  C   UNL     1      -6.488   2.603 -33.922  1.00  0.00     0.049 C 
HETATM   20  C   UNL     1      -5.886  -1.152 -33.828  1.00  0.00    -0.061 A 
HETATM   21  C   UNL     1      -6.417  -2.379 -34.512  1.00  0.00     0.048 C 
HETATM   22  C   UNL     1      -4.811  -1.249 -32.937  1.00  0.00     0.014 A 
HETATM   23  C   UNL     1      -4.288  -0.109 -32.308  1.00  0.00    -0.045 A 
HETATM   24  C   UNL     1      -3.127  -0.256 -31.363  1.00  0.00     0.049 C 
ENDBRANCH   1  16
TORSDOF 3
ENDMDL
MODEL 3
REMARK VINA RESULT:      -8.0      1.852      2.845
REMARK  3 active torsions:
REMARK  status: ('A' for Active; 'I' for Inactive)
REMARK    1  A    between atoms: C_6  and  C_7 
REMARK       I    between atoms: C_7  and  N_8 
REMARK    2  A    between atoms: N_8  and  C_9 
REMARK    3  A    between atoms: C_11  and  C_12 
REMARK       I    between atoms: C_12  and  N_13 
ROOT
HETATM    1  C   UNL     1      -5.603   0.462 -32.237  1.00  0.00     0.258 C 
HETATM    2  N   UNL     1      -5.193   1.547 -32.986  1.00  0.00    -0.307 N 
HETATM    3  O   UNL     1      -5.881   0.421 -31.046  1.00  0.00    -0.267 OA
HETATM    4  H   UNL     1      -5.034   1.403 -33.971  1.00  0.00     0.170 HD
ENDROOT
BRANCH   2   5
HETATM    5  C   UNL     1      -4.974   2.833 -32.479  1.00  0.00     0.131 A 
HETATM    6  N   UNL     1      -3.730   3.243 -32.198  1.00  0.00    -0.226 NA
HETATM    7  C   UNL     1      -3.571   4.502 -31.714  1.00  0.00     0.126 A 
HETATM    8  C   UNL     1      -4.616   5.386 -31.502  1.00  0.00     0.037 A 
HETATM    9  C   UNL     1      -5.900   4.947 -31.799  1.00  0.00     0.006 A 
HETATM   10  C   UNL     1      -6.083   3.653 -32.290  1.00  0.00     0.050 A 
BRANCH   7  11
HETATM   11  C   UNL     1      -2.163   4.902 -31.406  1.00  0.00     0.268 C 
HETATM   12  N   UNL     1      -2.027   5.750 -30.340  1.00  0.00    -0.365 N 
HETATM   13  H   UNL     1      -2.862   6.039 -29.831  1.00  0.00     0.159 HD
HETATM   14  H   UNL     1      -1.116   6.072 -30.053  1.00  0.00     0.159 HD
HETATM   15  O   UNL     1      -1.204   4.506 -32.057  1.00  0.00    -0.266 OA
ENDBRANCH   7  11
ENDBRANCH   2   5
BRANCH   1  16
HETATM   16  C   UNL     1      -5.723  -0.783 -33.043  1.00  0.00     0.044 A 
HETATM   17  C   UNL     1      -4.612  -1.642 -33.184  1.00  0.00    -0.045 A 
HETATM   18  C   UNL     1      -4.737  -2.777 -33.999  1.00  0.00     0.014 A 
HETATM   19  C   UNL     1      -3.298  -1.379 -32.499  1.00  0.00     0.049 C 
HETATM   20  C   UNL     1      -5.944  -3.077 -34.641  1.00  0.00    -0.061 A 
HETATM   21  C   UNL     1      -6.073  -4.325 -35.465  1.00  0.00     0.048 C 
HETATM   22  C   UNL     1      -7.051  -2.241 -34.446  1.00  0.00     0.014 A 
HETATM   23  C   UNL     1      -6.954  -1.084 -33.660  1.00  0.00    -0.045 A 
HETATM   24  C   UNL     1      -8.169  -0.217 -33.471  1.00  0.00     0.049 C 
ENDBRANCH   1  16
TORSDOF 3
ENDMDL
MODEL 4
REMARK VINA RESULT:      -7.9      1.864      3.349
REMARK  3 active torsions:
REMARK  status: ('A' for Active; 'I' for Inactive)
REMARK    1  A    between atoms: C_6  and  C_7 
REMARK       I    between atoms: C_7  and  N_8 
REMARK    2  A    between atoms: N_8  and  C_9 
REMARK    3  A    between atoms: C_11  and  C_12 
REMARK       I    between atoms: C_12  and  N_13 
ROOT
HETATM    1  C   UNL     1      -5.668   0.496 -32.309  1.00  0.00     0.258 C 
HETATM    2  N   UNL     1      -5.298   1.597 -33.055  1.00  0.00    -0.307 N 
HETATM    3  O   UNL     1      -5.900   0.433 -31.109  1.00  0.00    -0.267 OA
HETATM    4  H   UNL     1      -5.175   1.470 -34.049  1.00  0.00     0.170 HD
ENDROOT
BRANCH   2   5
HETATM    5  C   UNL     1      -5.073   2.877 -32.537  1.00  0.00     0.131 A 
HETATM    6  N   UNL     1      -3.832   3.264 -32.210  1.00  0.00    -0.226 NA
HETATM    7  C   UNL     1      -3.667   4.518 -31.717  1.00  0.00     0.126 A 
HETATM    8  C   UNL     1      -4.703   5.420 -31.540  1.00  0.00     0.037 A 
HETATM    9  C   UNL     1      -5.983   5.007 -31.884  1.00  0.00     0.006 A 
HETATM   10  C   UNL     1      -6.173   3.718 -32.385  1.00  0.00     0.050 A 
BRANCH   7  11
HETATM   11  C   UNL     1      -2.264   4.891 -31.358  1.00  0.00     0.268 C 
HETATM   12  N   UNL     1      -2.152   5.747 -30.296  1.00  0.00    -0.365 N 
HETATM   13  H   UNL     1      -3.000   6.060 -29.823  1.00  0.00     0.159 HD
HETATM   14  H   UNL     1      -1.246   6.053 -29.976  1.00  0.00     0.159 HD
HETATM   15  O   UNL     1      -1.290   4.468 -31.966  1.00  0.00    -0.266 OA
ENDBRANCH   7  11
ENDBRANCH   2   5
BRANCH   1  16
HETATM   16  C   UNL     1      -5.804  -0.738 -33.129  1.00  0.00     0.044 A 
HETATM   17  C   UNL     1      -7.048  -1.067 -33.708  1.00  0.00    -0.045 A 
HETATM   18  C   UNL     1      -7.162  -2.267 -34.425  1.00  0.00     0.014 A 
HETATM   19  C   UNL     1      -8.257  -0.181 -33.577  1.00  0.00     0.049 C 
HETATM   20  C   UNL     1      -6.061  -3.115 -34.594  1.00  0.00    -0.061 A 
HETATM   21  C   UNL     1      -6.190  -4.368 -35.411  1.00  0.00     0.048 C 
HETATM   22  C   UNL     1      -4.822  -2.746 -34.057  1.00  0.00     0.014 A 
HETATM   23  C   UNL     1      -4.679  -1.567 -33.311  1.00  0.00    -0.045 A 
HETATM   24  C   UNL     1      -3.328  -1.204 -32.758  1.00  0.00     0.049 C 
ENDBRANCH   1  16
TORSDOF 3
ENDMDL
MODEL 5
REMARK VINA RESULT:      -7.7      4.902      6.788
REMARK  3 active torsions:
REMARK  status: ('A' for Active; 'I' for Inactive)
REMARK    1  A    between atoms: C_6  and  C_7 
REMARK       I    between atoms: C_7  and  N_8 
REMARK    2  A    between atoms: N_8  and  C_9 
REMARK    3  A    between atoms: C_11  and  C_12 
REMARK       I    between atoms: C_12  and  N_13 
ROOT
HETATM    1  C   UNL     1      -6.077   0.518 -32.921  1.00  0.00     0.258 C 
HETATM    2  N   UNL     1      -7.157   0.434 -32.065  1.00  0.00    -0.307 N 
HETATM    3  O   UNL     1      -5.621   1.508 -33.476  1.00  0.00    -0.267 OA
HETATM    4  H   UNL     1      -7.376  -0.469 -31.673  1.00  0.00     0.170 HD
ENDROOT
BRANCH   2   5
HETATM    5  C   UNL     1      -7.979   1.509 -31.705  1.00  0.00     0.131 A 
HETATM    6  N   UNL     1      -9.126   1.728 -32.361  1.00  0.00    -0.226 NA
HETATM    7  C   UNL     1      -9.890   2.781 -31.968  1.00  0.00     0.126 A 
HETATM    8  C   UNL     1      -9.555   3.632 -30.928  1.00  0.00     0.037 A 
HETATM    9  C   UNL     1      -8.364   3.391 -30.256  1.00  0.00     0.006 A 
HETATM   10  C   UNL     1      -7.562   2.318 -30.651  1.00  0.00     0.050 A 
BRANCH   7  11
HETATM   11  C   UNL     1     -11.152   2.986 -32.743  1.00  0.00     0.268 C 
HETATM   12  N   UNL     1     -11.802   1.834 -33.096  1.00  0.00    -0.365 N 
HETATM   13  H   UNL     1     -11.408   0.939 -32.810  1.00  0.00     0.159 HD
HETATM   14  H   UNL     1     -12.664   1.871 -33.617  1.00  0.00     0.159 HD
HETATM   15  O   UNL     1     -11.572   4.096 -33.045  1.00  0.00    -0.266 OA
ENDBRANCH   7  11
ENDBRANCH   2   5
BRANCH   1  16
HETATM   16  C   UNL     1      -5.411  -0.795 -33.140  1.00  0.00     0.044 A 
HETATM   17  C   UNL     1      -4.309  -1.169 -32.343  1.00  0.00    -0.045 A 
HETATM   18  C   UNL     1      -3.664  -2.386 -32.613  1.00  0.00     0.014 A 
HETATM   19  C   UNL     1      -3.796  -0.308 -31.221  1.00  0.00     0.049 C 
HETATM   20  C   UNL     1      -4.116  -3.233 -33.632  1.00  0.00    -0.061 A 
HETATM   21  C   UNL     1      -3.445  -4.555 -33.869  1.00  0.00     0.048 C 
HETATM   22  C   UNL     1      -5.244  -2.869 -34.378  1.00  0.00     0.014 A 
HETATM   23  C   UNL     1      -5.896  -1.648 -34.153  1.00  0.00    -0.045 A 
HETATM   24  C   UNL     1      -7.109  -1.298 -34.971  1.00  0.00     0.049 C 
ENDBRANCH   1  16
TORSDOF 3
ENDMDL
MODEL 6
REMARK VINA RESULT:      -7.6      2.969      4.046
REMARK  3 active torsions:
REMARK  status: ('A' for Active; 'I' for Inactive)
REMARK    1  A    between atoms: C_6  and  C_7 
REMARK       I    between atoms: C_7  and  N_8 
REMARK    2  A    between atoms: N_8  and  C_9 
REMARK    3  A    between atoms: C_11  and  C_12 
REMARK       I    between atoms: C_12  and  N_13 
ROOT
HETATM    1  C   UNL     1      -5.357   0.166 -32.193  1.00  0.00     0.258 C 
HETATM    2  N   UNL     1      -4.763   1.223 -32.853  1.00  0.00    -0.307 N 
HETATM    3  O   UNL     1      -5.715   0.103 -31.025  1.00  0.00    -0.267 OA
HETATM    4  H   UNL     1      -4.560   1.108 -33.835  1.00  0.00     0.170 HD
ENDROOT
BRANCH   2   5
HETATM    5  C   UNL     1      -4.416   2.443 -32.262  1.00  0.00     0.131 A 
HETATM    6  N   UNL     1      -5.245   3.028 -31.387  1.00  0.00    -0.226 NA
HETATM    7  C   UNL     1      -4.858   4.207 -30.837  1.00  0.00     0.126 A 
HETATM    8  C   UNL     1      -3.657   4.835 -31.121  1.00  0.00     0.037 A 
HETATM    9  C   UNL     1      -2.806   4.216 -32.028  1.00  0.00     0.006 A 
HETATM   10  C   UNL     1      -3.191   3.007 -32.610  1.00  0.00     0.050 A 
BRANCH   7  11
HETATM   11  C   UNL     1      -5.828   4.821 -29.878  1.00  0.00     0.268 C 
HETATM   12  N   UNL     1      -5.575   4.557 -28.559  1.00  0.00    -0.365 N 
HETATM   13  H   UNL     1      -4.764   3.989 -28.316  1.00  0.00     0.159 HD
HETATM   14  H   UNL     1      -6.172   4.929 -27.837  1.00  0.00     0.159 HD
HETATM   15  O   UNL     1      -6.778   5.502 -30.241  1.00  0.00    -0.266 OA
ENDBRANCH   7  11
ENDBRANCH   2   5
BRANCH   1  16
HETATM   16  C   UNL     1      -5.580  -1.013 -33.074  1.00  0.00     0.044 A 
HETATM   17  C   UNL     1      -6.808  -1.165 -33.751  1.00  0.00    -0.045 A 
HETATM   18  C   UNL     1      -7.013  -2.316 -34.527  1.00  0.00     0.014 A 
HETATM   19  C   UNL     1      -7.909  -0.142 -33.665  1.00  0.00     0.049 C 
HETATM   20  C   UNL     1      -6.013  -3.287 -34.657  1.00  0.00    -0.061 A 
HETATM   21  C   UNL     1      -6.232  -4.485 -35.535  1.00  0.00     0.048 C 
HETATM   22  C   UNL     1      -4.781  -3.093 -34.019  1.00  0.00     0.014 A 
HETATM   23  C   UNL     1      -4.552  -1.968 -33.215  1.00  0.00    -0.045 A 
HETATM   24  C   UNL     1      -3.212  -1.793 -32.554  1.00  0.00     0.049 C 
ENDBRANCH   1  16
TORSDOF 3
ENDMDL
MODEL 7
REMARK VINA RESULT:      -7.6      3.184      4.065
REMARK  3 active torsions:
REMARK  status: ('A' for Active; 'I' for Inactive)
REMARK    1  A    between atoms: C_6  and  C_7 
REMARK       I    between atoms: C_7  and  N_8 
REMARK    2  A    between atoms: N_8  and  C_9 
REMARK    3  A    between atoms: C_11  and  C_12 
REMARK       I    between atoms: C_12  and  N_13 
ROOT
HETATM    1  C   UNL     1      -5.551   0.406 -32.414  1.00  0.00     0.258 C 
HETATM    2  N   UNL     1      -4.997   1.419 -33.172  1.00  0.00    -0.307 N 
HETATM    3  O   UNL     1      -5.928   0.445 -31.251  1.00  0.00    -0.267 OA
HETATM    4  H   UNL     1      -4.770   1.215 -34.133  1.00  0.00     0.170 HD
ENDROOT
BRANCH   2   5
HETATM    5  C   UNL     1      -4.720   2.709 -32.704  1.00  0.00     0.131 A 
HETATM    6  N   UNL     1      -5.601   3.700 -32.900  1.00  0.00    -0.226 NA
HETATM    7  C   UNL     1      -5.287   4.931 -32.421  1.00  0.00     0.126 A 
HETATM    8  C   UNL     1      -4.117   5.219 -31.738  1.00  0.00     0.037 A 
HETATM    9  C   UNL     1      -3.215   4.181 -31.541  1.00  0.00     0.006 A 
HETATM   10  C   UNL     1      -3.517   2.910 -32.033  1.00  0.00     0.050 A 
BRANCH   7  11
HETATM   11  C   UNL     1      -6.299   6.001 -32.680  1.00  0.00     0.268 C 
HETATM   12  N   UNL     1      -7.240   5.684 -33.622  1.00  0.00    -0.365 N 
HETATM   13  H   UNL     1      -7.204   4.767 -34.066  1.00  0.00     0.159 HD
HETATM   14  H   UNL     1      -7.967   6.340 -33.863  1.00  0.00     0.159 HD
HETATM   15  O   UNL     1      -6.287   7.079 -32.100  1.00  0.00    -0.266 OA
ENDBRANCH   7  11
ENDBRANCH   2   5
BRANCH   1  16
HETATM   16  C   UNL     1      -5.701  -0.866 -33.172  1.00  0.00     0.044 A 
HETATM   17  C   UNL     1      -4.638  -1.793 -33.212  1.00  0.00    -0.045 A 
HETATM   18  C   UNL     1      -4.786  -2.955 -33.985  1.00  0.00     0.014 A 
HETATM   19  C   UNL     1      -3.351  -1.577 -32.464  1.00  0.00     0.049 C 
HETATM   20  C   UNL     1      -5.972  -3.213 -34.682  1.00  0.00    -0.061 A 
HETATM   21  C   UNL     1      -6.130  -4.488 -35.459  1.00  0.00     0.048 C 
HETATM   22  C   UNL     1      -7.035  -2.306 -34.588  1.00  0.00     0.014 A 
HETATM   23  C   UNL     1      -6.912  -1.122 -33.847  1.00  0.00    -0.045 A 
HETATM   24  C   UNL     1      -8.080  -0.178 -33.766  1.00  0.00     0.049 C 
ENDBRANCH   1  16
TORSDOF 3
ENDMDL
MODEL 8
REMARK VINA RESULT:      -7.4      4.135      5.564
REMARK  3 active torsions:
REMARK  status: ('A' for Active; 'I' for Inactive)
REMARK    1  A    between atoms: C_6  and  C_7 
REMARK       I    between atoms: C_7  and  N_8 
REMARK    2  A    between atoms: N_8  and  C_9 
REMARK    3  A    between atoms: C_11  and  C_12 
REMARK       I    between atoms: C_12  and  N_13 
ROOT
HETATM    1  C   UNL     1      -5.985   1.246 -33.042  1.00  0.00     0.258 C 
HETATM    2  N   UNL     1      -6.371   1.277 -31.717  1.00  0.00    -0.307 N 
HETATM    3  O   UNL     1      -5.709   2.185 -33.776  1.00  0.00    -0.267 OA
HETATM    4  H   UNL     1      -6.532   0.395 -31.254  1.00  0.00     0.170 HD
ENDROOT
BRANCH   2   5
HETATM    5  C   UNL     1      -6.562   2.442 -30.965  1.00  0.00     0.131 A 
HETATM    6  N   UNL     1      -7.777   3.000 -30.885  1.00  0.00    -0.226 NA
HETATM    7  C   UNL     1      -7.910   4.127 -30.138  1.00  0.00     0.126 A 
HETATM    8  C   UNL     1      -6.867   4.725 -29.451  1.00  0.00     0.037 A 
HETATM    9  C   UNL     1      -5.614   4.135 -29.542  1.00  0.00     0.006 A 
HETATM   10  C   UNL     1      -5.456   2.981 -30.312  1.00  0.00     0.050 A 
BRANCH   7  11
HETATM   11  C   UNL     1      -9.285   4.713 -30.095  1.00  0.00     0.268 C 
HETATM   12  N   UNL     1      -9.399   5.854 -29.347  1.00  0.00    -0.365 N 
HETATM   13  H   UNL     1      -8.569   6.229 -28.890  1.00  0.00     0.159 HD
HETATM   14  H   UNL     1     -10.286   6.325 -29.260  1.00  0.00     0.159 HD
HETATM   15  O   UNL     1     -10.238   4.213 -30.678  1.00  0.00    -0.266 OA
ENDBRANCH   7  11
ENDBRANCH   2   5
BRANCH   1  16
HETATM   16  C   UNL     1      -5.893  -0.137 -33.584  1.00  0.00     0.044 A 
HETATM   17  C   UNL     1      -6.979  -0.691 -34.294  1.00  0.00    -0.045 A 
HETATM   18  C   UNL     1      -6.887  -2.018 -34.740  1.00  0.00     0.014 A 
HETATM   19  C   UNL     1      -8.235   0.087 -34.581  1.00  0.00     0.049 C 
HETATM   20  C   UNL     1      -5.732  -2.777 -34.516  1.00  0.00    -0.061 A 
HETATM   21  C   UNL     1      -5.633  -4.177 -35.050  1.00  0.00     0.048 C 
HETATM   22  C   UNL     1      -4.644  -2.193 -33.856  1.00  0.00     0.014 A 
HETATM   23  C   UNL     1      -4.713  -0.878 -33.372  1.00  0.00    -0.045 A 
HETATM   24  C   UNL     1      -3.519  -0.285 -32.675  1.00  0.00     0.049 C 
ENDBRANCH   1  16
TORSDOF 3
ENDMDL
MODEL 9
REMARK VINA RESULT:      -7.4     17.276     18.090
REMARK  3 active torsions:
REMARK  status: ('A' for Active; 'I' for Inactive)
REMARK    1  A    between atoms: C_6  and  C_7 
REMARK       I    between atoms: C_7  and  N_8 
REMARK    2  A    between atoms: N_8  and  C_9 
REMARK    3  A    between atoms: C_11  and  C_12 
REMARK       I    between atoms: C_12  and  N_13 
ROOT
HETATM    1  C   UNL     1      -4.819 -12.974 -37.944  1.00  0.00     0.258 C 
HETATM    2  N   UNL     1      -4.213 -14.192 -38.182  1.00  0.00    -0.307 N 
HETATM    3  O   UNL     1      -4.327 -11.960 -37.470  1.00  0.00    -0.267 OA
HETATM    4  H   UNL     1      -4.769 -14.917 -38.610  1.00  0.00     0.170 HD
ENDROOT
BRANCH   2   5
HETATM    5  C   UNL     1      -2.885 -14.501 -37.866  1.00  0.00     0.131 A 
HETATM    6  N   UNL     1      -1.922 -14.351 -38.785  1.00  0.00    -0.226 NA
HETATM    7  C   UNL     1      -0.649 -14.658 -38.427  1.00  0.00     0.126 A 
HETATM    8  C   UNL     1      -0.289 -15.110 -37.168  1.00  0.00     0.037 A 
HETATM    9  C   UNL     1      -1.297 -15.259 -36.225  1.00  0.00     0.006 A 
HETATM   10  C   UNL     1      -2.614 -14.955 -36.578  1.00  0.00     0.050 A 
BRANCH   7  11
HETATM   11  C   UNL     1       0.383 -14.484 -39.496  1.00  0.00     0.268 C 
HETATM   12  N   UNL     1       1.678 -14.563 -39.061  1.00  0.00    -0.365 N 
HETATM   13  H   UNL     1       1.857 -14.740 -38.073  1.00  0.00     0.159 HD
HETATM   14  H   UNL     1       2.444 -14.461 -39.708  1.00  0.00     0.159 HD
HETATM   15  O   UNL     1       0.094 -14.282 -40.668  1.00  0.00    -0.266 OA
ENDBRANCH   7  11
ENDBRANCH   2   5
BRANCH   1  16
HETATM   16  C   UNL     1      -6.248 -12.950 -38.358  1.00  0.00     0.044 A 
HETATM   17  C   UNL     1      -7.250 -13.377 -37.461  1.00  0.00    -0.045 A 
HETATM   18  C   UNL     1      -8.582 -13.401 -37.900  1.00  0.00     0.014 A 
HETATM   19  C   UNL     1      -6.940 -13.816 -36.056  1.00  0.00     0.049 C 
HETATM   20  C   UNL     1      -8.925 -12.982 -39.191  1.00  0.00    -0.061 A 
HETATM   21  C   UNL     1     -10.363 -12.964 -39.623  1.00  0.00     0.048 C 
HETATM   22  C   UNL     1      -7.924 -12.512 -40.049  1.00  0.00     0.014 A 
HETATM   23  C   UNL     1      -6.578 -12.501 -39.653  1.00  0.00    -0.045 A 
HETATM   24  C   UNL     1      -5.534 -11.980 -40.602  1.00  0.00     0.049 C 
ENDBRANCH   1  16
TORSDOF 3
ENDMDL
MODEL 10
REMARK VINA RESULT:      -7.3     17.288     18.137
REMARK  3 active torsions:
REMARK  status: ('A' for Active; 'I' for Inactive)
REMARK    1  A    between atoms: C_6  and  C_7 
REMARK       I    between atoms: C_7  and  N_8 
REMARK    2  A    between atoms: N_8  and  C_9 
REMARK    3  A    between atoms: C_11  and  C_12 
REMARK       I    between atoms: C_12  and  N_13 
ROOT
HETATM    1  C   UNL     1      -4.711 -12.995 -37.940  1.00  0.00     0.258 C 
HETATM    2  N   UNL     1      -4.097 -14.212 -38.156  1.00  0.00    -0.307 N 
HETATM    3  O   UNL     1      -4.230 -11.973 -37.470  1.00  0.00    -0.267 OA
HETATM    4  H   UNL     1      -4.644 -14.944 -38.585  1.00  0.00     0.170 HD
ENDROOT
BRANCH   2   5
HETATM    5  C   UNL     1      -2.772 -14.512 -37.819  1.00  0.00     0.131 A 
HETATM    6  N   UNL     1      -1.800 -14.386 -38.732  1.00  0.00    -0.226 NA
HETATM    7  C   UNL     1      -0.530 -14.684 -38.352  1.00  0.00     0.126 A 
HETATM    8  C   UNL     1      -0.183 -15.100 -37.078  1.00  0.00     0.037 A 
HETATM    9  C   UNL     1      -1.201 -15.223 -36.141  1.00  0.00     0.006 A 
HETATM   10  C   UNL     1      -2.513 -14.930 -36.516  1.00  0.00     0.050 A 
BRANCH   7  11
HETATM   11  C   UNL     1       0.512 -14.539 -39.415  1.00  0.00     0.268 C 
HETATM   12  N   UNL     1       1.802 -14.533 -38.957  1.00  0.00    -0.365 N 
HETATM   13  H   UNL     1       1.970 -14.636 -37.957  1.00  0.00     0.159 HD
HETATM   14  H   UNL     1       2.574 -14.444 -39.599  1.00  0.00     0.159 HD
HETATM   15  O   UNL     1       0.236 -14.430 -40.603  1.00  0.00    -0.266 OA
ENDBRANCH   7  11
ENDBRANCH   2   5
BRANCH   1  16
HETATM   16  C   UNL     1      -6.134 -12.981 -38.374  1.00  0.00     0.044 A 
HETATM   17  C   UNL     1      -6.468 -12.597 -39.690  1.00  0.00    -0.045 A 
HETATM   18  C   UNL     1      -7.822 -12.535 -40.052  1.00  0.00     0.014 A 
HETATM   19  C   UNL     1      -5.425 -12.243 -40.715  1.00  0.00     0.049 C 
HETATM   20  C   UNL     1      -8.830 -12.875 -39.142  1.00  0.00    -0.061 A 
HETATM   21  C   UNL     1     -10.270 -12.855 -39.566  1.00  0.00     0.048 C 
HETATM   22  C   UNL     1      -8.477 -13.305 -37.856  1.00  0.00     0.014 A 
HETATM   23  C   UNL     1      -7.135 -13.352 -37.452  1.00  0.00    -0.045 A 
HETATM   24  C   UNL     1      -6.798 -13.827 -36.065  1.00  0.00     0.049 C 
ENDBRANCH   1  16
TORSDOF 3
ENDMDL
