MODEL 1
REMARK VINA RESULT:      -8.3      0.000      0.000
REMARK  3 active torsions:
REMARK  status: ('A' for Active; 'I' for Inactive)
REMARK    1  A    between atoms: C_9  and  N_10 
REMARK    2  A    between atoms: N_13  and  C_14 
REMARK    3  A    between atoms: C_14  and  C_15 
ROOT
HETATM    1  C   UNL     1      -4.574  -1.881 -33.515  1.00  0.00    -0.006 A 
HETATM    2  C   UNL     1      -3.679  -1.998 -32.428  1.00  0.00     0.052 A 
HETATM    3  C   UNL     1      -3.335  -0.864 -31.611  1.00  0.00     0.100 C 
HETATM    4  N   UNL     1      -3.041   0.049 -30.957  1.00  0.00    -0.191 NA
HETATM    5  C   UNL     1      -3.102  -3.242 -32.124  1.00  0.00     0.026 A 
HETATM    6  C   UNL     1      -3.404  -4.366 -32.893  1.00  0.00     0.044 A 
HETATM    7  C   UNL     1      -4.275  -4.245 -33.967  1.00  0.00     0.117 A 
HETATM    8  F   UNL     1      -4.568  -5.323 -34.705  1.00  0.00    -0.206 F 
HETATM    9  C   UNL     1      -4.856  -3.023 -34.286  1.00  0.00     0.052 A 
ENDROOT
BRANCH   1  10
HETATM   10  C   UNL     1      -5.254  -0.567 -33.856  1.00  0.00     0.312 C 
BRANCH  10  11
HETATM   11  N   UNL     1      -6.592  -0.479 -33.256  1.00  0.00     0.096 N 
HETATM   12  C   UNL     1      -6.768   0.767 -32.488  1.00  0.00     0.303 C 
HETATM   13  C   UNL     1      -7.159   1.995 -33.342  1.00  0.00     0.303 C 
HETATM   14  N   UNL     1      -8.387   1.806 -34.162  1.00  0.00     0.096 N 
HETATM   15  C   UNL     1      -8.084   0.614 -35.017  1.00  0.00     0.303 C 
HETATM   16  C   UNL     1      -7.678  -0.663 -34.234  1.00  0.00     0.303 C 
BRANCH  14  17
HETATM   17  C   UNL     1      -9.641   1.632 -33.373  1.00  0.00     0.227 C 
HETATM   18  C   UNL     1      -9.911   2.730 -32.304  1.00  0.00     0.069 C 
HETATM   19  C   UNL     1     -10.610   3.988 -32.830  1.00  0.00     0.190 C 
HETATM   20  N   UNL     1     -11.948   3.600 -33.422  1.00  0.00    -0.066 N 
HETATM   21  C   UNL     1      -9.928   4.610 -34.051  1.00  0.00     0.035 C 
HETATM   22  C   UNL     1     -12.964   2.954 -32.537  1.00  0.00     0.270 C 
HETATM   23  H   UNL     1     -12.397   4.475 -33.727  1.00  0.00     0.280 HD
HETATM   24  C   UNL     1     -11.521   2.876 -34.679  1.00  0.00     0.190 C 
HETATM   25  C   UNL     1     -10.523   3.880 -35.264  1.00  0.00     0.035 C 
HETATM   26  C   UNL     1     -10.889   1.530 -34.298  1.00  0.00     0.069 C 
ENDBRANCH  14  17
ENDBRANCH  10  11
ENDBRANCH   1  10
TORSDOF 3
ENDMDL
MODEL 2
REMARK VINA RESULT:      -8.2      1.544      2.833
REMARK  3 active torsions:
REMARK  status: ('A' for Active; 'I' for Inactive)
REMARK    1  A    between atoms: C_9  and  N_10 
REMARK    2  A    between atoms: N_13  and  C_14 
REMARK    3  A    between atoms: C_14  and  C_15 
ROOT
HETATM    1  C   UNL     1      -6.430  -1.196 -33.441  1.00  0.00    -0.006 A 
HETATM    2  C   UNL     1      -5.018  -1.137 -33.495  1.00  0.00     0.052 A 
HETATM    3  C   UNL     1      -4.284  -0.086 -32.841  1.00  0.00     0.100 C 
HETATM    4  N   UNL     1      -3.685   0.767 -32.329  1.00  0.00    -0.191 NA
HETATM    5  C   UNL     1      -4.301  -2.119 -34.198  1.00  0.00     0.026 A 
HETATM    6  C   UNL     1      -4.974  -3.152 -34.850  1.00  0.00     0.044 A 
HETATM    7  C   UNL     1      -6.361  -3.201 -34.805  1.00  0.00     0.117 A 
HETATM    8  F   UNL     1      -7.008  -4.193 -35.428  1.00  0.00    -0.206 F 
HETATM    9  C   UNL     1      -7.090  -2.238 -34.115  1.00  0.00     0.052 A 
ENDROOT
BRANCH   1  10
HETATM   10  C   UNL     1      -7.246  -0.182 -32.660  1.00  0.00     0.312 C 
BRANCH  10  11
HETATM   11  N   UNL     1      -7.728   0.904 -33.523  1.00  0.00     0.096 N 
HETATM   12  C   UNL     1      -8.976   0.540 -34.219  1.00  0.00     0.303 C 
HETATM   13  C   UNL     1     -10.259   0.745 -33.381  1.00  0.00     0.303 C 
HETATM   14  N   UNL     1     -10.435   2.128 -32.857  1.00  0.00     0.096 N 
HETATM   15  C   UNL     1      -9.201   2.378 -32.046  1.00  0.00     0.303 C 
HETATM   16  C   UNL     1      -7.866   2.189 -32.815  1.00  0.00     0.303 C 
BRANCH  14  17
HETATM   17  C   UNL     1     -10.643   3.168 -33.906  1.00  0.00     0.227 C 
HETATM   18  C   UNL     1     -11.606   2.764 -35.059  1.00  0.00     0.069 C 
HETATM   19  C   UNL     1     -13.094   2.991 -34.770  1.00  0.00     0.190 C 
HETATM   20  N   UNL     1     -13.324   4.459 -34.486  1.00  0.00    -0.066 N 
HETATM   21  C   UNL     1     -13.570   2.368 -33.455  1.00  0.00     0.035 C 
HETATM   22  C   UNL     1     -12.998   5.456 -35.551  1.00  0.00     0.270 C 
HETATM   23  H   UNL     1     -14.338   4.572 -34.335  1.00  0.00     0.280 HD
HETATM   24  C   UNL     1     -12.670   4.609 -33.132  1.00  0.00     0.190 C 
HETATM   25  C   UNL     1     -13.291   3.428 -32.380  1.00  0.00     0.035 C 
HETATM   26  C   UNL     1     -11.147   4.506 -33.290  1.00  0.00     0.069 C 
ENDBRANCH  14  17
ENDBRANCH  10  11
ENDBRANCH   1  10
TORSDOF 3
ENDMDL
MODEL 3
REMARK VINA RESULT:      -8.1      2.188      2.849
REMARK  3 active torsions:
REMARK  status: ('A' for Active; 'I' for Inactive)
REMARK    1  A    between atoms: C_9  and  N_10 
REMARK    2  A    between atoms: N_13  and  C_14 
REMARK    3  A    between atoms: C_14  and  C_15 
ROOT
HETATM    1  C   UNL     1      -5.039  -0.238 -33.106  1.00  0.00    -0.006 A 
HETATM    2  C   UNL     1      -4.880  -1.613 -33.396  1.00  0.00     0.052 A 
HETATM    3  C   UNL     1      -5.738  -2.289 -34.333  1.00  0.00     0.100 C 
HETATM    4  N   UNL     1      -6.435  -2.845 -35.076  1.00  0.00    -0.191 NA
HETATM    5  C   UNL     1      -3.866  -2.350 -32.762  1.00  0.00     0.026 A 
HETATM    6  C   UNL     1      -3.016  -1.735 -31.843  1.00  0.00     0.044 A 
HETATM    7  C   UNL     1      -3.183  -0.388 -31.553  1.00  0.00     0.117 A 
HETATM    8  F   UNL     1      -2.366   0.205 -30.674  1.00  0.00    -0.206 F 
HETATM    9  C   UNL     1      -4.181   0.361 -32.168  1.00  0.00     0.052 A 
ENDROOT
BRANCH   1  10
HETATM   10  C   UNL     1      -6.094   0.609 -33.796  1.00  0.00     0.312 C 
BRANCH  10  11
HETATM   11  N   UNL     1      -7.338   0.663 -33.017  1.00  0.00     0.096 N 
HETATM   12  C   UNL     1      -7.699   2.045 -32.654  1.00  0.00     0.303 C 
HETATM   13  C   UNL     1      -8.453   2.821 -33.759  1.00  0.00     0.303 C 
HETATM   14  N   UNL     1      -9.694   2.153 -34.240  1.00  0.00     0.096 N 
HETATM   15  C   UNL     1      -9.232   0.813 -34.724  1.00  0.00     0.303 C 
HETATM   16  C   UNL     1      -8.462  -0.029 -33.673  1.00  0.00     0.303 C 
BRANCH  14  17
HETATM   17  C   UNL     1     -10.776   2.043 -33.219  1.00  0.00     0.227 C 
HETATM   18  C   UNL     1     -11.408   3.393 -32.773  1.00  0.00     0.069 C 
HETATM   19  C   UNL     1     -12.535   3.909 -33.675  1.00  0.00     0.190 C 
HETATM   20  N   UNL     1     -13.647   2.884 -33.713  1.00  0.00    -0.066 N 
HETATM   21  C   UNL     1     -12.159   3.977 -35.158  1.00  0.00     0.035 C 
HETATM   22  C   UNL     1     -14.332   2.520 -32.435  1.00  0.00     0.270 C 
HETATM   23  H   UNL     1     -14.396   3.286 -34.296  1.00  0.00     0.280 HD
HETATM   24  C   UNL     1     -13.012   1.782 -34.530  1.00  0.00     0.190 C 
HETATM   25  C   UNL     1     -12.470   2.582 -35.718  1.00  0.00     0.035 C 
HETATM   26  C   UNL     1     -11.919   1.100 -33.697  1.00  0.00     0.069 C 
ENDBRANCH  14  17
ENDBRANCH  10  11
ENDBRANCH   1  10
TORSDOF 3
ENDMDL
MODEL 4
REMARK VINA RESULT:      -8.0      1.271      1.978
REMARK  3 active torsions:
REMARK  status: ('A' for Active; 'I' for Inactive)
REMARK    1  A    between atoms: C_9  and  N_10 
REMARK    2  A    between atoms: N_13  and  C_14 
REMARK    3  A    between atoms: C_14  and  C_15 
ROOT
HETATM    1  C   UNL     1      -5.604  -2.020 -33.787  1.00  0.00    -0.006 A 
HETATM    2  C   UNL     1      -4.362  -2.565 -33.386  1.00  0.00     0.052 A 
HETATM    3  C   UNL     1      -3.444  -1.820 -32.566  1.00  0.00     0.100 C 
HETATM    4  N   UNL     1      -2.691  -1.220 -31.917  1.00  0.00    -0.191 NA
HETATM    5  C   UNL     1      -4.002  -3.862 -33.788  1.00  0.00     0.026 A 
HETATM    6  C   UNL     1      -4.861  -4.616 -34.588  1.00  0.00     0.044 A 
HETATM    7  C   UNL     1      -6.074  -4.074 -34.990  1.00  0.00     0.117 A 
HETATM    8  F   UNL     1      -6.900  -4.797 -35.754  1.00  0.00    -0.206 F 
HETATM    9  C   UNL     1      -6.450  -2.791 -34.603  1.00  0.00     0.052 A 
ENDROOT
BRANCH   1  10
HETATM   10  C   UNL     1      -6.054  -0.640 -33.343  1.00  0.00     0.312 C 
BRANCH  10  11
HETATM   11  N   UNL     1      -7.218  -0.179 -34.111  1.00  0.00     0.096 N 
HETATM   12  C   UNL     1      -8.460  -0.241 -33.319  1.00  0.00     0.303 C 
HETATM   13  C   UNL     1      -8.690   0.976 -32.393  1.00  0.00     0.303 C 
HETATM   14  N   UNL     1      -8.681   2.290 -33.094  1.00  0.00     0.096 N 
HETATM   15  C   UNL     1      -7.340   2.348 -33.759  1.00  0.00     0.303 C 
HETATM   16  C   UNL     1      -7.029   1.157 -34.704  1.00  0.00     0.303 C 
BRANCH  14  17
HETATM   17  C   UNL     1      -9.800   2.486 -34.061  1.00  0.00     0.227 C 
HETATM   18  C   UNL     1     -11.216   2.138 -33.517  1.00  0.00     0.069 C 
HETATM   19  C   UNL     1     -11.906   3.265 -32.740  1.00  0.00     0.190 C 
HETATM   20  N   UNL     1     -12.055   4.469 -33.644  1.00  0.00    -0.066 N 
HETATM   21  C   UNL     1     -11.050   3.856 -31.616  1.00  0.00     0.035 C 
HETATM   22  C   UNL     1     -12.863   4.333 -34.894  1.00  0.00     0.270 C 
HETATM   23  H   UNL     1     -12.555   5.185 -33.096  1.00  0.00     0.280 HD
HETATM   24  C   UNL     1     -10.623   4.939 -33.757  1.00  0.00     0.190 C 
HETATM   25  C   UNL     1     -10.207   4.952 -32.284  1.00  0.00     0.035 C 
HETATM   26  C   UNL     1      -9.829   3.942 -34.612  1.00  0.00     0.069 C 
ENDBRANCH  14  17
ENDBRANCH  10  11
ENDBRANCH   1  10
TORSDOF 3
ENDMDL
MODEL 5
REMARK VINA RESULT:      -7.7      5.900      7.980
REMARK  3 active torsions:
REMARK  status: ('A' for Active; 'I' for Inactive)
REMARK    1  A    between atoms: C_9  and  N_10 
REMARK    2  A    between atoms: N_13  and  C_14 
REMARK    3  A    between atoms: C_14  and  C_15 
ROOT
HETATM    1  C   UNL     1      -1.884   6.298 -30.877  1.00  0.00    -0.006 A 
HETATM    2  C   UNL     1      -0.958   6.905 -31.757  1.00  0.00     0.052 A 
HETATM    3  C   UNL     1      -1.321   7.261 -33.103  1.00  0.00     0.100 C 
HETATM    4  N   UNL     1      -1.601   7.537 -34.195  1.00  0.00    -0.191 NA
HETATM    5  C   UNL     1       0.350   7.174 -31.322  1.00  0.00     0.026 A 
HETATM    6  C   UNL     1       0.745   6.840 -30.026  1.00  0.00     0.044 A 
HETATM    7  C   UNL     1      -0.163   6.234 -29.169  1.00  0.00     0.117 A 
HETATM    8  F   UNL     1       0.213   5.916 -27.925  1.00  0.00    -0.206 F 
HETATM    9  C   UNL     1      -1.463   5.958 -29.579  1.00  0.00     0.052 A 
ENDROOT
BRANCH   1  10
HETATM   10  C   UNL     1      -3.320   6.026 -31.288  1.00  0.00     0.312 C 
BRANCH  10  11
HETATM   11  N   UNL     1      -3.404   4.937 -32.270  1.00  0.00     0.096 N 
HETATM   12  C   UNL     1      -3.060   3.632 -31.674  1.00  0.00     0.303 C 
HETATM   13  C   UNL     1      -4.227   2.942 -30.929  1.00  0.00     0.303 C 
HETATM   14  N   UNL     1      -5.449   2.741 -31.757  1.00  0.00     0.096 N 
HETATM   15  C   UNL     1      -5.822   4.118 -32.211  1.00  0.00     0.303 C 
HETATM   16  C   UNL     1      -4.702   4.882 -32.965  1.00  0.00     0.303 C 
BRANCH  14  17
HETATM   17  C   UNL     1      -5.277   1.795 -32.898  1.00  0.00     0.227 C 
HETATM   18  C   UNL     1      -4.634   0.426 -32.536  1.00  0.00     0.069 C 
HETATM   19  C   UNL     1      -5.614  -0.633 -32.019  1.00  0.00     0.190 C 
HETATM   20  N   UNL     1      -6.662  -0.896 -33.079  1.00  0.00    -0.066 N 
HETATM   21  C   UNL     1      -6.493  -0.150 -30.862  1.00  0.00     0.035 C 
HETATM   22  C   UNL     1      -6.224  -1.415 -34.409  1.00  0.00     0.270 C 
HETATM   23  H   UNL     1      -7.274  -1.636 -32.706  1.00  0.00     0.280 HD
HETATM   24  C   UNL     1      -7.463   0.386 -33.032  1.00  0.00     0.190 C 
HETATM   25  C   UNL     1      -7.704   0.520 -31.525  1.00  0.00     0.035 C 
HETATM   26  C   UNL     1      -6.627   1.528 -33.625  1.00  0.00     0.069 C 
ENDBRANCH  14  17
ENDBRANCH  10  11
ENDBRANCH   1  10
TORSDOF 3
ENDMDL
MODEL 6
REMARK VINA RESULT:      -7.7      2.357      3.676
REMARK  3 active torsions:
REMARK  status: ('A' for Active; 'I' for Inactive)
REMARK    1  A    between atoms: C_9  and  N_10 
REMARK    2  A    between atoms: N_13  and  C_14 
REMARK    3  A    between atoms: C_14  and  C_15 
ROOT
HETATM    1  C   UNL     1      -5.812  -0.399 -32.265  1.00  0.00    -0.006 A 
HETATM    2  C   UNL     1      -5.291  -1.325 -33.198  1.00  0.00     0.052 A 
HETATM    3  C   UNL     1      -6.153  -2.086 -34.064  1.00  0.00     0.100 C 
HETATM    4  N   UNL     1      -6.842  -2.715 -34.755  1.00  0.00    -0.191 NA
HETATM    5  C   UNL     1      -3.903  -1.518 -33.295  1.00  0.00     0.026 A 
HETATM    6  C   UNL     1      -3.032  -0.805 -32.471  1.00  0.00     0.044 A 
HETATM    7  C   UNL     1      -3.548   0.095 -31.549  1.00  0.00     0.117 A 
HETATM    8  F   UNL     1      -2.714   0.783 -30.759  1.00  0.00    -0.206 F 
HETATM    9  C   UNL     1      -4.919   0.301 -31.436  1.00  0.00     0.052 A 
ENDROOT
BRANCH   1  10
HETATM   10  C   UNL     1      -7.301  -0.126 -32.153  1.00  0.00     0.312 C 
BRANCH  10  11
HETATM   11  N   UNL     1      -7.722   0.953 -33.056  1.00  0.00     0.096 N 
HETATM   12  C   UNL     1      -8.826   0.533 -33.938  1.00  0.00     0.303 C 
HETATM   13  C   UNL     1     -10.230   0.631 -33.297  1.00  0.00     0.303 C 
HETATM   14  N   UNL     1     -10.573   1.984 -32.777  1.00  0.00     0.096 N 
HETATM   15  C   UNL     1      -9.492   2.287 -31.786  1.00  0.00     0.303 C 
HETATM   16  C   UNL     1      -8.048   2.205 -32.350  1.00  0.00     0.303 C 
BRANCH  14  17
HETATM   17  C   UNL     1     -10.693   3.040 -33.823  1.00  0.00     0.227 C 
HETATM   18  C   UNL     1     -11.543   2.650 -35.066  1.00  0.00     0.069 C 
HETATM   19  C   UNL     1     -13.053   2.862 -34.911  1.00  0.00     0.190 C 
HETATM   20  N   UNL     1     -13.320   4.324 -34.625  1.00  0.00    -0.066 N 
HETATM   21  C   UNL     1     -13.643   2.213 -33.655  1.00  0.00     0.035 C 
HETATM   22  C   UNL     1     -12.906   5.341 -35.639  1.00  0.00     0.270 C 
HETATM   23  H   UNL     1     -14.344   4.427 -34.566  1.00  0.00     0.280 HD
HETATM   24  C   UNL     1     -12.794   4.455 -33.214  1.00  0.00     0.190 C 
HETATM   25  C   UNL     1     -13.471   3.257 -32.542  1.00  0.00     0.035 C 
HETATM   26  C   UNL     1     -11.262   4.364 -33.235  1.00  0.00     0.069 C 
ENDBRANCH  14  17
ENDBRANCH  10  11
ENDBRANCH   1  10
TORSDOF 3
ENDMDL
MODEL 7
REMARK VINA RESULT:      -7.6      5.783      7.534
REMARK  3 active torsions:
REMARK  status: ('A' for Active; 'I' for Inactive)
REMARK    1  A    between atoms: C_9  and  N_10 
REMARK    2  A    between atoms: N_13  and  C_14 
REMARK    3  A    between atoms: C_14  and  C_15 
ROOT
HETATM    1  C   UNL     1      -1.771   6.470 -32.086  1.00  0.00    -0.006 A 
HETATM    2  C   UNL     1      -1.744   7.567 -31.195  1.00  0.00     0.052 A 
HETATM    3  C   UNL     1      -2.770   8.575 -31.211  1.00  0.00     0.100 C 
HETATM    4  N   UNL     1      -3.586   9.401 -31.228  1.00  0.00    -0.191 NA
HETATM    5  C   UNL     1      -0.697   7.691 -30.267  1.00  0.00     0.026 A 
HETATM    6  C   UNL     1       0.322   6.739 -30.221  1.00  0.00     0.044 A 
HETATM    7  C   UNL     1       0.298   5.669 -31.105  1.00  0.00     0.117 A 
HETATM    8  F   UNL     1       1.272   4.753 -31.061  1.00  0.00    -0.206 F 
HETATM    9  C   UNL     1      -0.729   5.527 -32.033  1.00  0.00     0.052 A 
ENDROOT
BRANCH   1  10
HETATM   10  C   UNL     1      -2.903   6.271 -33.078  1.00  0.00     0.312 C 
BRANCH  10  11
HETATM   11  N   UNL     1      -4.104   5.732 -32.427  1.00  0.00     0.096 N 
HETATM   12  C   UNL     1      -5.253   5.681 -33.348  1.00  0.00     0.303 C 
HETATM   13  C   UNL     1      -5.287   4.434 -34.262  1.00  0.00     0.303 C 
HETATM   14  N   UNL     1      -5.252   3.137 -33.530  1.00  0.00     0.096 N 
HETATM   15  C   UNL     1      -3.990   3.198 -32.726  1.00  0.00     0.303 C 
HETATM   16  C   UNL     1      -3.876   4.425 -31.784  1.00  0.00     0.303 C 
BRANCH  14  17
HETATM   17  C   UNL     1      -6.451   2.868 -32.683  1.00  0.00     0.227 C 
HETATM   18  C   UNL     1      -7.802   2.795 -33.450  1.00  0.00     0.069 C 
HETATM   19  C   UNL     1      -8.128   1.426 -34.059  1.00  0.00     0.190 C 
HETATM   20  N   UNL     1      -8.182   0.394 -32.953  1.00  0.00    -0.066 N 
HETATM   21  C   UNL     1      -7.006   0.854 -34.930  1.00  0.00     0.035 C 
HETATM   22  C   UNL     1      -9.188   0.563 -31.862  1.00  0.00     0.270 C 
HETATM   23  H   UNL     1      -8.439  -0.499 -33.400  1.00  0.00     0.280 HD
HETATM   24  C   UNL     1      -6.721   0.280 -32.578  1.00  0.00     0.190 C 
HETATM   25  C   UNL     1      -6.082   0.104 -33.959  1.00  0.00     0.035 C 
HETATM   26  C   UNL     1      -6.283   1.561 -31.856  1.00  0.00     0.069 C 
ENDBRANCH  14  17
ENDBRANCH  10  11
ENDBRANCH   1  10
TORSDOF 3
ENDMDL
MODEL 8
REMARK VINA RESULT:      -7.5      2.885      3.617
REMARK  3 active torsions:
REMARK  status: ('A' for Active; 'I' for Inactive)
REMARK    1  A    between atoms: C_9  and  N_10 
REMARK    2  A    between atoms: N_13  and  C_14 
REMARK    3  A    between atoms: C_14  and  C_15 
ROOT
HETATM    1  C   UNL     1      -4.728  -2.605 -33.775  1.00  0.00    -0.006 A 
HETATM    2  C   UNL     1      -4.010  -3.696 -33.231  1.00  0.00     0.052 A 
HETATM    3  C   UNL     1      -3.021  -3.509 -32.203  1.00  0.00     0.100 C 
HETATM    4  N   UNL     1      -2.210  -3.364 -31.384  1.00  0.00    -0.191 NA
HETATM    5  C   UNL     1      -4.258  -4.999 -33.694  1.00  0.00     0.026 A 
HETATM    6  C   UNL     1      -5.205  -5.225 -34.693  1.00  0.00     0.044 A 
HETATM    7  C   UNL     1      -5.899  -4.150 -35.233  1.00  0.00     0.117 A 
HETATM    8  F   UNL     1      -6.810  -4.365 -36.189  1.00  0.00    -0.206 F 
HETATM    9  C   UNL     1      -5.669  -2.852 -34.789  1.00  0.00     0.052 A 
ENDROOT
BRANCH   1  10
HETATM   10  C   UNL     1      -4.524  -1.185 -33.278  1.00  0.00     0.312 C 
BRANCH  10  11
HETATM   11  N   UNL     1      -5.799  -0.553 -32.915  1.00  0.00     0.096 N 
HETATM   12  C   UNL     1      -5.914  -0.342 -31.460  1.00  0.00     0.303 C 
HETATM   13  C   UNL     1      -5.223   0.941 -30.943  1.00  0.00     0.303 C 
HETATM   14  N   UNL     1      -5.680   2.194 -31.606  1.00  0.00     0.096 N 
HETATM   15  C   UNL     1      -5.403   1.966 -33.060  1.00  0.00     0.303 C 
HETATM   16  C   UNL     1      -6.059   0.693 -33.658  1.00  0.00     0.303 C 
BRANCH  14  17
HETATM   17  C   UNL     1      -7.106   2.548 -31.350  1.00  0.00     0.227 C 
HETATM   18  C   UNL     1      -7.462   2.834 -29.863  1.00  0.00     0.069 C 
HETATM   19  C   UNL     1      -7.192   4.269 -29.396  1.00  0.00     0.190 C 
HETATM   20  N   UNL     1      -8.002   5.226 -30.244  1.00  0.00    -0.066 N 
HETATM   21  C   UNL     1      -5.771   4.758 -29.692  1.00  0.00     0.035 C 
HETATM   22  C   UNL     1      -9.491   5.108 -30.235  1.00  0.00     0.270 C 
HETATM   23  H   UNL     1      -7.819   6.170 -29.873  1.00  0.00     0.280 HD
HETATM   24  C   UNL     1      -7.278   5.138 -31.569  1.00  0.00     0.190 C 
HETATM   25  C   UNL     1      -5.827   5.326 -31.117  1.00  0.00     0.035 C 
HETATM   26  C   UNL     1      -7.552   3.770 -32.206  1.00  0.00     0.069 C 
ENDBRANCH  14  17
ENDBRANCH  10  11
ENDBRANCH   1  10
TORSDOF 3
ENDMDL
MODEL 9
REMARK VINA RESULT:      -7.4      5.737      7.702
REMARK  3 active torsions:
REMARK  status: ('A' for Active; 'I' for Inactive)
REMARK    1  A    between atoms: C_9  and  N_10 
REMARK    2  A    between atoms: N_13  and  C_14 
REMARK    3  A    between atoms: C_14  and  C_15 
ROOT
HETATM    1  C   UNL     1      -2.569   6.225 -31.230  1.00  0.00    -0.006 A 
HETATM    2  C   UNL     1      -2.019   7.146 -32.151  1.00  0.00     0.052 A 
HETATM    3  C   UNL     1      -1.553   6.727 -33.446  1.00  0.00     0.100 C 
HETATM    4  N   UNL     1      -1.161   6.395 -34.487  1.00  0.00    -0.191 NA
HETATM    5  C   UNL     1      -1.919   8.505 -31.810  1.00  0.00     0.026 A 
HETATM    6  C   UNL     1      -2.354   8.953 -30.562  1.00  0.00     0.044 A 
HETATM    7  C   UNL     1      -2.883   8.044 -29.656  1.00  0.00     0.117 A 
HETATM    8  F   UNL     1      -3.304   8.473 -28.460  1.00  0.00    -0.206 F 
HETATM    9  C   UNL     1      -2.991   6.694 -29.973  1.00  0.00     0.052 A 
ENDROOT
BRANCH   1  10
HETATM   10  C   UNL     1      -2.736   4.755 -31.569  1.00  0.00     0.312 C 
BRANCH  10  11
HETATM   11  N   UNL     1      -4.085   4.275 -31.241  1.00  0.00     0.096 N 
HETATM   12  C   UNL     1      -5.072   4.672 -32.261  1.00  0.00     0.303 C 
HETATM   13  C   UNL     1      -5.128   3.740 -33.495  1.00  0.00     0.303 C 
HETATM   14  N   UNL     1      -5.381   2.309 -33.171  1.00  0.00     0.096 N 
HETATM   15  C   UNL     1      -4.264   1.934 -32.246  1.00  0.00     0.303 C 
HETATM   16  C   UNL     1      -4.136   2.825 -30.983  1.00  0.00     0.303 C 
BRANCH  14  17
HETATM   17  C   UNL     1      -6.722   2.033 -32.579  1.00  0.00     0.227 C 
HETATM   18  C   UNL     1      -7.931   2.294 -33.522  1.00  0.00     0.069 C 
HETATM   19  C   UNL     1      -8.285   1.132 -34.457  1.00  0.00     0.190 C 
HETATM   20  N   UNL     1      -8.620  -0.087 -33.626  1.00  0.00    -0.066 N 
HETATM   21  C   UNL     1      -7.098   0.607 -35.269  1.00  0.00     0.035 C 
HETATM   22  C   UNL     1      -9.770  -0.014 -32.674  1.00  0.00     0.270 C 
HETATM   23  H   UNL     1      -8.887  -0.829 -34.290  1.00  0.00     0.280 HD
HETATM   24  C   UNL     1      -7.259  -0.465 -33.087  1.00  0.00     0.190 C 
HETATM   25  C   UNL     1      -6.423  -0.439 -34.370  1.00  0.00     0.035 C 
HETATM   26  C   UNL     1      -6.821   0.573 -32.045  1.00  0.00     0.069 C 
ENDBRANCH  14  17
ENDBRANCH  10  11
ENDBRANCH   1  10
TORSDOF 3
ENDMDL
MODEL 10
REMARK VINA RESULT:      -7.3      5.190      7.534
REMARK  3 active torsions:
REMARK  status: ('A' for Active; 'I' for Inactive)
REMARK    1  A    between atoms: C_9  and  N_10 
REMARK    2  A    between atoms: N_13  and  C_14 
REMARK    3  A    between atoms: C_14  and  C_15 
ROOT
HETATM    1  C   UNL     1      -5.819   0.784 -33.377  1.00  0.00    -0.006 A 
HETATM    2  C   UNL     1      -6.974   0.209 -33.957  1.00  0.00     0.052 A 
HETATM    3  C   UNL     1      -8.143   0.997 -34.246  1.00  0.00     0.100 C 
HETATM    4  N   UNL     1      -9.095   1.623 -34.468  1.00  0.00    -0.191 NA
HETATM    5  C   UNL     1      -6.996  -1.161 -34.264  1.00  0.00     0.026 A 
HETATM    6  C   UNL     1      -5.887  -1.963 -33.996  1.00  0.00     0.044 A 
HETATM    7  C   UNL     1      -4.759  -1.398 -33.416  1.00  0.00     0.117 A 
HETATM    8  F   UNL     1      -3.692  -2.164 -33.161  1.00  0.00    -0.206 F 
HETATM    9  C   UNL     1      -4.716  -0.043 -33.103  1.00  0.00     0.052 A 
ENDROOT
BRANCH   1  10
HETATM   10  C   UNL     1      -5.732   2.267 -33.066  1.00  0.00     0.312 C 
BRANCH  10  11
HETATM   11  N   UNL     1      -4.662   2.555 -32.103  1.00  0.00     0.096 N 
HETATM   12  C   UNL     1      -3.411   2.954 -32.775  1.00  0.00     0.303 C 
HETATM   13  C   UNL     1      -3.346   4.447 -33.172  1.00  0.00     0.303 C 
HETATM   14  N   UNL     1      -3.559   5.392 -32.040  1.00  0.00     0.096 N 
HETATM   15  C   UNL     1      -4.904   5.024 -31.497  1.00  0.00     0.303 C 
HETATM   16  C   UNL     1      -5.054   3.538 -31.078  1.00  0.00     0.303 C 
BRANCH  14  17
HETATM   17  C   UNL     1      -2.496   5.357 -30.994  1.00  0.00     0.227 C 
HETATM   18  C   UNL     1      -1.038   5.277 -31.530  1.00  0.00     0.069 C 
HETATM   19  C   UNL     1      -0.407   6.627 -31.894  1.00  0.00     0.190 C 
HETATM   20  N   UNL     1      -0.386   7.510 -30.665  1.00  0.00    -0.066 N 
HETATM   21  C   UNL     1      -1.262   7.474 -32.840  1.00  0.00     0.035 C 
HETATM   22  C   UNL     1       0.380   7.054 -29.466  1.00  0.00     0.270 C 
HETATM   23  H   UNL     1       0.078   8.387 -30.944  1.00  0.00     0.280 HD
HETATM   24  C   UNL     1      -1.854   7.834 -30.504  1.00  0.00     0.190 C 
HETATM   25  C   UNL     1      -2.212   8.264 -31.929  1.00  0.00     0.035 C 
HETATM   26  C   UNL     1      -2.601   6.578 -30.034  1.00  0.00     0.069 C 
ENDBRANCH  14  17
ENDBRANCH  10  11
ENDBRANCH   1  10
TORSDOF 3
ENDMDL
