MODEL 1
REMARK VINA RESULT:      -6.6      0.000      0.000
REMARK  5 active torsions:
REMARK  status: ('A' for Active; 'I' for Inactive)
REMARK    1  A    between atoms: C_2  and  O_3 
REMARK    2  A    between atoms: C_4  and  C_5 
REMARK    3  A    between atoms: C_5  and  O_6 
REMARK    4  A    between atoms: C_9  and  C_10 
REMARK    5  A    between atoms: C_22  and  O_23 
ROOT
HETATM    1  C   UNL     1      -6.259   6.154 -32.475  1.00  0.00     0.047 C 
HETATM    2  C   UNL     1      -6.170   4.942 -33.422  1.00  0.00     0.073 C 
HETATM    3  C   UNL     1      -6.135   3.614 -32.579  1.00  0.00     0.133 C 
HETATM    4  C   UNL     1      -4.768   3.296 -31.882  1.00  0.00     0.074 C 
HETATM    5  C   UNL     1      -3.618   4.037 -32.484  1.00  0.00     0.030 A 
HETATM    6  C   UNL     1      -3.712   4.825 -33.609  1.00  0.00     0.042 A 
HETATM    7  N   UNL     1      -2.476   5.361 -33.830  1.00  0.00    -0.279 N 
HETATM    8  H   UNL     1      -2.177   5.990 -34.569  1.00  0.00     0.189 HD
HETATM    9  N   UNL     1      -1.582   5.009 -32.881  1.00  0.00    -0.149 NA
HETATM   10  C   UNL     1      -2.294   4.225 -32.083  1.00  0.00     0.190 A 
HETATM   11  C   UNL     1      -4.946   5.098 -34.373  1.00  0.00     0.097 C 
ENDROOT
BRANCH   4  12
HETATM   12  C   UNL     1      -4.342   1.831 -31.858  1.00  0.00    -0.048 A 
HETATM   13  C   UNL     1      -3.580   1.248 -32.891  1.00  0.00     0.009 A 
HETATM   14  C   UNL     1      -3.231  -0.104 -32.854  1.00  0.00     0.024 A 
HETATM   15  C   UNL     1      -3.640  -0.892 -31.784  1.00  0.00     0.034 A 
HETATM   16 CL   UNL     1      -3.216  -2.559 -31.740  1.00  0.00    -0.084 Cl
HETATM   17  C   UNL     1      -4.395  -0.340 -30.752  1.00  0.00     0.024 A 
HETATM   18  C   UNL     1      -4.745   1.013 -30.789  1.00  0.00     0.009 A 
ENDBRANCH   4  12
BRANCH   3  19
HETATM   19  C   UNL     1      -6.661   2.458 -33.408  1.00  0.00     0.266 C 
HETATM   20  O   UNL     1      -6.336   2.229 -34.567  1.00  0.00    -0.265 OA
BRANCH  19  21
HETATM   21  O   UNL     1      -7.581   1.747 -32.696  1.00  0.00    -0.326 OA
HETATM   22  C   UNL     1      -7.625   0.354 -33.009  1.00  0.00     0.213 C 
ENDBRANCH  19  21
ENDBRANCH   3  19
BRANCH   2  23
HETATM   23  O   UNL     1      -7.373   5.013 -34.208  1.00  0.00    -0.389 OA
HETATM   24  H   UNL     1      -8.128   4.801 -33.619  1.00  0.00     0.210 HD
ENDBRANCH   2  23
BRANCH  10  25
HETATM   25  O   UNL     1      -1.654   3.767 -31.013  1.00  0.00    -0.343 OA
HETATM   26  H   UNL     1      -2.253   3.955 -30.271  1.00  0.00     0.219 HD
ENDBRANCH  10  25
TORSDOF 5
ENDMDL
MODEL 2
REMARK VINA RESULT:      -6.5      3.953      6.153
REMARK  5 active torsions:
REMARK  status: ('A' for Active; 'I' for Inactive)
REMARK    1  A    between atoms: C_2  and  O_3 
REMARK    2  A    between atoms: C_4  and  C_5 
REMARK    3  A    between atoms: C_5  and  O_6 
REMARK    4  A    between atoms: C_9  and  C_10 
REMARK    5  A    between atoms: C_22  and  O_23 
ROOT
HETATM    1  C   UNL     1      -6.967  -3.149 -34.197  1.00  0.00     0.047 C 
HETATM    2  C   UNL     1      -5.965  -1.980 -34.273  1.00  0.00     0.073 C 
HETATM    3  C   UNL     1      -5.731  -1.389 -32.835  1.00  0.00     0.133 C 
HETATM    4  C   UNL     1      -6.889  -0.491 -32.280  1.00  0.00     0.074 C 
HETATM    5  C   UNL     1      -7.796   0.022 -33.352  1.00  0.00     0.030 A 
HETATM    6  C   UNL     1      -7.581  -0.164 -34.699  1.00  0.00     0.042 A 
HETATM    7  N   UNL     1      -8.630   0.410 -35.357  1.00  0.00    -0.279 N 
HETATM    8  H   UNL     1      -8.804   0.462 -36.357  1.00  0.00     0.189 HD
HETATM    9  N   UNL     1      -9.554   0.920 -34.514  1.00  0.00    -0.149 NA
HETATM   10  C   UNL     1      -9.035   0.666 -33.320  1.00  0.00     0.190 A 
HETATM   11  C   UNL     1      -6.463  -0.919 -35.299  1.00  0.00     0.097 C 
ENDROOT
BRANCH   4  12
HETATM   12  C   UNL     1      -6.472   0.737 -31.476  1.00  0.00    -0.048 A 
HETATM   13  C   UNL     1      -6.353   0.716 -30.071  1.00  0.00     0.009 A 
HETATM   14  C   UNL     1      -5.998   1.865 -29.361  1.00  0.00     0.024 A 
HETATM   15  C   UNL     1      -5.757   3.051 -30.046  1.00  0.00     0.034 A 
HETATM   16 CL   UNL     1      -5.325   4.469 -29.172  1.00  0.00    -0.084 Cl
HETATM   17  C   UNL     1      -5.869   3.098 -31.433  1.00  0.00     0.024 A 
HETATM   18  C   UNL     1      -6.226   1.948 -32.144  1.00  0.00     0.009 A 
ENDBRANCH   4  12
BRANCH   3  19
HETATM   19  C   UNL     1      -4.374  -0.717 -32.764  1.00  0.00     0.266 C 
HETATM   20  O   UNL     1      -3.883  -0.043 -33.661  1.00  0.00    -0.265 OA
BRANCH  19  21
HETATM   21  O   UNL     1      -3.762  -1.012 -31.581  1.00  0.00    -0.326 OA
HETATM   22  C   UNL     1      -2.894   0.010 -31.091  1.00  0.00     0.213 C 
ENDBRANCH  19  21
ENDBRANCH   3  19
BRANCH   2  23
HETATM   23  O   UNL     1      -4.758  -2.576 -34.780  1.00  0.00    -0.389 OA
HETATM   24  H   UNL     1      -4.001  -2.058 -34.436  1.00  0.00     0.210 HD
ENDBRANCH   2  23
BRANCH  10  25
HETATM   25  O   UNL     1      -9.781   1.031 -32.284  1.00  0.00    -0.343 OA
HETATM   26  H   UNL     1     -10.486   1.577 -32.671  1.00  0.00     0.219 HD
ENDBRANCH  10  25
TORSDOF 5
ENDMDL
MODEL 3
REMARK VINA RESULT:      -6.4      2.545      4.489
REMARK  5 active torsions:
REMARK  status: ('A' for Active; 'I' for Inactive)
REMARK    1  A    between atoms: C_2  and  O_3 
REMARK    2  A    between atoms: C_4  and  C_5 
REMARK    3  A    between atoms: C_5  and  O_6 
REMARK    4  A    between atoms: C_9  and  C_10 
REMARK    5  A    between atoms: C_22  and  O_23 
ROOT
HETATM    1  C   UNL     1      -2.590   4.700 -33.037  1.00  0.00     0.047 C 
HETATM    2  C   UNL     1      -3.336   3.898 -31.953  1.00  0.00     0.073 C 
HETATM    3  C   UNL     1      -4.216   2.784 -32.630  1.00  0.00     0.133 C 
HETATM    4  C   UNL     1      -5.537   3.290 -33.306  1.00  0.00     0.074 C 
HETATM    5  C   UNL     1      -5.967   4.635 -32.816  1.00  0.00     0.030 A 
HETATM    6  C   UNL     1      -5.348   5.317 -31.792  1.00  0.00     0.042 A 
HETATM    7  N   UNL     1      -5.994   6.512 -31.656  1.00  0.00    -0.279 N 
HETATM    8  H   UNL     1      -5.807   7.267 -31.003  1.00  0.00     0.189 HD
HETATM    9  N   UNL     1      -6.974   6.678 -32.571  1.00  0.00    -0.149 NA
HETATM   10  C   UNL     1      -6.930   5.544 -33.258  1.00  0.00     0.190 A 
HETATM   11  C   UNL     1      -4.157   4.863 -31.047  1.00  0.00     0.097 C 
ENDROOT
BRANCH   4  12
HETATM   12  C   UNL     1      -6.761   2.392 -33.161  1.00  0.00    -0.048 A 
HETATM   13  C   UNL     1      -7.594   2.426 -32.024  1.00  0.00     0.009 A 
HETATM   14  C   UNL     1      -8.691   1.570 -31.908  1.00  0.00     0.024 A 
HETATM   15  C   UNL     1      -8.971   0.666 -32.927  1.00  0.00     0.034 A 
HETATM   16 CL   UNL     1     -10.318  -0.394 -32.784  1.00  0.00    -0.084 Cl
HETATM   17  C   UNL     1      -8.163   0.612 -34.060  1.00  0.00     0.024 A 
HETATM   18  C   UNL     1      -7.063   1.468 -34.176  1.00  0.00     0.009 A 
ENDBRANCH   4  12
BRANCH   3  19
HETATM   19  C   UNL     1      -4.446   1.642 -31.661  1.00  0.00     0.266 C 
HETATM   20  O   UNL     1      -4.751   1.780 -30.483  1.00  0.00    -0.265 OA
BRANCH  19  21
HETATM   21  O   UNL     1      -4.216   0.447 -32.276  1.00  0.00    -0.326 OA
HETATM   22  C   UNL     1      -5.047  -0.623 -31.824  1.00  0.00     0.213 C 
ENDBRANCH  19  21
ENDBRANCH   3  19
BRANCH   2  23
HETATM   23  O   UNL     1      -2.289   3.307 -31.162  1.00  0.00    -0.389 OA
HETATM   24  H   UNL     1      -1.599   3.989 -31.021  1.00  0.00     0.210 HD
ENDBRANCH   2  23
BRANCH  10  25
HETATM   25  O   UNL     1      -7.780   5.460 -34.275  1.00  0.00    -0.343 OA
HETATM   26  H   UNL     1      -7.292   5.828 -35.031  1.00  0.00     0.219 HD
ENDBRANCH  10  25
TORSDOF 5
ENDMDL
MODEL 4
REMARK VINA RESULT:      -6.4      3.994      6.040
REMARK  5 active torsions:
REMARK  status: ('A' for Active; 'I' for Inactive)
REMARK    1  A    between atoms: C_2  and  O_3 
REMARK    2  A    between atoms: C_4  and  C_5 
REMARK    3  A    between atoms: C_5  and  O_6 
REMARK    4  A    between atoms: C_9  and  C_10 
REMARK    5  A    between atoms: C_22  and  O_23 
ROOT
HETATM    1  C   UNL     1      -5.615   0.333 -29.389  1.00  0.00     0.047 C 
HETATM    2  C   UNL     1      -6.036   1.530 -30.265  1.00  0.00     0.073 C 
HETATM    3  C   UNL     1      -7.563   1.413 -30.621  1.00  0.00     0.133 C 
HETATM    4  C   UNL     1      -7.918   0.355 -31.722  1.00  0.00     0.074 C 
HETATM    5  C   UNL     1      -6.742  -0.035 -32.560  1.00  0.00     0.030 A 
HETATM    6  C   UNL     1      -5.501   0.554 -32.468  1.00  0.00     0.042 A 
HETATM    7  N   UNL     1      -4.685  -0.086 -33.356  1.00  0.00    -0.279 N 
HETATM    8  H   UNL     1      -3.703   0.082 -33.556  1.00  0.00     0.189 HD
HETATM    9  N   UNL     1      -5.308  -1.100 -33.994  1.00  0.00    -0.149 NA
HETATM   10  C   UNL     1      -6.535  -1.054 -33.491  1.00  0.00     0.190 A 
HETATM   11  C   UNL     1      -5.118   1.619 -31.520  1.00  0.00     0.097 C 
ENDROOT
BRANCH   4  12
HETATM   12  C   UNL     1      -9.013   0.743 -32.711  1.00  0.00    -0.048 A 
HETATM   13  C   UNL     1      -8.811   1.702 -33.725  1.00  0.00     0.009 A 
HETATM   14  C   UNL     1      -9.843   2.057 -34.596  1.00  0.00     0.024 A 
HETATM   15  C   UNL     1     -11.092   1.460 -34.465  1.00  0.00     0.034 A 
HETATM   16 CL   UNL     1     -12.366   1.901 -35.534  1.00  0.00    -0.084 Cl
HETATM   17  C   UNL     1     -11.317   0.510 -33.471  1.00  0.00     0.024 A 
HETATM   18  C   UNL     1     -10.284   0.155 -32.598  1.00  0.00     0.009 A 
ENDBRANCH   4  12
BRANCH   3  19
HETATM   19  C   UNL     1      -8.135   2.786 -30.914  1.00  0.00     0.266 C 
HETATM   20  O   UNL     1      -7.542   3.674 -31.514  1.00  0.00    -0.265 OA
BRANCH  19  21
HETATM   21  O   UNL     1      -9.381   2.904 -30.370  1.00  0.00    -0.326 OA
HETATM   22  C   UNL     1     -10.220   3.863 -31.014  1.00  0.00     0.213 C 
ENDBRANCH  19  21
ENDBRANCH   3  19
BRANCH   2  23
HETATM   23  O   UNL     1      -5.794   2.681 -29.437  1.00  0.00    -0.389 OA
HETATM   24  H   UNL     1      -6.020   2.439 -28.515  1.00  0.00     0.210 HD
ENDBRANCH   2  23
BRANCH  10  25
HETATM   25  O   UNL     1      -7.365  -1.997 -33.923  1.00  0.00    -0.343 OA
HETATM   26  H   UNL     1      -7.654  -1.686 -34.797  1.00  0.00     0.219 HD
ENDBRANCH  10  25
TORSDOF 5
ENDMDL
MODEL 5
REMARK VINA RESULT:      -6.4     16.769     18.727
REMARK  5 active torsions:
REMARK  status: ('A' for Active; 'I' for Inactive)
REMARK    1  A    between atoms: C_2  and  O_3 
REMARK    2  A    between atoms: C_4  and  C_5 
REMARK    3  A    between atoms: C_5  and  O_6 
REMARK    4  A    between atoms: C_9  and  C_10 
REMARK    5  A    between atoms: C_22  and  O_23 
ROOT
HETATM    1  C   UNL     1      -0.235 -14.047 -39.403  1.00  0.00     0.047 C 
HETATM    2  C   UNL     1      -1.418 -14.932 -39.842  1.00  0.00     0.073 C 
HETATM    3  C   UNL     1      -2.573 -14.028 -40.411  1.00  0.00     0.133 C 
HETATM    4  C   UNL     1      -3.417 -13.260 -39.336  1.00  0.00     0.074 C 
HETATM    5  C   UNL     1      -3.294 -13.848 -37.967  1.00  0.00     0.030 A 
HETATM    6  C   UNL     1      -2.614 -15.011 -37.685  1.00  0.00     0.042 A 
HETATM    7  N   UNL     1      -2.690 -15.205 -36.335  1.00  0.00    -0.279 N 
HETATM    8  H   UNL     1      -2.302 -15.960 -35.777  1.00  0.00     0.189 HD
HETATM    9  N   UNL     1      -3.341 -14.204 -35.704  1.00  0.00    -0.149 NA
HETATM   10  C   UNL     1      -3.683 -13.401 -36.702  1.00  0.00     0.190 A 
HETATM   11  C   UNL     1      -1.874 -15.837 -38.659  1.00  0.00     0.097 C 
ENDROOT
BRANCH   4  12
HETATM   12  C   UNL     1      -4.916 -13.150 -39.600  1.00  0.00    -0.048 A 
HETATM   13  C   UNL     1      -5.834 -14.128 -39.166  1.00  0.00     0.009 A 
HETATM   14  C   UNL     1      -7.197 -14.013 -39.450  1.00  0.00     0.024 A 
HETATM   15  C   UNL     1      -7.660 -12.919 -40.172  1.00  0.00     0.034 A 
HETATM   16 CL   UNL     1      -9.338 -12.779 -40.527  1.00  0.00    -0.084 Cl
HETATM   17  C   UNL     1      -6.773 -11.940 -40.613  1.00  0.00     0.024 A 
HETATM   18  C   UNL     1      -5.408 -12.055 -40.330  1.00  0.00     0.009 A 
ENDBRANCH   4  12
BRANCH   3  19
HETATM   19  C   UNL     1      -3.428 -14.823 -41.378  1.00  0.00     0.266 C 
HETATM   20  O   UNL     1      -3.839 -15.958 -41.172  1.00  0.00    -0.265 OA
BRANCH  19  21
HETATM   21  O   UNL     1      -3.627 -14.113 -42.525  1.00  0.00    -0.326 OA
HETATM   22  C   UNL     1      -4.838 -14.427 -43.213  1.00  0.00     0.213 C 
ENDBRANCH  19  21
ENDBRANCH   3  19
BRANCH   2  23
HETATM   23  O   UNL     1      -0.873 -15.770 -40.877  1.00  0.00    -0.389 OA
HETATM   24  H   UNL     1      -0.205 -15.245 -41.365  1.00  0.00     0.210 HD
ENDBRANCH   2  23
BRANCH  10  25
HETATM   25  O   UNL     1      -4.311 -12.285 -36.348  1.00  0.00    -0.343 OA
HETATM   26  H   UNL     1      -3.596 -11.653 -36.158  1.00  0.00     0.219 HD
ENDBRANCH  10  25
TORSDOF 5
ENDMDL
MODEL 6
REMARK VINA RESULT:      -6.3      3.564      5.248
REMARK  5 active torsions:
REMARK  status: ('A' for Active; 'I' for Inactive)
REMARK    1  A    between atoms: C_2  and  O_3 
REMARK    2  A    between atoms: C_4  and  C_5 
REMARK    3  A    between atoms: C_5  and  O_6 
REMARK    4  A    between atoms: C_9  and  C_10 
REMARK    5  A    between atoms: C_22  and  O_23 
ROOT
HETATM    1  C   UNL     1      -6.171   4.071 -31.514  1.00  0.00     0.047 C 
HETATM    2  C   UNL     1      -6.194   2.644 -30.932  1.00  0.00     0.073 C 
HETATM    3  C   UNL     1      -5.578   1.638 -31.972  1.00  0.00     0.133 C 
HETATM    4  C   UNL     1      -6.506   1.268 -33.180  1.00  0.00     0.074 C 
HETATM    5  C   UNL     1      -7.949   1.557 -32.919  1.00  0.00     0.030 A 
HETATM    6  C   UNL     1      -8.443   1.988 -31.708  1.00  0.00     0.042 A 
HETATM    7  N   UNL     1      -9.786   2.177 -31.865  1.00  0.00    -0.279 N 
HETATM    8  H   UNL     1     -10.469   2.492 -31.183  1.00  0.00     0.189 HD
HETATM    9  N   UNL     1     -10.198   1.944 -33.130  1.00  0.00    -0.149 NA
HETATM   10  C   UNL     1      -9.077   1.583 -33.742  1.00  0.00     0.190 A 
HETATM   11  C   UNL     1      -7.642   2.269 -30.499  1.00  0.00     0.097 C 
ENDROOT
BRANCH   4  12
HETATM   12  C   UNL     1      -6.459  -0.181 -33.654  1.00  0.00    -0.048 A 
HETATM   13  C   UNL     1      -5.312  -0.746 -34.248  1.00  0.00     0.009 A 
HETATM   14  C   UNL     1      -5.310  -2.068 -34.699  1.00  0.00     0.024 A 
HETATM   15  C   UNL     1      -6.457  -2.843 -34.564  1.00  0.00     0.034 A 
HETATM   16 CL   UNL     1      -6.459  -4.470 -35.124  1.00  0.00    -0.084 Cl
HETATM   17  C   UNL     1      -7.603  -2.308 -33.981  1.00  0.00     0.024 A 
HETATM   18  C   UNL     1      -7.605  -0.985 -33.531  1.00  0.00     0.009 A 
ENDBRANCH   4  12
BRANCH   3  19
HETATM   19  C   UNL     1      -5.025   0.422 -31.256  1.00  0.00     0.266 C 
HETATM   20  O   UNL     1      -5.708  -0.421 -30.687  1.00  0.00    -0.265 OA
BRANCH  19  21
HETATM   21  O   UNL     1      -3.662   0.431 -31.293  1.00  0.00    -0.326 OA
HETATM   22  C   UNL     1      -3.067  -0.844 -31.535  1.00  0.00     0.213 C 
ENDBRANCH  19  21
ENDBRANCH   3  19
BRANCH   2  23
HETATM   23  O   UNL     1      -5.371   2.724 -29.755  1.00  0.00    -0.389 OA
HETATM   24  H   UNL     1      -5.932   2.506 -28.982  1.00  0.00     0.210 HD
ENDBRANCH   2  23
BRANCH  10  25
HETATM   25  O   UNL     1      -9.191   1.336 -35.042  1.00  0.00    -0.343 OA
HETATM   26  H   UNL     1      -8.412   0.796 -35.256  1.00  0.00     0.219 HD
ENDBRANCH  10  25
TORSDOF 5
ENDMDL
MODEL 7
REMARK VINA RESULT:      -6.3      2.772      3.709
REMARK  5 active torsions:
REMARK  status: ('A' for Active; 'I' for Inactive)
REMARK    1  A    between atoms: C_2  and  O_3 
REMARK    2  A    between atoms: C_4  and  C_5 
REMARK    3  A    between atoms: C_5  and  O_6 
REMARK    4  A    between atoms: C_9  and  C_10 
REMARK    5  A    between atoms: C_22  and  O_23 
ROOT
HETATM    1  C   UNL     1      -8.609   4.509 -30.105  1.00  0.00     0.047 C 
HETATM    2  C   UNL     1      -9.203   3.605 -31.203  1.00  0.00     0.073 C 
HETATM    3  C   UNL     1      -8.427   2.238 -31.240  1.00  0.00     0.133 C 
HETATM    4  C   UNL     1      -7.010   2.287 -31.908  1.00  0.00     0.074 C 
HETATM    5  C   UNL     1      -6.819   3.480 -32.788  1.00  0.00     0.030 A 
HETATM    6  C   UNL     1      -7.813   4.385 -33.087  1.00  0.00     0.042 A 
HETATM    7  N   UNL     1      -7.256   5.348 -33.879  1.00  0.00    -0.279 N 
HETATM    8  H   UNL     1      -7.692   6.170 -34.286  1.00  0.00     0.189 HD
HETATM    9  N   UNL     1      -5.934   5.154 -34.077  1.00  0.00    -0.149 NA
HETATM   10  C   UNL     1      -5.696   4.035 -33.405  1.00  0.00     0.190 A 
HETATM   11  C   UNL     1      -9.195   4.353 -32.570  1.00  0.00     0.097 C 
ENDROOT
BRANCH   4  12
HETATM   12  C   UNL     1      -6.619   1.084 -32.762  1.00  0.00    -0.048 A 
HETATM   13  C   UNL     1      -7.006   0.956 -34.111  1.00  0.00     0.009 A 
HETATM   14  C   UNL     1      -6.657  -0.171 -34.858  1.00  0.00     0.024 A 
HETATM   15  C   UNL     1      -5.916  -1.188 -34.264  1.00  0.00     0.034 A 
HETATM   16 CL   UNL     1      -5.490  -2.581 -35.180  1.00  0.00    -0.084 Cl
HETATM   17  C   UNL     1      -5.523  -1.086 -32.932  1.00  0.00     0.024 A 
HETATM   18  C   UNL     1      -5.873   0.042 -32.184  1.00  0.00     0.009 A 
ENDBRANCH   4  12
BRANCH   3  19
HETATM   19  C   UNL     1      -9.315   1.151 -31.815  1.00  0.00     0.266 C 
HETATM   20  O   UNL     1      -9.335  -0.010 -31.425  1.00  0.00    -0.265 OA
BRANCH  19  21
HETATM   21  O   UNL     1     -10.048   1.641 -32.856  1.00  0.00    -0.326 OA
HETATM   22  C   UNL     1     -10.941   0.698 -33.448  1.00  0.00     0.213 C 
ENDBRANCH  19  21
ENDBRANCH   3  19
BRANCH   2  23
HETATM   23  O   UNL     1     -10.570   3.403 -30.800  1.00  0.00    -0.389 OA
HETATM   24  H   UNL     1     -10.979   4.285 -30.678  1.00  0.00     0.210 HD
ENDBRANCH   2  23
BRANCH  10  25
HETATM   25  O   UNL     1      -4.430   3.634 -33.394  1.00  0.00    -0.343 OA
HETATM   26  H   UNL     1      -4.070   3.941 -34.243  1.00  0.00     0.219 HD
ENDBRANCH  10  25
TORSDOF 5
ENDMDL
MODEL 8
REMARK VINA RESULT:      -6.3      3.878      6.178
REMARK  5 active torsions:
REMARK  status: ('A' for Active; 'I' for Inactive)
REMARK    1  A    between atoms: C_2  and  O_3 
REMARK    2  A    between atoms: C_4  and  C_5 
REMARK    3  A    between atoms: C_5  and  O_6 
REMARK    4  A    between atoms: C_9  and  C_10 
REMARK    5  A    between atoms: C_22  and  O_23 
ROOT
HETATM    1  C   UNL     1      -3.396  -1.234 -31.131  1.00  0.00     0.047 C 
HETATM    2  C   UNL     1      -3.821  -0.051 -32.023  1.00  0.00     0.073 C 
HETATM    3  C   UNL     1      -5.342   0.272 -31.783  1.00  0.00     0.133 C 
HETATM    4  C   UNL     1      -6.354  -0.723 -32.449  1.00  0.00     0.074 C 
HETATM    5  C   UNL     1      -5.744  -1.527 -33.551  1.00  0.00     0.030 A 
HETATM    6  C   UNL     1      -4.466  -1.340 -34.026  1.00  0.00     0.042 A 
HETATM    7  N   UNL     1      -4.256  -2.277 -34.998  1.00  0.00    -0.279 N 
HETATM    8  H   UNL     1      -3.426  -2.436 -35.562  1.00  0.00     0.189 HD
HETATM    9  N   UNL     1      -5.311  -3.106 -35.154  1.00  0.00    -0.149 NA
HETATM   10  C   UNL     1      -6.183  -2.641 -34.269  1.00  0.00     0.190 A 
HETATM   11  C   UNL     1      -3.487  -0.361 -33.512  1.00  0.00     0.097 C 
ENDROOT
BRANCH   4  12
HETATM   12  C   UNL     1      -7.619  -0.110 -33.041  1.00  0.00    -0.048 A 
HETATM   13  C   UNL     1      -7.683   0.354 -34.371  1.00  0.00     0.009 A 
HETATM   14  C   UNL     1      -8.848   0.937 -34.875  1.00  0.00     0.024 A 
HETATM   15  C   UNL     1      -9.965   1.065 -34.057  1.00  0.00     0.034 A 
HETATM   16 CL   UNL     1     -11.398   1.788 -34.674  1.00  0.00    -0.084 Cl
HETATM   17  C   UNL     1      -9.926   0.615 -32.739  1.00  0.00     0.024 A 
HETATM   18  C   UNL     1      -8.760   0.032 -32.233  1.00  0.00     0.009 A 
ENDBRANCH   4  12
BRANCH   3  19
HETATM   19  C   UNL     1      -5.625   1.722 -32.125  1.00  0.00     0.266 C 
HETATM   20  O   UNL     1      -5.207   2.296 -33.123  1.00  0.00    -0.265 OA
BRANCH  19  21
HETATM   21  O   UNL     1      -6.367   2.303 -31.139  1.00  0.00    -0.326 OA
HETATM   22  C   UNL     1      -7.237   3.343 -31.586  1.00  0.00     0.213 C 
ENDBRANCH  19  21
ENDBRANCH   3  19
BRANCH   2  23
HETATM   23  O   UNL     1      -2.994   1.042 -31.586  1.00  0.00    -0.389 OA
HETATM   24  H   UNL     1      -2.170   0.663 -31.214  1.00  0.00     0.210 HD
ENDBRANCH   2  23
BRANCH  10  25
HETATM   25  O   UNL     1      -7.321  -3.321 -34.178  1.00  0.00    -0.343 OA
HETATM   26  H   UNL     1      -7.782  -3.137 -35.014  1.00  0.00     0.219 HD
ENDBRANCH  10  25
TORSDOF 5
ENDMDL
MODEL 9
REMARK VINA RESULT:      -6.3      3.363      5.214
REMARK  5 active torsions:
REMARK  status: ('A' for Active; 'I' for Inactive)
REMARK    1  A    between atoms: C_2  and  O_3 
REMARK    2  A    between atoms: C_4  and  C_5 
REMARK    3  A    between atoms: C_5  and  O_6 
REMARK    4  A    between atoms: C_9  and  C_10 
REMARK    5  A    between atoms: C_22  and  O_23 
ROOT
HETATM    1  C   UNL     1      -3.305   2.814 -32.530  1.00  0.00     0.047 C 
HETATM    2  C   UNL     1      -4.078   1.532 -32.163  1.00  0.00     0.073 C 
HETATM    3  C   UNL     1      -5.338   1.389 -33.093  1.00  0.00     0.133 C 
HETATM    4  C   UNL     1      -6.541   2.332 -32.745  1.00  0.00     0.074 C 
HETATM    5  C   UNL     1      -6.478   2.871 -31.352  1.00  0.00     0.030 A 
HETATM    6  C   UNL     1      -5.538   2.492 -30.420  1.00  0.00     0.042 A 
HETATM    7  N   UNL     1      -5.777   3.218 -29.289  1.00  0.00    -0.279 N 
HETATM    8  H   UNL     1      -5.280   3.201 -28.403  1.00  0.00     0.189 HD
HETATM    9  N   UNL     1      -6.794   4.094 -29.441  1.00  0.00    -0.149 NA
HETATM   10  C   UNL     1      -7.190   3.872 -30.688  1.00  0.00     0.190 A 
HETATM   11  C   UNL     1      -4.432   1.540 -30.646  1.00  0.00     0.097 C 
ENDROOT
BRANCH   4  12
HETATM   12  C   UNL     1      -7.937   1.735 -32.890  1.00  0.00    -0.048 A 
HETATM   13  C   UNL     1      -8.484   0.850 -31.938  1.00  0.00     0.009 A 
HETATM   14  C   UNL     1      -9.754   0.297 -32.114  1.00  0.00     0.024 A 
HETATM   15  C   UNL     1     -10.495   0.620 -33.245  1.00  0.00     0.034 A 
HETATM   16 CL   UNL     1     -12.058  -0.066 -33.467  1.00  0.00    -0.084 Cl
HETATM   17  C   UNL     1      -9.977   1.490 -34.201  1.00  0.00     0.024 A 
HETATM   18  C   UNL     1      -8.705   2.044 -34.026  1.00  0.00     0.009 A 
ENDBRANCH   4  12
BRANCH   3  19
HETATM   19  C   UNL     1      -5.741  -0.068 -33.202  1.00  0.00     0.266 C 
HETATM   20  O   UNL     1      -5.762  -0.857 -32.265  1.00  0.00    -0.265 OA
BRANCH  19  21
HETATM   21  O   UNL     1      -6.026  -0.383 -34.498  1.00  0.00    -0.326 OA
HETATM   22  C   UNL     1      -7.015  -1.401 -34.657  1.00  0.00     0.213 C 
ENDBRANCH  19  21
ENDBRANCH   3  19
BRANCH   2  23
HETATM   23  O   UNL     1      -3.142   0.468 -32.409  1.00  0.00    -0.389 OA
HETATM   24  H   UNL     1      -2.300   0.701 -31.965  1.00  0.00     0.210 HD
ENDBRANCH   2  23
BRANCH  10  25
HETATM   25  O   UNL     1      -8.172   4.652 -31.122  1.00  0.00    -0.343 OA
HETATM   26  H   UNL     1      -7.822   5.555 -31.038  1.00  0.00     0.219 HD
ENDBRANCH  10  25
TORSDOF 5
ENDMDL
MODEL 10
REMARK VINA RESULT:      -6.1      5.265      7.130
REMARK  5 active torsions:
REMARK  status: ('A' for Active; 'I' for Inactive)
REMARK    1  A    between atoms: C_2  and  O_3 
REMARK    2  A    between atoms: C_4  and  C_5 
REMARK    3  A    between atoms: C_5  and  O_6 
REMARK    4  A    between atoms: C_9  and  C_10 
REMARK    5  A    between atoms: C_22  and  O_23 
ROOT
HETATM    1  C   UNL     1      -3.282   8.957 -26.777  1.00  0.00     0.047 C 
HETATM    2  C   UNL     1      -2.846   9.514 -28.146  1.00  0.00     0.073 C 
HETATM    3  C   UNL     1      -3.226   8.491 -29.279  1.00  0.00     0.133 C 
HETATM    4  C   UNL     1      -2.298   7.231 -29.385  1.00  0.00     0.074 C 
HETATM    5  C   UNL     1      -0.973   7.423 -28.720  1.00  0.00     0.030 A 
HETATM    6  C   UNL     1      -0.549   8.614 -28.175  1.00  0.00     0.042 A 
HETATM    7  N   UNL     1       0.684   8.391 -27.632  1.00  0.00    -0.279 N 
HETATM    8  H   UNL     1       1.294   9.043 -27.146  1.00  0.00     0.189 HD
HETATM    9  N   UNL     1       1.075   7.104 -27.745  1.00  0.00    -0.149 NA
HETATM   10  C   UNL     1       0.061   6.544 -28.391  1.00  0.00     0.190 A 
HETATM   11  C   UNL     1      -1.329   9.866 -28.120  1.00  0.00     0.097 C 
ENDROOT
BRANCH   4  12
HETATM   12  C   UNL     1      -1.981   6.738 -30.793  1.00  0.00    -0.048 A 
HETATM   13  C   UNL     1      -0.970   7.316 -31.588  1.00  0.00     0.009 A 
HETATM   14  C   UNL     1      -0.724   6.861 -32.885  1.00  0.00     0.024 A 
HETATM   15  C   UNL     1      -1.486   5.821 -33.406  1.00  0.00     0.034 A 
HETATM   16 CL   UNL     1      -1.188   5.262 -35.006  1.00  0.00    -0.084 Cl
HETATM   17  C   UNL     1      -2.491   5.234 -32.642  1.00  0.00     0.024 A 
HETATM   18  C   UNL     1      -2.739   5.690 -31.343  1.00  0.00     0.009 A 
ENDBRANCH   4  12
BRANCH   3  19
HETATM   19  C   UNL     1      -3.394   9.216 -30.600  1.00  0.00     0.266 C 
HETATM   20  O   UNL     1      -2.639  10.085 -31.018  1.00  0.00    -0.265 OA
BRANCH  19  21
HETATM   21  O   UNL     1      -4.530   8.796 -31.227  1.00  0.00    -0.326 OA
HETATM   22  C   UNL     1      -5.617   8.503 -30.349  1.00  0.00     0.213 C 
ENDBRANCH  19  21
ENDBRANCH   3  19
BRANCH   2  23
HETATM   23  O   UNL     1      -3.597  10.733 -28.291  1.00  0.00    -0.389 OA
HETATM   24  H   UNL     1      -3.552  11.002 -29.232  1.00  0.00     0.210 HD
ENDBRANCH   2  23
BRANCH  10  25
HETATM   25  O   UNL     1       0.167   5.236 -28.597  1.00  0.00    -0.343 OA
HETATM   26  H   UNL     1      -0.016   5.123 -29.545  1.00  0.00     0.219 HD
ENDBRANCH  10  25
TORSDOF 5
ENDMDL
