MODEL 1
REMARK VINA RESULT:      -8.0      0.000      0.000
REMARK  5 active torsions:
REMARK  status: ('A' for Active; 'I' for Inactive)
REMARK    1  A    between atoms: C_3  and  N_4 
REMARK       I    between atoms: N_4  and  C_5 
REMARK       I    between atoms: C_5  and  N_6 
REMARK    2  A    between atoms: N_6  and  C_7 
REMARK    3  A    between atoms: C_7  and  C_8 
REMARK    4  A    between atoms: C_8  and  O_9 
REMARK    5  A    between atoms: O_9  and  C_10 
ROOT
HETATM    1  N   UNL     1      -2.982   3.269 -32.553  1.00  0.00    -0.307 N 
HETATM    2  C   UNL     1      -3.866   2.969 -31.561  1.00  0.00     0.320 C 
HETATM    3  N   UNL     1      -4.295   1.673 -31.540  1.00  0.00    -0.340 N 
HETATM    4  O   UNL     1      -4.254   3.725 -30.679  1.00  0.00    -0.247 OA
HETATM    5  H   UNL     1      -2.315   2.516 -32.669  1.00  0.00     0.170 HD
HETATM    6  H   UNL     1      -4.920   1.547 -30.754  1.00  0.00     0.164 HD
ENDROOT
BRANCH   3   7
HETATM    7  C   UNL     1      -4.547   0.780 -32.672  1.00  0.00     0.156 C 
BRANCH   7   8
HETATM    8  C   UNL     1      -4.191  -0.715 -32.514  1.00  0.00     0.142 C 
HETATM    9  C   UNL     1      -2.876  -0.840 -31.743  1.00  0.00     0.042 C 
BRANCH   8  10
HETATM   10  O   UNL     1      -4.046  -1.273 -33.824  1.00  0.00    -0.343 OA
BRANCH  10  11
HETATM   11  C   UNL     1      -4.613  -2.478 -34.136  1.00  0.00     0.091 A 
HETATM   12  C   UNL     1      -5.906  -2.437 -34.686  1.00  0.00     0.067 A 
HETATM   13 CL   UNL     1      -6.713  -0.934 -34.972  1.00  0.00    -0.081 Cl
HETATM   14  C   UNL     1      -6.576  -3.614 -35.030  1.00  0.00     0.026 A 
HETATM   15  C   UNL     1      -5.966  -4.847 -34.820  1.00  0.00     0.002 A 
HETATM   16  C   UNL     1      -4.690  -4.900 -34.265  1.00  0.00     0.003 A 
HETATM   17  C   UNL     1      -4.015  -3.723 -33.923  1.00  0.00     0.038 A 
ENDBRANCH  10  11
ENDBRANCH   8  10
ENDBRANCH   7   8
ENDBRANCH   3   7
BRANCH   1  18
HETATM   18  C   UNL     1      -2.520   4.555 -32.917  1.00  0.00     0.059 A 
HETATM   19  C   UNL     1      -1.526   5.294 -32.256  1.00  0.00    -0.032 A 
HETATM   20  C   UNL     1      -0.801   4.845 -31.020  1.00  0.00     0.050 C 
HETATM   21  C   UNL     1      -1.182   6.555 -32.776  1.00  0.00     0.028 A 
HETATM   22  C   UNL     1      -1.866   7.057 -33.871  1.00  0.00     0.117 A 
HETATM   23  N   UNL     1      -2.865   6.401 -34.488  1.00  0.00    -0.271 NA
HETATM   24  C   UNL     1      -3.159   5.173 -33.998  1.00  0.00     0.146 A 
ENDBRANCH   1  18
TORSDOF 5
ENDMDL
MODEL 2
REMARK VINA RESULT:      -7.9      2.188      2.711
REMARK  5 active torsions:
REMARK  status: ('A' for Active; 'I' for Inactive)
REMARK    1  A    between atoms: C_3  and  N_4 
REMARK       I    between atoms: N_4  and  C_5 
REMARK       I    between atoms: C_5  and  N_6 
REMARK    2  A    between atoms: N_6  and  C_7 
REMARK    3  A    between atoms: C_7  and  C_8 
REMARK    4  A    between atoms: C_8  and  O_9 
REMARK    5  A    between atoms: O_9  and  C_10 
ROOT
HETATM    1  N   UNL     1      -5.479   3.144 -32.439  1.00  0.00    -0.307 N 
HETATM    2  C   UNL     1      -6.306   3.619 -31.465  1.00  0.00     0.320 C 
HETATM    3  N   UNL     1      -7.234   2.728 -31.010  1.00  0.00    -0.340 N 
HETATM    4  O   UNL     1      -6.251   4.724 -30.939  1.00  0.00    -0.247 OA
HETATM    5  H   UNL     1      -5.204   2.192 -32.233  1.00  0.00     0.170 HD
HETATM    6  H   UNL     1      -7.775   3.164 -30.273  1.00  0.00     0.164 HD
ENDROOT
BRANCH   3   7
HETATM    7  C   UNL     1      -7.948   1.694 -31.762  1.00  0.00     0.156 C 
BRANCH   7   8
HETATM    8  C   UNL     1      -7.329   0.281 -31.824  1.00  0.00     0.142 C 
HETATM    9  C   UNL     1      -6.508   0.034 -30.557  1.00  0.00     0.042 C 
BRANCH   8  10
HETATM   10  O   UNL     1      -6.480   0.225 -32.976  1.00  0.00    -0.343 OA
BRANCH  10  11
HETATM   11  C   UNL     1      -6.184  -0.973 -33.566  1.00  0.00     0.091 A 
HETATM   12  C   UNL     1      -4.822  -1.314 -33.641  1.00  0.00     0.067 A 
HETATM   13 CL   UNL     1      -3.599  -0.275 -32.994  1.00  0.00    -0.081 Cl
HETATM   14  C   UNL     1      -4.414  -2.511 -34.234  1.00  0.00     0.026 A 
HETATM   15  C   UNL     1      -5.362  -3.380 -34.768  1.00  0.00     0.002 A 
HETATM   16  C   UNL     1      -6.713  -3.047 -34.710  1.00  0.00     0.003 A 
HETATM   17  C   UNL     1      -7.124  -1.850 -34.113  1.00  0.00     0.038 A 
ENDBRANCH  10  11
ENDBRANCH   8  10
ENDBRANCH   7   8
ENDBRANCH   3   7
BRANCH   1  18
HETATM   18  C   UNL     1      -4.557   3.892 -33.207  1.00  0.00     0.059 A 
HETATM   19  C   UNL     1      -3.223   4.163 -32.866  1.00  0.00    -0.032 A 
HETATM   20  C   UNL     1      -2.555   3.719 -31.596  1.00  0.00     0.050 C 
HETATM   21  C   UNL     1      -2.446   4.912 -33.768  1.00  0.00     0.028 A 
HETATM   22  C   UNL     1      -3.026   5.414 -34.922  1.00  0.00     0.117 A 
HETATM   23  N   UNL     1      -4.318   5.225 -35.247  1.00  0.00    -0.271 NA
HETATM   24  C   UNL     1      -5.041   4.471 -34.387  1.00  0.00     0.146 A 
ENDBRANCH   1  18
TORSDOF 5
ENDMDL
MODEL 3
REMARK VINA RESULT:      -7.7      2.476      8.414
REMARK  5 active torsions:
REMARK  status: ('A' for Active; 'I' for Inactive)
REMARK    1  A    between atoms: C_3  and  N_4 
REMARK       I    between atoms: N_4  and  C_5 
REMARK       I    between atoms: C_5  and  N_6 
REMARK    2  A    between atoms: N_6  and  C_7 
REMARK    3  A    between atoms: C_7  and  C_8 
REMARK    4  A    between atoms: C_8  and  O_9 
REMARK    5  A    between atoms: O_9  and  C_10 
ROOT
HETATM    1  N   UNL     1      -4.808  -0.581 -33.119  1.00  0.00    -0.307 N 
HETATM    2  C   UNL     1      -5.297  -0.128 -31.931  1.00  0.00     0.320 C 
HETATM    3  N   UNL     1      -4.775   1.059 -31.505  1.00  0.00    -0.340 N 
HETATM    4  O   UNL     1      -6.179  -0.651 -31.261  1.00  0.00    -0.247 OA
HETATM    5  H   UNL     1      -4.705   0.187 -33.772  1.00  0.00     0.170 HD
HETATM    6  H   UNL     1      -5.222   1.321 -30.635  1.00  0.00     0.164 HD
ENDROOT
BRANCH   3   7
HETATM    7  C   UNL     1      -3.411   1.564 -31.668  1.00  0.00     0.156 C 
BRANCH   7   8
HETATM    8  C   UNL     1      -3.169   3.079 -31.490  1.00  0.00     0.142 C 
HETATM    9  C   UNL     1      -4.515   3.790 -31.342  1.00  0.00     0.042 C 
BRANCH   8  10
HETATM   10  O   UNL     1      -2.489   3.555 -32.657  1.00  0.00    -0.343 OA
BRANCH  10  11
HETATM   11  C   UNL     1      -1.909   4.793 -32.669  1.00  0.00     0.091 A 
HETATM   12  C   UNL     1      -2.314   5.664 -33.696  1.00  0.00     0.067 A 
HETATM   13 CL   UNL     1      -3.502   5.188 -34.860  1.00  0.00    -0.081 Cl
HETATM   14  C   UNL     1      -1.773   6.948 -33.802  1.00  0.00     0.026 A 
HETATM   15  C   UNL     1      -0.814   7.375 -32.888  1.00  0.00     0.002 A 
HETATM   16  C   UNL     1      -0.397   6.517 -31.873  1.00  0.00     0.003 A 
HETATM   17  C   UNL     1      -0.940   5.232 -31.763  1.00  0.00     0.038 A 
ENDBRANCH  10  11
ENDBRANCH   8  10
ENDBRANCH   7   8
ENDBRANCH   3   7
BRANCH   1  18
HETATM   18  C   UNL     1      -5.035  -1.849 -33.701  1.00  0.00     0.059 A 
HETATM   19  C   UNL     1      -6.167  -2.232 -34.437  1.00  0.00    -0.032 A 
HETATM   20  C   UNL     1      -7.353  -1.352 -34.707  1.00  0.00     0.050 C 
HETATM   21  C   UNL     1      -6.208  -3.538 -34.959  1.00  0.00     0.028 A 
HETATM   22  C   UNL     1      -5.177  -4.422 -34.682  1.00  0.00     0.117 A 
HETATM   23  N   UNL     1      -4.110  -4.105 -33.928  1.00  0.00    -0.271 NA
HETATM   24  C   UNL     1      -4.067  -2.834 -33.465  1.00  0.00     0.146 A 
ENDBRANCH   1  18
TORSDOF 5
ENDMDL
MODEL 4
REMARK VINA RESULT:      -7.6      5.193      7.293
REMARK  5 active torsions:
REMARK  status: ('A' for Active; 'I' for Inactive)
REMARK    1  A    between atoms: C_3  and  N_4 
REMARK       I    between atoms: N_4  and  C_5 
REMARK       I    between atoms: C_5  and  N_6 
REMARK    2  A    between atoms: N_6  and  C_7 
REMARK    3  A    between atoms: C_7  and  C_8 
REMARK    4  A    between atoms: C_8  and  O_9 
REMARK    5  A    between atoms: O_9  and  C_10 
ROOT
HETATM    1  N   UNL     1      -9.791   2.485 -34.472  1.00  0.00    -0.307 N 
HETATM    2  C   UNL     1      -9.400   3.595 -33.786  1.00  0.00     0.320 C 
HETATM    3  N   UNL     1      -8.078   3.913 -33.905  1.00  0.00    -0.340 N 
HETATM    4  O   UNL     1     -10.123   4.341 -33.137  1.00  0.00    -0.247 OA
HETATM    5  H   UNL     1      -9.348   2.460 -35.382  1.00  0.00     0.170 HD
HETATM    6  H   UNL     1      -7.897   4.764 -33.386  1.00  0.00     0.164 HD
ENDROOT
BRANCH   3   7
HETATM    7  C   UNL     1      -6.931   3.010 -34.019  1.00  0.00     0.156 C 
BRANCH   7   8
HETATM    8  C   UNL     1      -6.836   1.827 -33.031  1.00  0.00     0.142 C 
HETATM    9  C   UNL     1      -6.745   2.369 -31.603  1.00  0.00     0.042 C 
BRANCH   8  10
HETATM   10  O   UNL     1      -5.654   1.084 -33.349  1.00  0.00    -0.343 OA
BRANCH  10  11
HETATM   11  C   UNL     1      -5.737  -0.219 -33.757  1.00  0.00     0.091 A 
HETATM   12  C   UNL     1      -4.564  -0.986 -33.643  1.00  0.00     0.067 A 
HETATM   13 CL   UNL     1      -3.109  -0.311 -32.997  1.00  0.00    -0.081 Cl
HETATM   14  C   UNL     1      -4.542  -2.325 -34.042  1.00  0.00     0.026 A 
HETATM   15  C   UNL     1      -5.691  -2.912 -34.568  1.00  0.00     0.002 A 
HETATM   16  C   UNL     1      -6.855  -2.158 -34.695  1.00  0.00     0.003 A 
HETATM   17  C   UNL     1      -6.880  -0.818 -34.293  1.00  0.00     0.038 A 
ENDBRANCH  10  11
ENDBRANCH   8  10
ENDBRANCH   7   8
ENDBRANCH   3   7
BRANCH   1  18
HETATM   18  C   UNL     1     -11.042   1.832 -34.386  1.00  0.00     0.059 A 
HETATM   19  C   UNL     1     -11.325   0.681 -33.634  1.00  0.00    -0.032 A 
HETATM   20  C   UNL     1     -10.322  -0.071 -32.806  1.00  0.00     0.050 C 
HETATM   21  C   UNL     1     -12.640   0.181 -33.655  1.00  0.00     0.028 A 
HETATM   22  C   UNL     1     -13.593   0.788 -34.458  1.00  0.00     0.117 A 
HETATM   23  N   UNL     1     -13.338   1.852 -35.238  1.00  0.00    -0.271 NA
HETATM   24  C   UNL     1     -12.078   2.344 -35.178  1.00  0.00     0.146 A 
ENDBRANCH   1  18
TORSDOF 5
ENDMDL
MODEL 5
REMARK VINA RESULT:      -7.6      1.954      2.793
REMARK  5 active torsions:
REMARK  status: ('A' for Active; 'I' for Inactive)
REMARK    1  A    between atoms: C_3  and  N_4 
REMARK       I    between atoms: N_4  and  C_5 
REMARK       I    between atoms: C_5  and  N_6 
REMARK    2  A    between atoms: N_6  and  C_7 
REMARK    3  A    between atoms: C_7  and  C_8 
REMARK    4  A    between atoms: C_8  and  O_9 
REMARK    5  A    between atoms: O_9  and  C_10 
ROOT
HETATM    1  N   UNL     1      -4.603   3.267 -31.992  1.00  0.00    -0.307 N 
HETATM    2  C   UNL     1      -5.456   3.588 -30.979  1.00  0.00     0.320 C 
HETATM    3  N   UNL     1      -6.529   2.756 -30.842  1.00  0.00    -0.340 N 
HETATM    4  O   UNL     1      -5.316   4.498 -30.171  1.00  0.00    -0.247 OA
HETATM    5  H   UNL     1      -4.471   2.264 -32.037  1.00  0.00     0.170 HD
HETATM    6  H   UNL     1      -7.081   3.060 -30.049  1.00  0.00     0.164 HD
ENDROOT
BRANCH   3   7
HETATM    7  C   UNL     1      -7.289   2.070 -31.888  1.00  0.00     0.156 C 
BRANCH   7   8
HETATM    8  C   UNL     1      -7.095   0.546 -32.049  1.00  0.00     0.142 C 
HETATM    9  C   UNL     1      -6.473  -0.020 -30.770  1.00  0.00     0.042 C 
BRANCH   8  10
HETATM   10  O   UNL     1      -6.216   0.330 -33.158  1.00  0.00    -0.343 OA
BRANCH  10  11
HETATM   11  C   UNL     1      -6.030  -0.926 -33.666  1.00  0.00     0.091 A 
HETATM   12  C   UNL     1      -4.709  -1.405 -33.682  1.00  0.00     0.067 A 
HETATM   13 CL   UNL     1      -3.401  -0.455 -33.066  1.00  0.00    -0.081 Cl
HETATM   14  C   UNL     1      -4.411  -2.673 -34.189  1.00  0.00     0.026 A 
HETATM   15  C   UNL     1      -5.431  -3.475 -34.695  1.00  0.00     0.002 A 
HETATM   16  C   UNL     1      -6.743  -3.006 -34.694  1.00  0.00     0.003 A 
HETATM   17  C   UNL     1      -7.043  -1.738 -34.184  1.00  0.00     0.038 A 
ENDBRANCH  10  11
ENDBRANCH   8  10
ENDBRANCH   7   8
ENDBRANCH   3   7
BRANCH   1  18
HETATM   18  C   UNL     1      -3.524   4.045 -32.470  1.00  0.00     0.059 A 
HETATM   19  C   UNL     1      -3.506   4.797 -33.656  1.00  0.00    -0.032 A 
HETATM   20  C   UNL     1      -4.638   4.876 -34.639  1.00  0.00     0.050 C 
HETATM   21  C   UNL     1      -2.343   5.528 -33.960  1.00  0.00     0.028 A 
HETATM   22  C   UNL     1      -1.237   5.437 -33.130  1.00  0.00     0.117 A 
HETATM   23  N   UNL     1      -1.201   4.677 -32.022  1.00  0.00    -0.271 NA
HETATM   24  C   UNL     1      -2.340   4.010 -31.722  1.00  0.00     0.146 A 
ENDBRANCH   1  18
TORSDOF 5
ENDMDL
MODEL 6
REMARK VINA RESULT:      -7.6      1.896      2.591
REMARK  5 active torsions:
REMARK  status: ('A' for Active; 'I' for Inactive)
REMARK    1  A    between atoms: C_3  and  N_4 
REMARK       I    between atoms: N_4  and  C_5 
REMARK       I    between atoms: C_5  and  N_6 
REMARK    2  A    between atoms: N_6  and  C_7 
REMARK    3  A    between atoms: C_7  and  C_8 
REMARK    4  A    between atoms: C_8  and  O_9 
REMARK    5  A    between atoms: O_9  and  C_10 
ROOT
HETATM    1  N   UNL     1      -4.229   3.107 -32.726  1.00  0.00    -0.307 N 
HETATM    2  C   UNL     1      -5.539   3.442 -32.554  1.00  0.00     0.320 C 
HETATM    3  N   UNL     1      -6.428   2.429 -32.769  1.00  0.00    -0.340 N 
HETATM    4  O   UNL     1      -5.969   4.526 -32.180  1.00  0.00    -0.247 OA
HETATM    5  H   UNL     1      -4.048   2.188 -32.340  1.00  0.00     0.170 HD
HETATM    6  H   UNL     1      -7.364   2.771 -32.588  1.00  0.00     0.164 HD
ENDROOT
BRANCH   3   7
HETATM    7  C   UNL     1      -6.351   1.343 -33.748  1.00  0.00     0.156 C 
BRANCH   7   8
HETATM    8  C   UNL     1      -6.262  -0.106 -33.222  1.00  0.00     0.142 C 
HETATM    9  C   UNL     1      -6.188  -0.083 -31.694  1.00  0.00     0.042 C 
BRANCH   8  10
HETATM   10  O   UNL     1      -5.075  -0.696 -33.762  1.00  0.00    -0.343 OA
BRANCH  10  11
HETATM   11  C   UNL     1      -5.005  -2.044 -33.984  1.00  0.00     0.091 A 
HETATM   12  C   UNL     1      -4.014  -2.745 -33.274  1.00  0.00     0.067 A 
HETATM   13 CL   UNL     1      -2.962  -1.935 -32.164  1.00  0.00    -0.081 Cl
HETATM   14  C   UNL     1      -3.854  -4.123 -33.437  1.00  0.00     0.026 A 
HETATM   15  C   UNL     1      -4.678  -4.818 -34.318  1.00  0.00     0.002 A 
HETATM   16  C   UNL     1      -5.656  -4.133 -35.035  1.00  0.00     0.003 A 
HETATM   17  C   UNL     1      -5.820  -2.753 -34.871  1.00  0.00     0.038 A 
ENDBRANCH  10  11
ENDBRANCH   8  10
ENDBRANCH   7   8
ENDBRANCH   3   7
BRANCH   1  18
HETATM   18  C   UNL     1      -3.124   3.988 -32.744  1.00  0.00     0.059 A 
HETATM   19  C   UNL     1      -2.794   4.881 -33.776  1.00  0.00    -0.032 A 
HETATM   20  C   UNL     1      -3.559   5.029 -35.060  1.00  0.00     0.050 C 
HETATM   21  C   UNL     1      -1.661   5.698 -33.610  1.00  0.00     0.028 A 
HETATM   22  C   UNL     1      -0.872   5.557 -32.479  1.00  0.00     0.117 A 
HETATM   23  N   UNL     1      -1.125   4.667 -31.503  1.00  0.00    -0.271 NA
HETATM   24  C   UNL     1      -2.240   3.915 -31.660  1.00  0.00     0.146 A 
ENDBRANCH   1  18
TORSDOF 5
ENDMDL
MODEL 7
REMARK VINA RESULT:      -7.5      4.028      5.837
REMARK  5 active torsions:
REMARK  status: ('A' for Active; 'I' for Inactive)
REMARK    1  A    between atoms: C_3  and  N_4 
REMARK       I    between atoms: N_4  and  C_5 
REMARK       I    between atoms: C_5  and  N_6 
REMARK    2  A    between atoms: N_6  and  C_7 
REMARK    3  A    between atoms: C_7  and  C_8 
REMARK    4  A    between atoms: C_8  and  O_9 
REMARK    5  A    between atoms: O_9  and  C_10 
ROOT
HETATM    1  N   UNL     1      -8.181   2.177 -33.370  1.00  0.00    -0.307 N 
HETATM    2  C   UNL     1      -7.654   2.215 -32.114  1.00  0.00     0.320 C 
HETATM    3  N   UNL     1      -6.294   2.120 -32.055  1.00  0.00    -0.340 N 
HETATM    4  O   UNL     1      -8.273   2.379 -31.070  1.00  0.00    -0.247 OA
HETATM    5  H   UNL     1      -7.611   2.719 -34.007  1.00  0.00     0.170 HD
HETATM    6  H   UNL     1      -6.002   2.188 -31.087  1.00  0.00     0.164 HD
ENDROOT
BRANCH   3   7
HETATM    7  C   UNL     1      -5.397   1.341 -32.911  1.00  0.00     0.156 C 
BRANCH   7   8
HETATM    8  C   UNL     1      -5.227  -0.163 -32.608  1.00  0.00     0.142 C 
HETATM    9  C   UNL     1      -4.271  -0.333 -31.425  1.00  0.00     0.042 C 
BRANCH   8  10
HETATM   10  O   UNL     1      -4.678  -0.787 -33.774  1.00  0.00    -0.343 OA
BRANCH  10  11
HETATM   11  C   UNL     1      -4.996  -2.079 -34.089  1.00  0.00     0.091 A 
HETATM   12  C   UNL     1      -6.254  -2.287 -34.681  1.00  0.00     0.067 A 
HETATM   13 CL   UNL     1      -7.321  -0.966 -35.010  1.00  0.00    -0.081 Cl
HETATM   14  C   UNL     1      -6.678  -3.572 -35.031  1.00  0.00     0.026 A 
HETATM   15  C   UNL     1      -5.852  -4.666 -34.786  1.00  0.00     0.002 A 
HETATM   16  C   UNL     1      -4.608  -4.473 -34.190  1.00  0.00     0.003 A 
HETATM   17  C   UNL     1      -4.181  -3.187 -33.841  1.00  0.00     0.038 A 
ENDBRANCH  10  11
ENDBRANCH   8  10
ENDBRANCH   7   8
ENDBRANCH   3   7
BRANCH   1  18
HETATM   18  C   UNL     1      -9.550   2.076 -33.713  1.00  0.00     0.059 A 
HETATM   19  C   UNL     1     -10.400   1.000 -33.414  1.00  0.00    -0.032 A 
HETATM   20  C   UNL     1      -9.982  -0.251 -32.696  1.00  0.00     0.050 C 
HETATM   21  C   UNL     1     -11.744   1.084 -33.821  1.00  0.00     0.028 A 
HETATM   22  C   UNL     1     -12.173   2.180 -34.553  1.00  0.00     0.117 A 
HETATM   23  N   UNL     1     -11.368   3.197 -34.908  1.00  0.00    -0.271 NA
HETATM   24  C   UNL     1     -10.087   3.119 -34.477  1.00  0.00     0.146 A 
ENDBRANCH   1  18
TORSDOF 5
ENDMDL
MODEL 8
REMARK VINA RESULT:      -7.5      2.010      2.680
REMARK  5 active torsions:
REMARK  status: ('A' for Active; 'I' for Inactive)
REMARK    1  A    between atoms: C_3  and  N_4 
REMARK       I    between atoms: N_4  and  C_5 
REMARK       I    between atoms: C_5  and  N_6 
REMARK    2  A    between atoms: N_6  and  C_7 
REMARK    3  A    between atoms: C_7  and  C_8 
REMARK    4  A    between atoms: C_8  and  O_9 
REMARK    5  A    between atoms: O_9  and  C_10 
ROOT
HETATM    1  N   UNL     1      -3.875   4.312 -32.957  1.00  0.00    -0.307 N 
HETATM    2  C   UNL     1      -3.632   3.203 -32.205  1.00  0.00     0.320 C 
HETATM    3  N   UNL     1      -4.572   2.219 -32.304  1.00  0.00    -0.340 N 
HETATM    4  O   UNL     1      -2.643   2.997 -31.512  1.00  0.00    -0.247 OA
HETATM    5  H   UNL     1      -4.233   4.048 -33.867  1.00  0.00     0.170 HD
HETATM    6  H   UNL     1      -4.285   1.432 -31.734  1.00  0.00     0.164 HD
ENDROOT
BRANCH   3   7
HETATM    7  C   UNL     1      -6.020   2.358 -32.471  1.00  0.00     0.156 C 
BRANCH   7   8
HETATM    8  C   UNL     1      -6.861   1.072 -32.629  1.00  0.00     0.142 C 
HETATM    9  C   UNL     1      -8.035   1.115 -31.650  1.00  0.00     0.042 C 
BRANCH   8  10
HETATM   10  O   UNL     1      -6.015  -0.045 -32.331  1.00  0.00    -0.343 OA
BRANCH  10  11
HETATM   11  C   UNL     1      -5.922  -1.099 -33.197  1.00  0.00     0.091 A 
HETATM   12  C   UNL     1      -4.635  -1.626 -33.404  1.00  0.00     0.067 A 
HETATM   13 CL   UNL     1      -3.257  -0.980 -32.582  1.00  0.00    -0.081 Cl
HETATM   14  C   UNL     1      -4.431  -2.698 -34.277  1.00  0.00     0.026 A 
HETATM   15  C   UNL     1      -5.511  -3.251 -34.961  1.00  0.00     0.002 A 
HETATM   16  C   UNL     1      -6.789  -2.731 -34.771  1.00  0.00     0.003 A 
HETATM   17  C   UNL     1      -6.995  -1.659 -33.895  1.00  0.00     0.038 A 
ENDBRANCH  10  11
ENDBRANCH   8  10
ENDBRANCH   7   8
ENDBRANCH   3   7
BRANCH   1  18
HETATM   18  C   UNL     1      -3.173   5.539 -32.911  1.00  0.00     0.059 A 
HETATM   19  C   UNL     1      -2.150   5.940 -33.785  1.00  0.00    -0.032 A 
HETATM   20  C   UNL     1      -1.607   5.108 -34.911  1.00  0.00     0.050 C 
HETATM   21  C   UNL     1      -1.577   7.211 -33.596  1.00  0.00     0.028 A 
HETATM   22  C   UNL     1      -1.984   7.997 -32.529  1.00  0.00     0.117 A 
HETATM   23  N   UNL     1      -2.916   7.615 -31.639  1.00  0.00    -0.271 NA
HETATM   24  C   UNL     1      -3.484   6.405 -31.856  1.00  0.00     0.146 A 
ENDBRANCH   1  18
TORSDOF 5
ENDMDL
MODEL 9
REMARK VINA RESULT:      -7.3      2.839      8.299
REMARK  5 active torsions:
REMARK  status: ('A' for Active; 'I' for Inactive)
REMARK    1  A    between atoms: C_3  and  N_4 
REMARK       I    between atoms: N_4  and  C_5 
REMARK       I    between atoms: C_5  and  N_6 
REMARK    2  A    between atoms: N_6  and  C_7 
REMARK    3  A    between atoms: C_7  and  C_8 
REMARK    4  A    between atoms: C_8  and  O_9 
REMARK    5  A    between atoms: O_9  and  C_10 
ROOT
HETATM    1  N   UNL     1      -4.618  -0.373 -33.037  1.00  0.00    -0.307 N 
HETATM    2  C   UNL     1      -5.458   0.217 -32.141  1.00  0.00     0.320 C 
HETATM    3  N   UNL     1      -5.523   1.578 -32.220  1.00  0.00    -0.340 N 
HETATM    4  O   UNL     1      -6.180  -0.356 -31.334  1.00  0.00    -0.247 OA
HETATM    5  H   UNL     1      -4.698   0.076 -33.941  1.00  0.00     0.170 HD
HETATM    6  H   UNL     1      -6.192   1.915 -31.537  1.00  0.00     0.164 HD
ENDROOT
BRANCH   3   7
HETATM    7  C   UNL     1      -4.454   2.524 -32.546  1.00  0.00     0.156 C 
BRANCH   7   8
HETATM    8  C   UNL     1      -3.683   3.181 -31.380  1.00  0.00     0.142 C 
HETATM    9  C   UNL     1      -4.324   4.530 -31.050  1.00  0.00     0.042 C 
BRANCH   8  10
HETATM   10  O   UNL     1      -2.329   3.373 -31.803  1.00  0.00    -0.343 OA
BRANCH  10  11
HETATM   11  C   UNL     1      -1.963   4.503 -32.481  1.00  0.00     0.091 A 
HETATM   12  C   UNL     1      -1.068   5.365 -31.824  1.00  0.00     0.067 A 
HETATM   13 CL   UNL     1      -0.451   4.990 -30.252  1.00  0.00    -0.081 Cl
HETATM   14  C   UNL     1      -0.640   6.550 -32.428  1.00  0.00     0.026 A 
HETATM   15  C   UNL     1      -1.110   6.893 -33.693  1.00  0.00     0.002 A 
HETATM   16  C   UNL     1      -2.006   6.053 -34.349  1.00  0.00     0.003 A 
HETATM   17  C   UNL     1      -2.433   4.863 -33.747  1.00  0.00     0.038 A 
ENDBRANCH  10  11
ENDBRANCH   8  10
ENDBRANCH   7   8
ENDBRANCH   3   7
BRANCH   1  18
HETATM   18  C   UNL     1      -4.224  -1.731 -33.063  1.00  0.00     0.059 A 
HETATM   19  C   UNL     1      -4.676  -2.706 -33.965  1.00  0.00    -0.032 A 
HETATM   20  C   UNL     1      -5.689  -2.470 -35.049  1.00  0.00     0.050 C 
HETATM   21  C   UNL     1      -4.156  -4.009 -33.850  1.00  0.00     0.028 A 
HETATM   22  C   UNL     1      -3.275  -4.308 -32.824  1.00  0.00     0.117 A 
HETATM   23  N   UNL     1      -2.871  -3.412 -31.906  1.00  0.00    -0.271 NA
HETATM   24  C   UNL     1      -3.351  -2.155 -32.053  1.00  0.00     0.146 A 
ENDBRANCH   1  18
TORSDOF 5
ENDMDL
MODEL 10
REMARK VINA RESULT:      -7.2      2.980      7.502
REMARK  5 active torsions:
REMARK  status: ('A' for Active; 'I' for Inactive)
REMARK    1  A    between atoms: C_3  and  N_4 
REMARK       I    between atoms: N_4  and  C_5 
REMARK       I    between atoms: C_5  and  N_6 
REMARK    2  A    between atoms: N_6  and  C_7 
REMARK    3  A    between atoms: C_7  and  C_8 
REMARK    4  A    between atoms: C_8  and  O_9 
REMARK    5  A    between atoms: O_9  and  C_10 
ROOT
HETATM    1  N   UNL     1      -6.565   1.092 -32.604  1.00  0.00    -0.307 N 
HETATM    2  C   UNL     1      -7.621   1.200 -31.749  1.00  0.00     0.320 C 
HETATM    3  N   UNL     1      -7.774   2.426 -31.171  1.00  0.00    -0.340 N 
HETATM    4  O   UNL     1      -8.452   0.333 -31.507  1.00  0.00    -0.247 OA
HETATM    5  H   UNL     1      -6.484   1.929 -33.169  1.00  0.00     0.170 HD
HETATM    6  H   UNL     1      -8.597   2.411 -30.581  1.00  0.00     0.164 HD
ENDROOT
BRANCH   3   7
HETATM    7  C   UNL     1      -6.736   3.369 -30.748  1.00  0.00     0.156 C 
BRANCH   7   8
HETATM    8  C   UNL     1      -6.242   4.414 -31.771  1.00  0.00     0.142 C 
HETATM    9  C   UNL     1      -7.439   5.204 -32.303  1.00  0.00     0.042 C 
BRANCH   8  10
HETATM   10  O   UNL     1      -5.603   3.711 -32.842  1.00  0.00    -0.343 OA
BRANCH  10  11
HETATM   11  C   UNL     1      -4.476   4.214 -33.432  1.00  0.00     0.091 A 
HETATM   12  C   UNL     1      -3.251   3.882 -32.826  1.00  0.00     0.067 A 
HETATM   13 CL   UNL     1      -3.188   2.870 -31.424  1.00  0.00    -0.081 Cl
HETATM   14  C   UNL     1      -2.043   4.354 -33.345  1.00  0.00     0.026 A 
HETATM   15  C   UNL     1      -2.044   5.171 -34.473  1.00  0.00     0.002 A 
HETATM   16  C   UNL     1      -3.251   5.515 -35.075  1.00  0.00     0.003 A 
HETATM   17  C   UNL     1      -4.463   5.041 -34.558  1.00  0.00     0.038 A 
ENDBRANCH  10  11
ENDBRANCH   8  10
ENDBRANCH   7   8
ENDBRANCH   3   7
BRANCH   1  18
HETATM   18  C   UNL     1      -6.071  -0.093 -33.196  1.00  0.00     0.059 A 
HETATM   19  C   UNL     1      -6.550  -0.694 -34.370  1.00  0.00    -0.032 A 
HETATM   20  C   UNL     1      -7.702  -0.183 -35.187  1.00  0.00     0.050 C 
HETATM   21  C   UNL     1      -5.918  -1.867 -34.821  1.00  0.00     0.028 A 
HETATM   22  C   UNL     1      -4.897  -2.429 -34.071  1.00  0.00     0.117 A 
HETATM   23  N   UNL     1      -4.457  -1.912 -32.910  1.00  0.00    -0.271 NA
HETATM   24  C   UNL     1      -5.051  -0.763 -32.510  1.00  0.00     0.146 A 
ENDBRANCH   1  18
TORSDOF 5
ENDMDL
