MODEL 1
REMARK VINA RESULT:      -8.9      0.000      0.000
REMARK  8 active torsions:
REMARK  status: ('A' for Active; 'I' for Inactive)
REMARK    1  A    between atoms: C_4  and  C_5 
REMARK    2  A    between atoms: C_5  and  C_6 
REMARK    3  A    between atoms: C_10  and  S_11 
REMARK    4  A    between atoms: S_11  and  C_12 
REMARK    5  A    between atoms: C_12  and  C_13 
REMARK       I    between atoms: C_13  and  N_14 
REMARK    6  A    between atoms: N_14  and  N_15 
REMARK       I    between atoms: N_15  and  C_16 
REMARK       I    between atoms: C_16  and  N_17 
REMARK    7  A    between atoms: N_17  and  C_18 
REMARK    8  A    between atoms: C_18  and  C_19 
ROOT
HETATM    1  C   UNL     1      -7.041   2.733 -30.083  1.00  0.00     0.245 C 
HETATM    2  N   UNL     1      -6.469   1.502 -29.826  1.00  0.00    -0.265 N 
HETATM    3  O   UNL     1      -7.995   2.875 -30.853  1.00  0.00    -0.271 OA
HETATM    4  H   UNL     1      -5.489   1.455 -29.532  1.00  0.00     0.190 HD
ENDROOT
BRANCH   1   5
HETATM    5  C   UNL     1      -6.382   3.914 -29.409  1.00  0.00     0.187 C 
BRANCH   5   6
HETATM    6  S   UNL     1      -5.869   5.130 -30.642  1.00  0.00    -0.081 SA
BRANCH   6   7
HETATM    7  C   UNL     1      -4.278   4.662 -31.122  1.00  0.00     0.185 A 
HETATM    8  N   UNL     1      -3.750   3.410 -31.019  1.00  0.00    -0.254 N 
HETATM    9  N   UNL     1      -2.451   3.397 -31.374  1.00  0.00    -0.157 NA
HETATM   10  H   UNL     1      -4.183   2.552 -30.687  1.00  0.00     0.191 HD
HETATM   11  C   UNL     1      -2.235   4.696 -31.633  1.00  0.00     0.153 A 
HETATM   12  N   UNL     1      -3.353   5.492 -31.542  1.00  0.00    -0.206 NA
BRANCH  11  13
HETATM   13  C   UNL     1      -0.893   5.236 -31.980  1.00  0.00     0.120 C 
BRANCH  13  14
HETATM   14  C   UNL     1      -0.350   5.841 -30.705  1.00  0.00    -0.051 A 
HETATM   15  C   UNL     1      -0.432   7.223 -30.473  1.00  0.00     0.007 A 
HETATM   16  C   UNL     1       0.100   7.779 -29.309  1.00  0.00     0.001 A 
HETATM   17  C   UNL     1       0.719   6.962 -28.364  1.00  0.00     0.000 A 
HETATM   18  C   UNL     1       0.809   5.590 -28.583  1.00  0.00     0.001 A 
HETATM   19  C   UNL     1       0.280   5.031 -29.747  1.00  0.00     0.007 A 
ENDBRANCH  13  14
ENDBRANCH  11  13
ENDBRANCH   6   7
ENDBRANCH   5   6
ENDBRANCH   1   5
BRANCH   2  20
HETATM   20  N   UNL     1      -6.852   0.449 -30.699  1.00  0.00    -0.249 N 
HETATM   21  C   UNL     1      -6.147   0.369 -31.885  1.00  0.00     0.335 C 
HETATM   22  N   UNL     1      -6.759  -0.445 -32.794  1.00  0.00    -0.338 N 
HETATM   23  O   UNL     1      -5.105   0.987 -32.080  1.00  0.00    -0.246 OA
HETATM   24  H   UNL     1      -7.395  -1.144 -32.440  1.00  0.00     0.164 HD
HETATM   25  H   UNL     1      -7.861   0.322 -30.770  1.00  0.00     0.192 HD
BRANCH  22  26
HETATM   26  C   UNL     1      -6.162  -0.699 -34.085  1.00  0.00     0.162 C 
BRANCH  26  27
HETATM   27  C   UNL     1      -5.851  -2.164 -34.239  1.00  0.00    -0.040 A 
HETATM   28  C   UNL     1      -4.553  -2.634 -33.991  1.00  0.00     0.009 A 
HETATM   29  C   UNL     1      -4.245  -3.986 -34.154  1.00  0.00     0.001 A 
HETATM   30  C   UNL     1      -5.230  -4.879 -34.571  1.00  0.00     0.000 A 
HETATM   31  C   UNL     1      -6.521  -4.422 -34.831  1.00  0.00     0.001 A 
HETATM   32  C   UNL     1      -6.831  -3.069 -34.668  1.00  0.00     0.009 A 
ENDBRANCH  26  27
ENDBRANCH  22  26
ENDBRANCH   2  20
TORSDOF 8
ENDMDL
MODEL 2
REMARK VINA RESULT:      -8.7      3.368      6.860
REMARK  8 active torsions:
REMARK  status: ('A' for Active; 'I' for Inactive)
REMARK    1  A    between atoms: C_4  and  C_5 
REMARK    2  A    between atoms: C_5  and  C_6 
REMARK    3  A    between atoms: C_10  and  S_11 
REMARK    4  A    between atoms: S_11  and  C_12 
REMARK    5  A    between atoms: C_12  and  C_13 
REMARK       I    between atoms: C_13  and  N_14 
REMARK    6  A    between atoms: N_14  and  N_15 
REMARK       I    between atoms: N_15  and  C_16 
REMARK       I    between atoms: C_16  and  N_17 
REMARK    7  A    between atoms: N_17  and  C_18 
REMARK    8  A    between atoms: C_18  and  C_19 
ROOT
HETATM    1  C   UNL     1      -4.118   5.193 -34.135  1.00  0.00     0.245 C 
HETATM    2  N   UNL     1      -4.985   5.697 -33.185  1.00  0.00    -0.265 N 
HETATM    3  O   UNL     1      -4.475   4.924 -35.285  1.00  0.00    -0.271 OA
HETATM    4  H   UNL     1      -4.792   5.536 -32.192  1.00  0.00     0.190 HD
ENDROOT
BRANCH   1   5
HETATM    5  C   UNL     1      -2.709   4.925 -33.658  1.00  0.00     0.187 C 
BRANCH   5   6
HETATM    6  S   UNL     1      -2.687   4.706 -31.866  1.00  0.00    -0.081 SA
BRANCH   6   7
HETATM    7  C   UNL     1      -3.710   3.351 -31.550  1.00  0.00     0.185 A 
HETATM    8  N   UNL     1      -4.560   3.223 -30.493  1.00  0.00    -0.254 N 
HETATM    9  N   UNL     1      -5.132   2.005 -30.471  1.00  0.00    -0.157 NA
HETATM   10  H   UNL     1      -4.766   3.883 -29.747  1.00  0.00     0.191 HD
HETATM   11  C   UNL     1      -4.540   1.416 -31.521  1.00  0.00     0.153 A 
HETATM   12  N   UNL     1      -3.702   2.236 -32.241  1.00  0.00    -0.206 NA
BRANCH  11  13
HETATM   13  C   UNL     1      -4.762  -0.012 -31.876  1.00  0.00     0.120 C 
BRANCH  13  14
HETATM   14  C   UNL     1      -5.647   0.001 -33.101  1.00  0.00    -0.051 A 
HETATM   15  C   UNL     1      -6.078   1.213 -33.665  1.00  0.00     0.007 A 
HETATM   16  C   UNL     1      -6.921   1.217 -34.778  1.00  0.00     0.001 A 
HETATM   17  C   UNL     1      -7.343   0.012 -35.339  1.00  0.00     0.000 A 
HETATM   18  C   UNL     1      -6.925  -1.196 -34.789  1.00  0.00     0.001 A 
HETATM   19  C   UNL     1      -6.083  -1.204 -33.675  1.00  0.00     0.007 A 
ENDBRANCH  13  14
ENDBRANCH  11  13
ENDBRANCH   6   7
ENDBRANCH   5   6
ENDBRANCH   1   5
BRANCH   2  20
HETATM   20  N   UNL     1      -6.365   5.633 -33.514  1.00  0.00    -0.249 N 
HETATM   21  C   UNL     1      -7.189   5.116 -32.533  1.00  0.00     0.335 C 
HETATM   22  N   UNL     1      -8.426   4.795 -33.016  1.00  0.00    -0.338 N 
HETATM   23  O   UNL     1      -6.821   4.953 -31.375  1.00  0.00    -0.246 OA
HETATM   24  H   UNL     1      -8.733   5.260 -33.857  1.00  0.00     0.164 HD
HETATM   25  H   UNL     1      -6.546   5.313 -34.464  1.00  0.00     0.192 HD
BRANCH  22  26
HETATM   26  C   UNL     1      -9.454   4.279 -32.143  1.00  0.00     0.162 C 
BRANCH  26  27
HETATM   27  C   UNL     1      -9.599   2.792 -32.326  1.00  0.00    -0.040 A 
HETATM   28  C   UNL     1      -8.919   1.912 -31.472  1.00  0.00     0.009 A 
HETATM   29  C   UNL     1      -9.025   0.531 -31.645  1.00  0.00     0.001 A 
HETATM   30  C   UNL     1      -9.806   0.017 -32.678  1.00  0.00     0.000 A 
HETATM   31  C   UNL     1     -10.479   0.882 -33.540  1.00  0.00     0.001 A 
HETATM   32  C   UNL     1     -10.374   2.265 -33.368  1.00  0.00     0.009 A 
ENDBRANCH  26  27
ENDBRANCH  22  26
ENDBRANCH   2  20
TORSDOF 8
ENDMDL
MODEL 3
REMARK VINA RESULT:      -8.6      2.054      2.779
REMARK  8 active torsions:
REMARK  status: ('A' for Active; 'I' for Inactive)
REMARK    1  A    between atoms: C_4  and  C_5 
REMARK    2  A    between atoms: C_5  and  C_6 
REMARK    3  A    between atoms: C_10  and  S_11 
REMARK    4  A    between atoms: S_11  and  C_12 
REMARK    5  A    between atoms: C_12  and  C_13 
REMARK       I    between atoms: C_13  and  N_14 
REMARK    6  A    between atoms: N_14  and  N_15 
REMARK       I    between atoms: N_15  and  C_16 
REMARK       I    between atoms: C_16  and  N_17 
REMARK    7  A    between atoms: N_17  and  C_18 
REMARK    8  A    between atoms: C_18  and  C_19 
ROOT
HETATM    1  C   UNL     1      -7.707   2.789 -30.917  1.00  0.00     0.245 C 
HETATM    2  N   UNL     1      -7.060   1.604 -30.626  1.00  0.00    -0.265 N 
HETATM    3  O   UNL     1      -8.716   2.838 -31.626  1.00  0.00    -0.271 OA
HETATM    4  H   UNL     1      -6.061   1.620 -30.399  1.00  0.00     0.190 HD
ENDROOT
BRANCH   1   5
HETATM    5  C   UNL     1      -7.063   4.040 -30.365  1.00  0.00     0.187 C 
BRANCH   5   6
HETATM    6  S   UNL     1      -7.320   5.425 -31.494  1.00  0.00    -0.081 SA
BRANCH   6   7
HETATM    7  C   UNL     1      -6.400   5.049 -32.907  1.00  0.00     0.185 A 
HETATM    8  N   UNL     1      -6.536   3.930 -33.673  1.00  0.00    -0.254 N 
HETATM    9  N   UNL     1      -5.598   3.881 -34.637  1.00  0.00    -0.157 NA
HETATM   10  H   UNL     1      -7.195   3.161 -33.580  1.00  0.00     0.191 HD
HETATM   11  C   UNL     1      -4.882   4.983 -34.365  1.00  0.00     0.153 A 
HETATM   12  N   UNL     1      -5.384   5.754 -33.342  1.00  0.00    -0.206 NA
BRANCH  11  13
HETATM   13  C   UNL     1      -3.640   5.339 -35.102  1.00  0.00     0.120 C 
BRANCH  13  14
HETATM   14  C   UNL     1      -2.620   5.695 -34.043  1.00  0.00    -0.051 A 
HETATM   15  C   UNL     1      -2.152   7.012 -33.909  1.00  0.00     0.007 A 
HETATM   16  C   UNL     1      -1.188   7.327 -32.951  1.00  0.00     0.001 A 
HETATM   17  C   UNL     1      -0.679   6.332 -32.117  1.00  0.00     0.000 A 
HETATM   18  C   UNL     1      -1.134   5.021 -32.241  1.00  0.00     0.001 A 
HETATM   19  C   UNL     1      -2.097   4.702 -33.199  1.00  0.00     0.007 A 
ENDBRANCH  13  14
ENDBRANCH  11  13
ENDBRANCH   6   7
ENDBRANCH   5   6
ENDBRANCH   1   5
BRANCH   2  20
HETATM   20  N   UNL     1      -7.447   0.481 -31.404  1.00  0.00    -0.249 N 
HETATM   21  C   UNL     1      -6.763   0.311 -32.592  1.00  0.00     0.335 C 
HETATM   22  N   UNL     1      -7.383  -0.580 -33.421  1.00  0.00    -0.338 N 
HETATM   23  O   UNL     1      -5.730   0.918 -32.855  1.00  0.00    -0.246 OA
HETATM   24  H   UNL     1      -8.006  -1.252 -33.000  1.00  0.00     0.164 HD
HETATM   25  H   UNL     1      -8.456   0.340 -31.446  1.00  0.00     0.192 HD
BRANCH  22  26
HETATM   26  C   UNL     1      -6.806  -0.933 -34.697  1.00  0.00     0.162 C 
BRANCH  26  27
HETATM   27  C   UNL     1      -6.125  -2.273 -34.611  1.00  0.00    -0.040 A 
HETATM   28  C   UNL     1      -6.844  -3.443 -34.894  1.00  0.00     0.009 A 
HETATM   29  C   UNL     1      -6.232  -4.693 -34.795  1.00  0.00     0.001 A 
HETATM   30  C   UNL     1      -4.898  -4.787 -34.406  1.00  0.00     0.000 A 
HETATM   31  C   UNL     1      -4.175  -3.631 -34.112  1.00  0.00     0.001 A 
HETATM   32  C   UNL     1      -4.786  -2.378 -34.211  1.00  0.00     0.009 A 
ENDBRANCH  26  27
ENDBRANCH  22  26
ENDBRANCH   2  20
TORSDOF 8
ENDMDL
MODEL 4
REMARK VINA RESULT:      -8.6      1.730      2.267
REMARK  8 active torsions:
REMARK  status: ('A' for Active; 'I' for Inactive)
REMARK    1  A    between atoms: C_4  and  C_5 
REMARK    2  A    between atoms: C_5  and  C_6 
REMARK    3  A    between atoms: C_10  and  S_11 
REMARK    4  A    between atoms: S_11  and  C_12 
REMARK    5  A    between atoms: C_12  and  C_13 
REMARK       I    between atoms: C_13  and  N_14 
REMARK    6  A    between atoms: N_14  and  N_15 
REMARK       I    between atoms: N_15  and  C_16 
REMARK       I    between atoms: C_16  and  N_17 
REMARK    7  A    between atoms: N_17  and  C_18 
REMARK    8  A    between atoms: C_18  and  C_19 
ROOT
HETATM    1  C   UNL     1      -6.543   3.179 -31.939  1.00  0.00     0.245 C 
HETATM    2  N   UNL     1      -5.528   2.592 -31.211  1.00  0.00    -0.265 N 
HETATM    3  O   UNL     1      -7.501   2.539 -32.380  1.00  0.00    -0.271 OA
HETATM    4  H   UNL     1      -4.598   3.022 -31.207  1.00  0.00     0.190 HD
ENDROOT
BRANCH   1   5
HETATM    5  C   UNL     1      -6.377   4.655 -32.222  1.00  0.00     0.187 C 
BRANCH   5   6
HETATM    6  S   UNL     1      -5.728   4.901 -33.889  1.00  0.00    -0.081 SA
BRANCH   6   7
HETATM    7  C   UNL     1      -4.020   5.080 -33.701  1.00  0.00     0.185 A 
HETATM    8  N   UNL     1      -3.171   4.140 -33.200  1.00  0.00    -0.254 N 
HETATM    9  N   UNL     1      -1.921   4.626 -33.079  1.00  0.00    -0.157 NA
HETATM   10  H   UNL     1      -3.367   3.192 -32.889  1.00  0.00     0.191 HD
HETATM   11  C   UNL     1      -2.092   5.896 -33.477  1.00  0.00     0.153 A 
HETATM   12  N   UNL     1      -3.360   6.192 -33.921  1.00  0.00    -0.206 NA
BRANCH  11  13
HETATM   13  C   UNL     1      -1.002   6.908 -33.434  1.00  0.00     0.120 C 
BRANCH  13  14
HETATM   14  C   UNL     1      -0.804   7.238 -31.972  1.00  0.00    -0.051 A 
HETATM   15  C   UNL     1       0.324   6.772 -31.276  1.00  0.00     0.007 A 
HETATM   16  C   UNL     1       0.485   7.054 -29.919  1.00  0.00     0.001 A 
HETATM   17  C   UNL     1      -0.477   7.802 -29.241  1.00  0.00     0.000 A 
HETATM   18  C   UNL     1      -1.600   8.268 -29.919  1.00  0.00     0.001 A 
HETATM   19  C   UNL     1      -1.766   7.987 -31.276  1.00  0.00     0.007 A 
ENDBRANCH  13  14
ENDBRANCH  11  13
ENDBRANCH   6   7
ENDBRANCH   5   6
ENDBRANCH   1   5
BRANCH   2  20
HETATM   20  N   UNL     1      -5.496   1.172 -31.228  1.00  0.00    -0.249 N 
HETATM   21  C   UNL     1      -4.569   0.605 -32.080  1.00  0.00     0.335 C 
HETATM   22  N   UNL     1      -4.800  -0.726 -32.282  1.00  0.00    -0.338 N 
HETATM   23  O   UNL     1      -3.664   1.249 -32.600  1.00  0.00    -0.246 OA
HETATM   24  H   UNL     1      -5.331  -1.218 -31.579  1.00  0.00     0.164 HD
HETATM   25  H   UNL     1      -6.420   0.742 -31.223  1.00  0.00     0.192 HD
BRANCH  22  26
HETATM   26  C   UNL     1      -3.918  -1.517 -33.107  1.00  0.00     0.162 C 
BRANCH  26  27
HETATM   27  C   UNL     1      -4.687  -2.611 -33.798  1.00  0.00    -0.040 A 
HETATM   28  C   UNL     1      -5.971  -2.354 -34.300  1.00  0.00     0.009 A 
HETATM   29  C   UNL     1      -6.705  -3.365 -34.922  1.00  0.00     0.001 A 
HETATM   30  C   UNL     1      -6.166  -4.645 -35.041  1.00  0.00     0.000 A 
HETATM   31  C   UNL     1      -4.894  -4.915 -34.537  1.00  0.00     0.001 A 
HETATM   32  C   UNL     1      -4.158  -3.904 -33.914  1.00  0.00     0.009 A 
ENDBRANCH  26  27
ENDBRANCH  22  26
ENDBRANCH   2  20
TORSDOF 8
ENDMDL
MODEL 5
REMARK VINA RESULT:      -8.6      1.937     10.209
REMARK  8 active torsions:
REMARK  status: ('A' for Active; 'I' for Inactive)
REMARK    1  A    between atoms: C_4  and  C_5 
REMARK    2  A    between atoms: C_5  and  C_6 
REMARK    3  A    between atoms: C_10  and  S_11 
REMARK    4  A    between atoms: S_11  and  C_12 
REMARK    5  A    between atoms: C_12  and  C_13 
REMARK       I    between atoms: C_13  and  N_14 
REMARK    6  A    between atoms: N_14  and  N_15 
REMARK       I    between atoms: N_15  and  C_16 
REMARK       I    between atoms: C_16  and  N_17 
REMARK    7  A    between atoms: N_17  and  C_18 
REMARK    8  A    between atoms: C_18  and  C_19 
ROOT
HETATM    1  C   UNL     1      -4.781   4.240 -30.478  1.00  0.00     0.245 C 
HETATM    2  N   UNL     1      -3.490   4.301 -30.963  1.00  0.00    -0.265 N 
HETATM    3  O   UNL     1      -5.447   5.249 -30.234  1.00  0.00    -0.271 OA
HETATM    4  H   UNL     1      -2.847   3.525 -30.781  1.00  0.00     0.190 HD
ENDROOT
BRANCH   1   5
HETATM    5  C   UNL     1      -5.310   2.852 -30.198  1.00  0.00     0.187 C 
BRANCH   5   6
HETATM    6  S   UNL     1      -4.366   1.625 -31.126  1.00  0.00    -0.081 SA
BRANCH   6   7
HETATM    7  C   UNL     1      -5.520   0.796 -32.109  1.00  0.00     0.185 A 
HETATM    8  N   UNL     1      -6.710   0.288 -31.683  1.00  0.00    -0.254 N 
HETATM    9  N   UNL     1      -7.328  -0.396 -32.664  1.00  0.00    -0.157 NA
HETATM   10  H   UNL     1      -7.136   0.328 -30.761  1.00  0.00     0.191 HD
HETATM   11  C   UNL     1      -6.426  -0.310 -33.654  1.00  0.00     0.153 A 
HETATM   12  N   UNL     1      -5.327   0.465 -33.363  1.00  0.00    -0.206 NA
BRANCH  11  13
HETATM   13  C   UNL     1      -6.592  -1.005 -34.959  1.00  0.00     0.120 C 
BRANCH  13  14
HETATM   14  C   UNL     1      -5.990  -2.380 -34.774  1.00  0.00    -0.051 A 
HETATM   15  C   UNL     1      -6.738  -3.536 -35.046  1.00  0.00     0.007 A 
HETATM   16  C   UNL     1      -6.187  -4.802 -34.843  1.00  0.00     0.001 A 
HETATM   17  C   UNL     1      -4.882  -4.927 -34.367  1.00  0.00     0.000 A 
HETATM   18  C   UNL     1      -4.129  -3.789 -34.091  1.00  0.00     0.001 A 
HETATM   19  C   UNL     1      -4.679  -2.521 -34.291  1.00  0.00     0.007 A 
ENDBRANCH  13  14
ENDBRANCH  11  13
ENDBRANCH   6   7
ENDBRANCH   5   6
ENDBRANCH   1   5
BRANCH   2  20
HETATM   20  N   UNL     1      -2.869   5.577 -30.908  1.00  0.00    -0.249 N 
HETATM   21  C   UNL     1      -1.503   5.569 -30.701  1.00  0.00     0.335 C 
HETATM   22  N   UNL     1      -1.028   6.801 -30.350  1.00  0.00    -0.338 N 
HETATM   23  O   UNL     1      -0.822   4.555 -30.805  1.00  0.00    -0.246 OA
HETATM   24  H   UNL     1      -1.578   7.605 -30.612  1.00  0.00     0.164 HD
HETATM   25  H   UNL     1      -3.397   6.268 -30.376  1.00  0.00     0.192 HD
BRANCH  22  26
HETATM   26  C   UNL     1       0.383   7.018 -30.130  1.00  0.00     0.162 C 
BRANCH  26  27
HETATM   27  C   UNL     1       0.645   7.341 -28.684  1.00  0.00    -0.040 A 
HETATM   28  C   UNL     1       1.450   8.438 -28.346  1.00  0.00     0.009 A 
HETATM   29  C   UNL     1       1.720   8.735 -27.009  1.00  0.00     0.001 A 
HETATM   30  C   UNL     1       1.193   7.934 -25.998  1.00  0.00     0.000 A 
HETATM   31  C   UNL     1       0.400   6.835 -26.321  1.00  0.00     0.001 A 
HETATM   32  C   UNL     1       0.128   6.536 -27.659  1.00  0.00     0.009 A 
ENDBRANCH  26  27
ENDBRANCH  22  26
ENDBRANCH   2  20
TORSDOF 8
ENDMDL
MODEL 6
REMARK VINA RESULT:      -8.5      4.107      8.376
REMARK  8 active torsions:
REMARK  status: ('A' for Active; 'I' for Inactive)
REMARK    1  A    between atoms: C_4  and  C_5 
REMARK    2  A    between atoms: C_5  and  C_6 
REMARK    3  A    between atoms: C_10  and  S_11 
REMARK    4  A    between atoms: S_11  and  C_12 
REMARK    5  A    between atoms: C_12  and  C_13 
REMARK       I    between atoms: C_13  and  N_14 
REMARK    6  A    between atoms: N_14  and  N_15 
REMARK       I    between atoms: N_15  and  C_16 
REMARK       I    between atoms: C_16  and  N_17 
REMARK    7  A    between atoms: N_17  and  C_18 
REMARK    8  A    between atoms: C_18  and  C_19 
ROOT
HETATM    1  C   UNL     1      -6.990   3.387 -30.195  1.00  0.00     0.245 C 
HETATM    2  N   UNL     1      -8.018   2.511 -29.907  1.00  0.00    -0.265 N 
HETATM    3  O   UNL     1      -7.188   4.516 -30.651  1.00  0.00    -0.271 OA
HETATM    4  H   UNL     1      -7.838   1.503 -29.921  1.00  0.00     0.190 HD
ENDROOT
BRANCH   1   5
HETATM    5  C   UNL     1      -5.594   2.851 -29.977  1.00  0.00     0.187 C 
BRANCH   5   6
HETATM    6  S   UNL     1      -4.779   2.568 -31.564  1.00  0.00    -0.081 SA
BRANCH   6   7
HETATM    7  C   UNL     1      -5.594   1.219 -32.270  1.00  0.00     0.185 A 
HETATM    8  N   UNL     1      -6.079   0.138 -31.595  1.00  0.00    -0.254 N 
HETATM    9  N   UNL     1      -6.559  -0.791 -32.443  1.00  0.00    -0.157 NA
HETATM   10  H   UNL     1      -6.081  -0.052 -30.596  1.00  0.00     0.191 HD
HETATM   11  C   UNL     1      -6.284  -0.232 -33.631  1.00  0.00     0.153 A 
HETATM   12  N   UNL     1      -5.742   1.031 -33.559  1.00  0.00    -0.206 NA
BRANCH  11  13
HETATM   13  C   UNL     1      -6.534  -0.923 -34.925  1.00  0.00     0.120 C 
BRANCH  13  14
HETATM   14  C   UNL     1      -5.971  -2.317 -34.763  1.00  0.00    -0.051 A 
HETATM   15  C   UNL     1      -6.778  -3.447 -34.968  1.00  0.00     0.007 A 
HETATM   16  C   UNL     1      -6.260  -4.730 -34.786  1.00  0.00     0.001 A 
HETATM   17  C   UNL     1      -4.931  -4.899 -34.398  1.00  0.00     0.000 A 
HETATM   18  C   UNL     1      -4.120  -3.787 -34.190  1.00  0.00     0.001 A 
HETATM   19  C   UNL     1      -4.636  -2.502 -34.369  1.00  0.00     0.007 A 
ENDBRANCH  13  14
ENDBRANCH  11  13
ENDBRANCH   6   7
ENDBRANCH   5   6
ENDBRANCH   1   5
BRANCH   2  20
HETATM   20  N   UNL     1      -9.295   2.867 -30.418  1.00  0.00    -0.249 N 
HETATM   21  C   UNL     1      -9.636   2.293 -31.627  1.00  0.00     0.335 C 
HETATM   22  N   UNL     1     -10.712   2.906 -32.203  1.00  0.00    -0.338 N 
HETATM   23  O   UNL     1      -9.015   1.354 -32.115  1.00  0.00    -0.246 OA
HETATM   24  H   UNL     1     -11.336   3.417 -31.598  1.00  0.00     0.164 HD
HETATM   25  H   UNL     1      -9.515   3.857 -30.315  1.00  0.00     0.192 HD
BRANCH  22  26
HETATM   26  C   UNL     1     -11.258   2.430 -33.453  1.00  0.00     0.162 C 
BRANCH  26  27
HETATM   27  C   UNL     1     -12.734   2.171 -33.315  1.00  0.00    -0.040 A 
HETATM   28  C   UNL     1     -13.503   2.950 -32.439  1.00  0.00     0.009 A 
HETATM   29  C   UNL     1     -14.868   2.705 -32.283  1.00  0.00     0.001 A 
HETATM   30  C   UNL     1     -15.476   1.675 -32.997  1.00  0.00     0.000 A 
HETATM   31  C   UNL     1     -14.720   0.887 -33.864  1.00  0.00     0.001 A 
HETATM   32  C   UNL     1     -13.354   1.130 -34.021  1.00  0.00     0.009 A 
ENDBRANCH  26  27
ENDBRANCH  22  26
ENDBRANCH   2  20
TORSDOF 8
ENDMDL
MODEL 7
REMARK VINA RESULT:      -8.5      3.245      5.873
REMARK  8 active torsions:
REMARK  status: ('A' for Active; 'I' for Inactive)
REMARK    1  A    between atoms: C_4  and  C_5 
REMARK    2  A    between atoms: C_5  and  C_6 
REMARK    3  A    between atoms: C_10  and  S_11 
REMARK    4  A    between atoms: S_11  and  C_12 
REMARK    5  A    between atoms: C_12  and  C_13 
REMARK       I    between atoms: C_13  and  N_14 
REMARK    6  A    between atoms: N_14  and  N_15 
REMARK       I    between atoms: N_15  and  C_16 
REMARK       I    between atoms: C_16  and  N_17 
REMARK    7  A    between atoms: N_17  and  C_18 
REMARK    8  A    between atoms: C_18  and  C_19 
ROOT
HETATM    1  C   UNL     1      -5.650   4.603 -29.976  1.00  0.00     0.245 C 
HETATM    2  N   UNL     1      -4.612   3.702 -30.117  1.00  0.00    -0.265 N 
HETATM    3  O   UNL     1      -6.828   4.249 -29.883  1.00  0.00    -0.271 OA
HETATM    4  H   UNL     1      -3.747   4.000 -30.578  1.00  0.00     0.190 HD
ENDROOT
BRANCH   1   5
HETATM    5  C   UNL     1      -5.259   6.062 -30.011  1.00  0.00     0.187 C 
BRANCH   5   6
HETATM    6  S   UNL     1      -4.604   6.495 -31.636  1.00  0.00    -0.081 SA
BRANCH   6   7
HETATM    7  C   UNL     1      -5.507   5.553 -32.768  1.00  0.00     0.185 A 
HETATM    8  N   UNL     1      -6.697   5.908 -33.329  1.00  0.00    -0.254 N 
HETATM    9  N   UNL     1      -7.199   4.911 -34.082  1.00  0.00    -0.157 NA
HETATM   10  H   UNL     1      -7.234   6.765 -33.218  1.00  0.00     0.191 HD
HETATM   11  C   UNL     1      -6.282   3.949 -33.890  1.00  0.00     0.153 A 
HETATM   12  N   UNL     1      -5.199   4.332 -33.133  1.00  0.00    -0.206 NA
BRANCH  11  13
HETATM   13  C   UNL     1      -6.427   2.576 -34.443  1.00  0.00     0.120 C 
BRANCH  13  14
HETATM   14  C   UNL     1      -7.649   1.989 -33.773  1.00  0.00    -0.051 A 
HETATM   15  C   UNL     1      -7.792   2.028 -32.377  1.00  0.00     0.007 A 
HETATM   16  C   UNL     1      -8.907   1.456 -31.763  1.00  0.00     0.001 A 
HETATM   17  C   UNL     1      -9.891   0.839 -32.535  1.00  0.00     0.000 A 
HETATM   18  C   UNL     1      -9.761   0.792 -33.920  1.00  0.00     0.001 A 
HETATM   19  C   UNL     1      -8.646   1.362 -34.538  1.00  0.00     0.007 A 
ENDBRANCH  13  14
ENDBRANCH  11  13
ENDBRANCH   6   7
ENDBRANCH   5   6
ENDBRANCH   1   5
BRANCH   2  20
HETATM   20  N   UNL     1      -4.989   2.368 -30.424  1.00  0.00    -0.249 N 
HETATM   21  C   UNL     1      -4.099   1.660 -31.208  1.00  0.00     0.335 C 
HETATM   22  N   UNL     1      -4.653   0.521 -31.718  1.00  0.00    -0.338 N 
HETATM   23  O   UNL     1      -2.954   2.044 -31.423  1.00  0.00    -0.246 OA
HETATM   24  H   UNL     1      -5.448   0.132 -31.233  1.00  0.00     0.164 HD
HETATM   25  H   UNL     1      -5.975   2.266 -30.664  1.00  0.00     0.192 HD
BRANCH  22  26
HETATM   26  C   UNL     1      -3.875  -0.385 -32.531  1.00  0.00     0.162 C 
BRANCH  26  27
HETATM   27  C   UNL     1      -4.781  -1.291 -33.320  1.00  0.00    -0.040 A 
HETATM   28  C   UNL     1      -6.168  -1.084 -33.301  1.00  0.00     0.009 A 
HETATM   29  C   UNL     1      -7.022  -1.931 -34.008  1.00  0.00     0.001 A 
HETATM   30  C   UNL     1      -6.499  -2.997 -34.736  1.00  0.00     0.000 A 
HETATM   31  C   UNL     1      -5.123  -3.220 -34.755  1.00  0.00     0.001 A 
HETATM   32  C   UNL     1      -4.266  -2.373 -34.047  1.00  0.00     0.009 A 
ENDBRANCH  26  27
ENDBRANCH  22  26
ENDBRANCH   2  20
TORSDOF 8
ENDMDL
MODEL 8
REMARK VINA RESULT:      -8.3      2.570      9.860
REMARK  8 active torsions:
REMARK  status: ('A' for Active; 'I' for Inactive)
REMARK    1  A    between atoms: C_4  and  C_5 
REMARK    2  A    between atoms: C_5  and  C_6 
REMARK    3  A    between atoms: C_10  and  S_11 
REMARK    4  A    between atoms: S_11  and  C_12 
REMARK    5  A    between atoms: C_12  and  C_13 
REMARK       I    between atoms: C_13  and  N_14 
REMARK    6  A    between atoms: N_14  and  N_15 
REMARK       I    between atoms: N_15  and  C_16 
REMARK       I    between atoms: C_16  and  N_17 
REMARK    7  A    between atoms: N_17  and  C_18 
REMARK    8  A    between atoms: C_18  and  C_19 
ROOT
HETATM    1  C   UNL     1      -2.798   5.802 -34.305  1.00  0.00     0.245 C 
HETATM    2  N   UNL     1      -1.647   5.137 -33.929  1.00  0.00    -0.265 N 
HETATM    3  O   UNL     1      -2.981   6.999 -34.068  1.00  0.00    -0.271 OA
HETATM    4  H   UNL     1      -1.679   4.126 -33.771  1.00  0.00     0.190 HD
ENDROOT
BRANCH   1   5
HETATM    5  C   UNL     1      -3.857   4.952 -34.969  1.00  0.00     0.187 C 
BRANCH   5   6
HETATM    6  S   UNL     1      -5.311   4.824 -33.907  1.00  0.00    -0.081 SA
BRANCH   6   7
HETATM    7  C   UNL     1      -5.052   3.423 -32.931  1.00  0.00     0.185 A 
HETATM    8  N   UNL     1      -3.846   2.983 -32.474  1.00  0.00    -0.254 N 
HETATM    9  N   UNL     1      -3.967   1.804 -31.835  1.00  0.00    -0.157 NA
HETATM   10  H   UNL     1      -2.923   3.393 -32.588  1.00  0.00     0.191 HD
HETATM   11  C   UNL     1      -5.277   1.554 -31.989  1.00  0.00     0.153 A 
HETATM   12  N   UNL     1      -5.984   2.558 -32.609  1.00  0.00    -0.206 NA
BRANCH  11  13
HETATM   13  C   UNL     1      -5.915   0.289 -31.534  1.00  0.00     0.120 C 
BRANCH  13  14
HETATM   14  C   UNL     1      -5.837  -0.658 -32.711  1.00  0.00    -0.051 A 
HETATM   15  C   UNL     1      -6.925  -0.809 -33.586  1.00  0.00     0.007 A 
HETATM   16  C   UNL     1      -6.858  -1.708 -34.651  1.00  0.00     0.001 A 
HETATM   17  C   UNL     1      -5.704  -2.465 -34.856  1.00  0.00     0.000 A 
HETATM   18  C   UNL     1      -4.619  -2.325 -33.995  1.00  0.00     0.001 A 
HETATM   19  C   UNL     1      -4.684  -1.429 -32.927  1.00  0.00     0.007 A 
ENDBRANCH  13  14
ENDBRANCH  11  13
ENDBRANCH   6   7
ENDBRANCH   5   6
ENDBRANCH   1   5
BRANCH   2  20
HETATM   20  N   UNL     1      -0.804   5.827 -33.018  1.00  0.00    -0.249 N 
HETATM   21  C   UNL     1      -0.862   5.398 -31.706  1.00  0.00     0.335 C 
HETATM   22  N   UNL     1      -0.282   6.287 -30.847  1.00  0.00    -0.338 N 
HETATM   23  O   UNL     1      -1.399   4.346 -31.376  1.00  0.00    -0.246 OA
HETATM   24  H   UNL     1       0.401   6.924 -31.227  1.00  0.00     0.164 HD
HETATM   25  H   UNL     1      -0.790   6.837 -33.158  1.00  0.00     0.192 HD
BRANCH  22  26
HETATM   26  C   UNL     1      -0.198   6.006 -29.432  1.00  0.00     0.162 C 
BRANCH  26  27
HETATM   27  C   UNL     1      -0.060   7.285 -28.652  1.00  0.00    -0.040 A 
HETATM   28  C   UNL     1      -1.176   8.113 -28.460  1.00  0.00     0.009 A 
HETATM   29  C   UNL     1      -1.057   9.314 -27.759  1.00  0.00     0.001 A 
HETATM   30  C   UNL     1       0.180   9.702 -27.249  1.00  0.00     0.000 A 
HETATM   31  C   UNL     1       1.299   8.893 -27.442  1.00  0.00     0.001 A 
HETATM   32  C   UNL     1       1.182   7.691 -28.143  1.00  0.00     0.009 A 
ENDBRANCH  26  27
ENDBRANCH  22  26
ENDBRANCH   2  20
TORSDOF 8
ENDMDL
MODEL 9
REMARK VINA RESULT:      -8.2      2.412      3.706
REMARK  8 active torsions:
REMARK  status: ('A' for Active; 'I' for Inactive)
REMARK    1  A    between atoms: C_4  and  C_5 
REMARK    2  A    between atoms: C_5  and  C_6 
REMARK    3  A    between atoms: C_10  and  S_11 
REMARK    4  A    between atoms: S_11  and  C_12 
REMARK    5  A    between atoms: C_12  and  C_13 
REMARK       I    between atoms: C_13  and  N_14 
REMARK    6  A    between atoms: N_14  and  N_15 
REMARK       I    between atoms: N_15  and  C_16 
REMARK       I    between atoms: C_16  and  N_17 
REMARK    7  A    between atoms: N_17  and  C_18 
REMARK    8  A    between atoms: C_18  and  C_19 
ROOT
HETATM    1  C   UNL     1      -2.922   4.997 -33.900  1.00  0.00     0.245 C 
HETATM    2  N   UNL     1      -2.958   4.027 -32.918  1.00  0.00    -0.265 N 
HETATM    3  O   UNL     1      -3.918   5.319 -34.553  1.00  0.00    -0.271 OA
HETATM    4  H   UNL     1      -2.103   3.512 -32.688  1.00  0.00     0.190 HD
ENDROOT
BRANCH   1   5
HETATM    5  C   UNL     1      -1.564   5.599 -34.176  1.00  0.00     0.187 C 
BRANCH   5   6
HETATM    6  S   UNL     1      -1.401   7.186 -33.330  1.00  0.00    -0.081 SA
BRANCH   6   7
HETATM    7  C   UNL     1      -1.291   6.807 -31.648  1.00  0.00     0.185 A 
HETATM    8  N   UNL     1      -2.156   7.222 -30.680  1.00  0.00    -0.254 N 
HETATM    9  N   UNL     1      -1.734   6.852 -29.457  1.00  0.00    -0.157 NA
HETATM   10  H   UNL     1      -3.004   7.777 -30.766  1.00  0.00     0.191 HD
HETATM   11  C   UNL     1      -0.567   6.257 -29.749  1.00  0.00     0.153 A 
HETATM   12  N   UNL     1      -0.293   6.162 -31.094  1.00  0.00    -0.206 NA
BRANCH  11  13
HETATM   13  C   UNL     1       0.363   5.748 -28.705  1.00  0.00     0.120 C 
BRANCH  13  14
HETATM   14  C   UNL     1       0.749   6.952 -27.875  1.00  0.00    -0.051 A 
HETATM   15  C   UNL     1       1.284   8.101 -28.480  1.00  0.00     0.007 A 
HETATM   16  C   UNL     1       1.668   9.196 -27.705  1.00  0.00     0.001 A 
HETATM   17  C   UNL     1       1.521   9.157 -26.319  1.00  0.00     0.000 A 
HETATM   18  C   UNL     1       0.993   8.023 -25.707  1.00  0.00     0.001 A 
HETATM   19  C   UNL     1       0.610   6.925 -26.479  1.00  0.00     0.007 A 
ENDBRANCH  13  14
ENDBRANCH  11  13
ENDBRANCH   6   7
ENDBRANCH   5   6
ENDBRANCH   1   5
BRANCH   2  20
HETATM   20  N   UNL     1      -4.130   3.225 -32.884  1.00  0.00    -0.249 N 
HETATM   21  C   UNL     1      -3.999   2.001 -32.258  1.00  0.00     0.335 C 
HETATM   22  N   UNL     1      -5.046   1.168 -32.531  1.00  0.00    -0.338 N 
HETATM   23  O   UNL     1      -3.033   1.713 -31.559  1.00  0.00    -0.246 OA
HETATM   24  H   UNL     1      -5.916   1.591 -32.819  1.00  0.00     0.164 HD
HETATM   25  H   UNL     1      -4.652   3.225 -33.760  1.00  0.00     0.192 HD
BRANCH  22  26
HETATM   26  C   UNL     1      -5.124  -0.147 -31.937  1.00  0.00     0.162 C 
BRANCH  26  27
HETATM   27  C   UNL     1      -5.357  -1.188 -32.998  1.00  0.00    -0.040 A 
HETATM   28  C   UNL     1      -4.290  -1.975 -33.453  1.00  0.00     0.009 A 
HETATM   29  C   UNL     1      -4.486  -2.928 -34.454  1.00  0.00     0.001 A 
HETATM   30  C   UNL     1      -5.750  -3.098 -35.015  1.00  0.00     0.000 A 
HETATM   31  C   UNL     1      -6.818  -2.314 -34.578  1.00  0.00     0.001 A 
HETATM   32  C   UNL     1      -6.623  -1.360 -33.576  1.00  0.00     0.009 A 
ENDBRANCH  26  27
ENDBRANCH  22  26
ENDBRANCH   2  20
TORSDOF 8
ENDMDL
MODEL 10
REMARK VINA RESULT:      -8.2      3.825      7.165
REMARK  8 active torsions:
REMARK  status: ('A' for Active; 'I' for Inactive)
REMARK    1  A    between atoms: C_4  and  C_5 
REMARK    2  A    between atoms: C_5  and  C_6 
REMARK    3  A    between atoms: C_10  and  S_11 
REMARK    4  A    between atoms: S_11  and  C_12 
REMARK    5  A    between atoms: C_12  and  C_13 
REMARK       I    between atoms: C_13  and  N_14 
REMARK    6  A    between atoms: N_14  and  N_15 
REMARK       I    between atoms: N_15  and  C_16 
REMARK       I    between atoms: C_16  and  N_17 
REMARK    7  A    between atoms: N_17  and  C_18 
REMARK    8  A    between atoms: C_18  and  C_19 
ROOT
HETATM    1  C   UNL     1      -4.894   5.355 -33.849  1.00  0.00     0.245 C 
HETATM    2  N   UNL     1      -6.085   5.612 -33.200  1.00  0.00    -0.265 N 
HETATM    3  O   UNL     1      -4.846   4.839 -34.969  1.00  0.00    -0.271 OA
HETATM    4  H   UNL     1      -6.101   5.653 -32.176  1.00  0.00     0.190 HD
ENDROOT
BRANCH   1   5
HETATM    5  C   UNL     1      -3.640   5.683 -33.072  1.00  0.00     0.187 C 
BRANCH   5   6
HETATM    6  S   UNL     1      -2.571   4.232 -32.968  1.00  0.00    -0.081 SA
BRANCH   6   7
HETATM    7  C   UNL     1      -3.470   3.055 -32.079  1.00  0.00     0.185 A 
HETATM    8  N   UNL     1      -4.256   3.306 -30.994  1.00  0.00    -0.254 N 
HETATM    9  N   UNL     1      -4.731   2.165 -30.460  1.00  0.00    -0.157 NA
HETATM   10  H   UNL     1      -4.475   4.192 -30.546  1.00  0.00     0.191 HD
HETATM   11  C   UNL     1      -4.147   1.245 -31.243  1.00  0.00     0.153 A 
HETATM   12  N   UNL     1      -3.410   1.762 -32.284  1.00  0.00    -0.206 NA
BRANCH  11  13
HETATM   13  C   UNL     1      -4.275  -0.218 -31.002  1.00  0.00     0.120 C 
BRANCH  13  14
HETATM   14  C   UNL     1      -5.029  -0.767 -32.192  1.00  0.00    -0.051 A 
HETATM   15  C   UNL     1      -4.394  -1.610 -33.119  1.00  0.00     0.007 A 
HETATM   16  C   UNL     1      -5.087  -2.088 -34.232  1.00  0.00     0.001 A 
HETATM   17  C   UNL     1      -6.419  -1.731 -34.433  1.00  0.00     0.000 A 
HETATM   18  C   UNL     1      -7.060  -0.895 -33.522  1.00  0.00     0.001 A 
HETATM   19  C   UNL     1      -6.370  -0.413 -32.409  1.00  0.00     0.007 A 
ENDBRANCH  13  14
ENDBRANCH  11  13
ENDBRANCH   6   7
ENDBRANCH   5   6
ENDBRANCH   1   5
BRANCH   2  20
HETATM   20  N   UNL     1      -7.239   5.006 -33.762  1.00  0.00    -0.249 N 
HETATM   21  C   UNL     1      -7.704   3.882 -33.108  1.00  0.00     0.335 C 
HETATM   22  N   UNL     1      -8.602   3.181 -33.861  1.00  0.00    -0.338 N 
HETATM   23  O   UNL     1      -7.320   3.560 -31.988  1.00  0.00    -0.246 OA
HETATM   24  H   UNL     1      -9.090   3.681 -34.589  1.00  0.00     0.164 HD
HETATM   25  H   UNL     1      -7.220   4.955 -34.780  1.00  0.00     0.192 HD
BRANCH  22  26
HETATM   26  C   UNL     1      -9.241   1.994 -33.342  1.00  0.00     0.162 C 
BRANCH  26  27
HETATM   27  C   UNL     1     -10.660   1.904 -33.837  1.00  0.00    -0.040 A 
HETATM   28  C   UNL     1     -11.445   0.789 -33.513  1.00  0.00     0.009 A 
HETATM   29  C   UNL     1     -12.754   0.681 -33.985  1.00  0.00     0.001 A 
HETATM   30  C   UNL     1     -13.288   1.683 -34.792  1.00  0.00     0.000 A 
HETATM   31  C   UNL     1     -12.514   2.792 -35.130  1.00  0.00     0.001 A 
HETATM   32  C   UNL     1     -11.203   2.902 -34.658  1.00  0.00     0.009 A 
ENDBRANCH  26  27
ENDBRANCH  22  26
ENDBRANCH   2  20
TORSDOF 8
ENDMDL
