MODEL 1
REMARK VINA RESULT:      -9.8      0.000      0.000
REMARK  3 active torsions:
REMARK  status: ('A' for Active; 'I' for Inactive)
REMARK    1  A    between atoms: C_6  and  C_7 
REMARK    2  A    between atoms: C_14  and  N_15 
REMARK    3  A    between atoms: N_15  and  C_16 
ROOT
HETATM    1  C   UNL     1     -10.009   2.932 -32.561  1.00  0.00     0.001 A 
HETATM    2  C   UNL     1      -8.632   2.793 -32.403  1.00  0.00     0.018 A 
HETATM    3  C   UNL     1      -7.974   1.594 -32.781  1.00  0.00     0.039 A 
HETATM    4  C   UNL     1      -8.718   0.544 -33.332  1.00  0.00     0.073 A 
HETATM    5  N   UNL     1      -8.166  -0.608 -33.726  1.00  0.00    -0.228 NA
HETATM    6  C   UNL     1      -6.839  -0.741 -33.582  1.00  0.00     0.164 A 
HETATM    7  N   UNL     1      -6.035   0.202 -33.070  1.00  0.00    -0.210 NA
HETATM    8  C   UNL     1      -6.593   1.356 -32.667  1.00  0.00     0.143 A 
HETATM    9  C   UNL     1     -10.091   0.707 -33.479  1.00  0.00     0.032 A 
HETATM   10  C   UNL     1     -10.741   1.883 -33.099  1.00  0.00     0.002 A 
ENDROOT
BRANCH   8  11
HETATM   11  N   UNL     1      -5.765   2.355 -32.088  1.00  0.00    -0.340 N 
HETATM   12  H   UNL     1      -5.333   1.978 -31.251  1.00  0.00     0.167 HD
BRANCH  11  13
HETATM   13  C   UNL     1      -4.918   3.267 -32.756  1.00  0.00     0.036 A 
HETATM   14  C   UNL     1      -3.614   3.472 -32.277  1.00  0.00     0.069 A 
HETATM   15  C   UNL     1      -2.775   4.426 -32.861  1.00  0.00     0.104 A 
HETATM   16  C   UNL     1      -3.227   5.190 -33.937  1.00  0.00     0.102 A 
HETATM   17  O   UNL     1      -1.492   4.483 -32.386  1.00  0.00    -0.348 OA
HETATM   18  O   UNL     1      -2.435   6.067 -34.623  1.00  0.00    -0.348 OA
HETATM   19  C   UNL     1      -4.518   5.002 -34.421  1.00  0.00     0.042 A 
HETATM   20  C   UNL     1      -1.983   7.143 -33.800  1.00  0.00     0.178 C 
HETATM   21  C   UNL     1      -0.775   6.750 -32.966  1.00  0.00     0.053 C 
HETATM   22  C   UNL     1      -1.162   5.772 -31.868  1.00  0.00     0.178 C 
HETATM   23  C   UNL     1      -5.364   4.067 -33.817  1.00  0.00     0.032 A 
ENDBRANCH  11  13
ENDBRANCH   8  11
BRANCH   6  24
HETATM   24  C   UNL     1      -6.222  -2.006 -34.000  1.00  0.00     0.029 A 
HETATM   25  C   UNL     1      -4.856  -2.246 -33.849  1.00  0.00     0.131 A 
HETATM   26  N   UNL     1      -4.215  -3.389 -34.213  1.00  0.00    -0.272 NA
HETATM   27  C   UNL     1      -4.974  -4.357 -34.765  1.00  0.00     0.116 A 
HETATM   28  C   UNL     1      -6.337  -4.237 -34.967  1.00  0.00     0.020 A 
HETATM   29  C   UNL     1      -6.960  -3.052 -34.579  1.00  0.00     0.018 A 
ENDBRANCH   6  24
TORSDOF 3
ENDMDL
MODEL 2
REMARK VINA RESULT:      -9.6      1.370      4.450
REMARK  3 active torsions:
REMARK  status: ('A' for Active; 'I' for Inactive)
REMARK    1  A    between atoms: C_6  and  C_7 
REMARK    2  A    between atoms: C_14  and  N_15 
REMARK    3  A    between atoms: N_15  and  C_16 
ROOT
HETATM    1  C   UNL     1      -4.442  -1.570 -33.672  1.00  0.00     0.001 A 
HETATM    2  C   UNL     1      -4.760  -0.331 -33.122  1.00  0.00     0.018 A 
HETATM    3  C   UNL     1      -6.091   0.160 -33.156  1.00  0.00     0.039 A 
HETATM    4  C   UNL     1      -7.099  -0.620 -33.736  1.00  0.00     0.073 A 
HETATM    5  N   UNL     1      -8.376  -0.232 -33.790  1.00  0.00    -0.228 NA
HETATM    6  C   UNL     1      -8.686   0.959 -33.254  1.00  0.00     0.164 A 
HETATM    7  N   UNL     1      -7.800   1.781 -32.672  1.00  0.00    -0.210 NA
HETATM    8  C   UNL     1      -6.515   1.392 -32.627  1.00  0.00     0.143 A 
HETATM    9  C   UNL     1      -6.756  -1.853 -34.278  1.00  0.00     0.032 A 
HETATM   10  C   UNL     1      -5.444  -2.333 -34.255  1.00  0.00     0.002 A 
ENDROOT
BRANCH   8  11
HETATM   11  N   UNL     1      -5.553   2.262 -32.047  1.00  0.00    -0.340 N 
HETATM   12  H   UNL     1      -5.029   1.751 -31.345  1.00  0.00     0.167 HD
BRANCH  11  13
HETATM   13  C   UNL     1      -4.755   3.226 -32.703  1.00  0.00     0.036 A 
HETATM   14  C   UNL     1      -3.445   3.454 -32.256  1.00  0.00     0.069 A 
HETATM   15  C   UNL     1      -2.654   4.457 -32.826  1.00  0.00     0.104 A 
HETATM   16  C   UNL     1      -3.162   5.247 -33.858  1.00  0.00     0.102 A 
HETATM   17  O   UNL     1      -1.359   4.537 -32.387  1.00  0.00    -0.348 OA
HETATM   18  O   UNL     1      -2.419   6.175 -34.532  1.00  0.00    -0.348 OA
HETATM   19  C   UNL     1      -4.461   5.036 -34.310  1.00  0.00     0.042 A 
HETATM   20  C   UNL     1      -1.976   7.232 -33.680  1.00  0.00     0.178 C 
HETATM   21  C   UNL     1      -0.731   6.847 -32.898  1.00  0.00     0.053 C 
HETATM   22  C   UNL     1      -1.054   5.816 -31.829  1.00  0.00     0.178 C 
HETATM   23  C   UNL     1      -5.258   4.052 -33.718  1.00  0.00     0.032 A 
ENDBRANCH  11  13
ENDBRANCH   8  11
BRANCH   6  24
HETATM   24  C   UNL     1     -10.084   1.402 -33.316  1.00  0.00     0.029 A 
HETATM   25  C   UNL     1     -10.440   2.744 -33.174  1.00  0.00     0.131 A 
HETATM   26  N   UNL     1     -11.710   3.228 -33.219  1.00  0.00    -0.272 NA
HETATM   27  C   UNL     1     -12.693   2.326 -33.414  1.00  0.00     0.116 A 
HETATM   28  C   UNL     1     -12.467   0.970 -33.568  1.00  0.00     0.020 A 
HETATM   29  C   UNL     1     -11.151   0.510 -33.519  1.00  0.00     0.018 A 
ENDBRANCH   6  24
TORSDOF 3
ENDMDL
MODEL 3
REMARK VINA RESULT:      -9.5      3.572      6.627
REMARK  3 active torsions:
REMARK  status: ('A' for Active; 'I' for Inactive)
REMARK    1  A    between atoms: C_6  and  C_7 
REMARK    2  A    between atoms: C_14  and  N_15 
REMARK    3  A    between atoms: N_15  and  C_16 
ROOT
HETATM    1  C   UNL     1      -4.368   3.403 -31.773  1.00  0.00     0.001 A 
HETATM    2  C   UNL     1      -5.380   2.973 -32.629  1.00  0.00     0.018 A 
HETATM    3  C   UNL     1      -5.447   1.620 -33.054  1.00  0.00     0.039 A 
HETATM    4  C   UNL     1      -4.492   0.706 -32.593  1.00  0.00     0.073 A 
HETATM    5  N   UNL     1      -4.501  -0.586 -32.936  1.00  0.00    -0.228 NA
HETATM    6  C   UNL     1      -5.479  -1.005 -33.754  1.00  0.00     0.164 A 
HETATM    7  N   UNL     1      -6.442  -0.214 -34.248  1.00  0.00    -0.210 NA
HETATM    8  C   UNL     1      -6.427   1.087 -33.909  1.00  0.00     0.143 A 
HETATM    9  C   UNL     1      -3.493   1.159 -31.740  1.00  0.00     0.032 A 
HETATM   10  C   UNL     1      -3.420   2.493 -31.329  1.00  0.00     0.002 A 
ENDROOT
BRANCH   8  11
HETATM   11  N   UNL     1      -7.417   1.950 -34.450  1.00  0.00    -0.340 N 
HETATM   12  H   UNL     1      -7.450   1.821 -35.455  1.00  0.00     0.167 HD
BRANCH  11  13
HETATM   13  C   UNL     1      -8.690   2.247 -33.912  1.00  0.00     0.036 A 
HETATM   14  C   UNL     1      -9.705   1.281 -33.975  1.00  0.00     0.069 A 
HETATM   15  C   UNL     1     -11.000   1.567 -33.530  1.00  0.00     0.104 A 
HETATM   16  C   UNL     1     -11.297   2.826 -33.009  1.00  0.00     0.102 A 
HETATM   17  O   UNL     1     -11.893   0.529 -33.544  1.00  0.00    -0.348 OA
HETATM   18  O   UNL     1     -12.508   3.148 -32.462  1.00  0.00    -0.348 OA
HETATM   19  C   UNL     1     -10.302   3.797 -32.943  1.00  0.00     0.042 A 
HETATM   20  C   UNL     1     -13.567   3.079 -33.418  1.00  0.00     0.178 C 
HETATM   21  C   UNL     1     -14.065   1.656 -33.610  1.00  0.00     0.053 C 
HETATM   22  C   UNL     1     -13.039   0.812 -34.348  1.00  0.00     0.178 C 
HETATM   23  C   UNL     1      -9.017   3.517 -33.417  1.00  0.00     0.032 A 
ENDBRANCH  11  13
ENDBRANCH   8  11
BRANCH   6  24
HETATM   24  C   UNL     1      -5.493  -2.419 -34.147  1.00  0.00     0.029 A 
HETATM   25  C   UNL     1      -4.365  -3.231 -34.024  1.00  0.00     0.131 A 
HETATM   26  N   UNL     1      -4.302  -4.545 -34.369  1.00  0.00    -0.272 NA
HETATM   27  C   UNL     1      -5.428  -5.091 -34.870  1.00  0.00     0.116 A 
HETATM   28  C   UNL     1      -6.607  -4.390 -35.041  1.00  0.00     0.020 A 
HETATM   29  C   UNL     1      -6.635  -3.045 -34.674  1.00  0.00     0.018 A 
ENDBRANCH   6  24
TORSDOF 3
ENDMDL
MODEL 4
REMARK VINA RESULT:      -9.0      3.369      6.540
REMARK  3 active torsions:
REMARK  status: ('A' for Active; 'I' for Inactive)
REMARK    1  A    between atoms: C_6  and  C_7 
REMARK    2  A    between atoms: C_14  and  N_15 
REMARK    3  A    between atoms: N_15  and  C_16 
ROOT
HETATM    1  C   UNL     1      -4.310   3.494 -31.661  1.00  0.00     0.001 A 
HETATM    2  C   UNL     1      -5.339   3.082 -32.503  1.00  0.00     0.018 A 
HETATM    3  C   UNL     1      -5.422   1.736 -32.948  1.00  0.00     0.039 A 
HETATM    4  C   UNL     1      -4.463   0.810 -32.520  1.00  0.00     0.073 A 
HETATM    5  N   UNL     1      -4.485  -0.476 -32.883  1.00  0.00    -0.228 NA
HETATM    6  C   UNL     1      -5.481  -0.877 -33.689  1.00  0.00     0.164 A 
HETATM    7  N   UNL     1      -6.450  -0.074 -34.152  1.00  0.00    -0.210 NA
HETATM    8  C   UNL     1      -6.421   1.221 -33.792  1.00  0.00     0.143 A 
HETATM    9  C   UNL     1      -3.445   1.245 -31.680  1.00  0.00     0.032 A 
HETATM   10  C   UNL     1      -3.357   2.572 -31.250  1.00  0.00     0.002 A 
ENDROOT
BRANCH   8  11
HETATM   11  N   UNL     1      -7.417   2.098 -34.300  1.00  0.00    -0.340 N 
HETATM   12  H   UNL     1      -7.168   2.364 -35.246  1.00  0.00     0.167 HD
BRANCH  11  13
HETATM   13  C   UNL     1      -8.817   2.006 -34.127  1.00  0.00     0.036 A 
HETATM   14  C   UNL     1      -9.616   3.130 -34.386  1.00  0.00     0.069 A 
HETATM   15  C   UNL     1     -10.994   3.103 -34.147  1.00  0.00     0.104 A 
HETATM   16  C   UNL     1     -11.595   1.946 -33.650  1.00  0.00     0.102 A 
HETATM   17  O   UNL     1     -11.700   4.215 -34.521  1.00  0.00    -0.348 OA
HETATM   18  O   UNL     1     -12.945   1.809 -33.487  1.00  0.00    -0.348 OA
HETATM   19  C   UNL     1     -10.815   0.824 -33.385  1.00  0.00     0.042 A 
HETATM   20  C   UNL     1     -13.468   2.727 -32.527  1.00  0.00     0.178 C 
HETATM   21  C   UNL     1     -13.711   4.101 -33.130  1.00  0.00     0.053 C 
HETATM   22  C   UNL     1     -12.398   4.808 -33.425  1.00  0.00     0.178 C 
HETATM   23  C   UNL     1      -9.434   0.865 -33.597  1.00  0.00     0.032 A 
ENDBRANCH  11  13
ENDBRANCH   8  11
BRANCH   6  24
HETATM   24  C   UNL     1      -5.509  -2.285 -34.104  1.00  0.00     0.029 A 
HETATM   25  C   UNL     1      -4.387  -3.107 -34.003  1.00  0.00     0.131 A 
HETATM   26  N   UNL     1      -4.338  -4.416 -34.369  1.00  0.00    -0.272 NA
HETATM   27  C   UNL     1      -5.472  -4.946 -34.869  1.00  0.00     0.116 A 
HETATM   28  C   UNL     1      -6.648  -4.232 -35.019  1.00  0.00     0.020 A 
HETATM   29  C   UNL     1      -6.662  -2.893 -34.631  1.00  0.00     0.018 A 
ENDBRANCH   6  24
TORSDOF 3
ENDMDL
MODEL 5
REMARK VINA RESULT:      -9.0      3.093      6.132
REMARK  3 active torsions:
REMARK  status: ('A' for Active; 'I' for Inactive)
REMARK    1  A    between atoms: C_6  and  C_7 
REMARK    2  A    between atoms: C_14  and  N_15 
REMARK    3  A    between atoms: N_15  and  C_16 
ROOT
HETATM    1  C   UNL     1      -4.599   3.342 -31.222  1.00  0.00     0.001 A 
HETATM    2  C   UNL     1      -5.776   2.628 -31.430  1.00  0.00     0.018 A 
HETATM    3  C   UNL     1      -5.753   1.349 -32.045  1.00  0.00     0.039 A 
HETATM    4  C   UNL     1      -4.527   0.794 -32.433  1.00  0.00     0.073 A 
HETATM    5  N   UNL     1      -4.424  -0.411 -33.002  1.00  0.00    -0.228 NA
HETATM    6  C   UNL     1      -5.557  -1.104 -33.196  1.00  0.00     0.164 A 
HETATM    7  N   UNL     1      -6.779  -0.667 -32.859  1.00  0.00    -0.210 NA
HETATM    8  C   UNL     1      -6.881   0.548 -32.295  1.00  0.00     0.143 A 
HETATM    9  C   UNL     1      -3.366   1.526 -32.215  1.00  0.00     0.032 A 
HETATM   10  C   UNL     1      -3.389   2.790 -31.619  1.00  0.00     0.002 A 
ENDROOT
BRANCH   8  11
HETATM   11  N   UNL     1      -8.169   1.047 -31.962  1.00  0.00    -0.340 N 
HETATM   12  H   UNL     1      -8.081   1.685 -31.179  1.00  0.00     0.167 HD
BRANCH  11  13
HETATM   13  C   UNL     1      -9.199   1.435 -32.848  1.00  0.00     0.036 A 
HETATM   14  C   UNL     1      -9.152   2.706 -33.442  1.00  0.00     0.069 A 
HETATM   15  C   UNL     1     -10.194   3.157 -34.258  1.00  0.00     0.104 A 
HETATM   16  C   UNL     1     -11.300   2.341 -34.496  1.00  0.00     0.102 A 
HETATM   17  O   UNL     1     -10.010   4.370 -34.868  1.00  0.00    -0.348 OA
HETATM   18  O   UNL     1     -12.307   2.670 -35.359  1.00  0.00    -0.348 OA
HETATM   19  C   UNL     1     -11.364   1.080 -33.911  1.00  0.00     0.042 A 
HETATM   20  C   UNL     1     -13.015   3.838 -34.942  1.00  0.00     0.178 C 
HETATM   21  C   UNL     1     -12.293   5.113 -35.346  1.00  0.00     0.053 C 
HETATM   22  C   UNL     1     -11.029   5.309 -34.524  1.00  0.00     0.178 C 
HETATM   23  C   UNL     1     -10.334   0.644 -33.072  1.00  0.00     0.032 A 
ENDBRANCH  11  13
ENDBRANCH   8  11
BRANCH   6  24
HETATM   24  C   UNL     1      -5.459  -2.424 -33.831  1.00  0.00     0.029 A 
HETATM   25  C   UNL     1      -4.317  -3.217 -33.715  1.00  0.00     0.131 A 
HETATM   26  N   UNL     1      -4.153  -4.445 -34.275  1.00  0.00    -0.272 NA
HETATM   27  C   UNL     1      -5.186  -4.920 -34.999  1.00  0.00     0.116 A 
HETATM   28  C   UNL     1      -6.369  -4.229 -35.187  1.00  0.00     0.020 A 
HETATM   29  C   UNL     1      -6.502  -2.974 -34.596  1.00  0.00     0.018 A 
ENDBRANCH   6  24
TORSDOF 3
ENDMDL
MODEL 6
REMARK VINA RESULT:      -8.5      3.008      7.313
REMARK  3 active torsions:
REMARK  status: ('A' for Active; 'I' for Inactive)
REMARK    1  A    between atoms: C_6  and  C_7 
REMARK    2  A    between atoms: C_14  and  N_15 
REMARK    3  A    between atoms: N_15  and  C_16 
ROOT
HETATM    1  C   UNL     1      -8.639   3.327 -30.479  1.00  0.00     0.001 A 
HETATM    2  C   UNL     1      -7.971   3.019 -31.661  1.00  0.00     0.018 A 
HETATM    3  C   UNL     1      -6.742   3.649 -31.988  1.00  0.00     0.039 A 
HETATM    4  C   UNL     1      -6.189   4.581 -31.101  1.00  0.00     0.073 A 
HETATM    5  N   UNL     1      -5.029   5.202 -31.332  1.00  0.00    -0.228 NA
HETATM    6  C   UNL     1      -4.378   4.901 -32.467  1.00  0.00     0.164 A 
HETATM    7  N   UNL     1      -4.817   4.023 -33.380  1.00  0.00    -0.210 NA
HETATM    8  C   UNL     1      -5.989   3.406 -33.150  1.00  0.00     0.143 A 
HETATM    9  C   UNL     1      -6.875   4.872 -29.928  1.00  0.00     0.032 A 
HETATM   10  C   UNL     1      -8.090   4.260 -29.610  1.00  0.00     0.002 A 
ENDROOT
BRANCH   8  11
HETATM   11  N   UNL     1      -6.491   2.498 -34.120  1.00  0.00    -0.340 N 
HETATM   12  H   UNL     1      -6.353   2.895 -35.043  1.00  0.00     0.167 HD
BRANCH  11  13
HETATM   13  C   UNL     1      -6.371   1.089 -34.129  1.00  0.00     0.036 A 
HETATM   14  C   UNL     1      -5.537   0.465 -33.189  1.00  0.00     0.069 A 
HETATM   15  C   UNL     1      -5.328  -0.918 -33.218  1.00  0.00     0.104 A 
HETATM   16  C   UNL     1      -5.955  -1.699 -34.189  1.00  0.00     0.102 A 
HETATM   17  O   UNL     1      -4.575  -1.443 -32.202  1.00  0.00    -0.348 OA
HETATM   18  O   UNL     1      -5.881  -3.063 -34.221  1.00  0.00    -0.348 OA
HETATM   19  C   UNL     1      -6.782  -1.094 -35.131  1.00  0.00     0.042 A 
HETATM   20  C   UNL     1      -4.547  -3.526 -34.433  1.00  0.00     0.178 C 
HETATM   21  C   UNL     1      -3.741  -3.542 -33.145  1.00  0.00     0.053 C 
HETATM   22  C   UNL     1      -3.419  -2.130 -32.683  1.00  0.00     0.178 C 
HETATM   23  C   UNL     1      -6.965   0.292 -35.116  1.00  0.00     0.032 A 
ENDBRANCH  11  13
ENDBRANCH   8  11
BRANCH   6  24
HETATM   24  C   UNL     1      -3.108   5.585 -32.739  1.00  0.00     0.029 A 
HETATM   25  C   UNL     1      -2.904   6.329 -33.901  1.00  0.00     0.131 A 
HETATM   26  N   UNL     1      -1.758   6.987 -34.221  1.00  0.00    -0.272 NA
HETATM   27  C   UNL     1      -0.746   6.901 -33.335  1.00  0.00     0.116 A 
HETATM   28  C   UNL     1      -0.826   6.194 -32.149  1.00  0.00     0.020 A 
HETATM   29  C   UNL     1      -2.018   5.534 -31.853  1.00  0.00     0.018 A 
ENDBRANCH   6  24
TORSDOF 3
ENDMDL
MODEL 7
REMARK VINA RESULT:      -8.5      3.427      6.570
REMARK  3 active torsions:
REMARK  status: ('A' for Active; 'I' for Inactive)
REMARK    1  A    between atoms: C_6  and  C_7 
REMARK    2  A    between atoms: C_14  and  N_15 
REMARK    3  A    between atoms: N_15  and  C_16 
ROOT
HETATM    1  C   UNL     1      -4.489   3.947 -30.880  1.00  0.00     0.001 A 
HETATM    2  C   UNL     1      -5.650   3.179 -30.882  1.00  0.00     0.018 A 
HETATM    3  C   UNL     1      -5.701   1.938 -31.569  1.00  0.00     0.039 A 
HETATM    4  C   UNL     1      -4.562   1.475 -32.239  1.00  0.00     0.073 A 
HETATM    5  N   UNL     1      -4.528   0.309 -32.892  1.00  0.00    -0.228 NA
HETATM    6  C   UNL     1      -5.644  -0.437 -32.889  1.00  0.00     0.164 A 
HETATM    7  N   UNL     1      -6.785  -0.088 -32.277  1.00  0.00    -0.210 NA
HETATM    8  C   UNL     1      -6.819   1.088 -31.628  1.00  0.00     0.143 A 
HETATM    9  C   UNL     1      -3.415   2.259 -32.222  1.00  0.00     0.032 A 
HETATM   10  C   UNL     1      -3.367   3.486 -31.555  1.00  0.00     0.002 A 
ENDROOT
BRANCH   8  11
HETATM   11  N   UNL     1      -8.029   1.494 -31.002  1.00  0.00    -0.340 N 
HETATM   12  H   UNL     1      -7.807   1.941 -30.119  1.00  0.00     0.167 HD
BRANCH  11  13
HETATM   13  C   UNL     1      -9.166   2.068 -31.614  1.00  0.00     0.036 A 
HETATM   14  C   UNL     1      -9.883   3.064 -30.934  1.00  0.00     0.069 A 
HETATM   15  C   UNL     1     -11.060   3.596 -31.470  1.00  0.00     0.104 A 
HETATM   16  C   UNL     1     -11.537   3.141 -32.699  1.00  0.00     0.102 A 
HETATM   17  O   UNL     1     -11.633   4.630 -30.778  1.00  0.00    -0.348 OA
HETATM   18  O   UNL     1     -12.620   3.681 -33.334  1.00  0.00    -0.348 OA
HETATM   19  C   UNL     1     -10.840   2.150 -33.384  1.00  0.00     0.042 A 
HETATM   20  C   UNL     1     -13.824   3.511 -32.585  1.00  0.00     0.178 C 
HETATM   21  C   UNL     1     -13.971   4.565 -31.501  1.00  0.00     0.053 C 
HETATM   22  C   UNL     1     -12.972   4.337 -30.377  1.00  0.00     0.178 C 
HETATM   23  C   UNL     1      -9.680   1.600 -32.831  1.00  0.00     0.032 A 
ENDBRANCH  11  13
ENDBRANCH   8  11
BRANCH   6  24
HETATM   24  C   UNL     1      -5.624  -1.713 -33.613  1.00  0.00     0.029 A 
HETATM   25  C   UNL     1      -6.765  -2.233 -34.225  1.00  0.00     0.131 A 
HETATM   26  N   UNL     1      -6.823  -3.406 -34.910  1.00  0.00    -0.272 NA
HETATM   27  C   UNL     1      -5.679  -4.114 -34.991  1.00  0.00     0.116 A 
HETATM   28  C   UNL     1      -4.485  -3.705 -34.426  1.00  0.00     0.020 A 
HETATM   29  C   UNL     1      -4.463  -2.495 -33.734  1.00  0.00     0.018 A 
ENDBRANCH   6  24
TORSDOF 3
ENDMDL
MODEL 8
REMARK VINA RESULT:      -8.4     16.161     18.045
REMARK  3 active torsions:
REMARK  status: ('A' for Active; 'I' for Inactive)
REMARK    1  A    between atoms: C_6  and  C_7 
REMARK    2  A    between atoms: C_14  and  N_15 
REMARK    3  A    between atoms: N_15  and  C_16 
ROOT
HETATM    1  C   UNL     1      -6.994 -13.937 -34.033  1.00  0.00     0.001 A 
HETATM    2  C   UNL     1      -7.104 -13.406 -35.315  1.00  0.00     0.018 A 
HETATM    3  C   UNL     1      -6.030 -13.504 -36.238  1.00  0.00     0.039 A 
HETATM    4  C   UNL     1      -4.851 -14.156 -35.855  1.00  0.00     0.073 A 
HETATM    5  N   UNL     1      -3.804 -14.301 -36.673  1.00  0.00    -0.228 NA
HETATM    6  C   UNL     1      -3.910 -13.797 -37.913  1.00  0.00     0.164 A 
HETATM    7  N   UNL     1      -4.993 -13.158 -38.380  1.00  0.00    -0.210 NA
HETATM    8  C   UNL     1      -6.041 -13.006 -37.552  1.00  0.00     0.143 A 
HETATM    9  C   UNL     1      -4.766 -14.678 -34.570  1.00  0.00     0.032 A 
HETATM   10  C   UNL     1      -5.820 -14.574 -33.658  1.00  0.00     0.002 A 
ENDROOT
BRANCH   8  11
HETATM   11  N   UNL     1      -7.185 -12.301 -38.014  1.00  0.00    -0.340 N 
HETATM   12  H   UNL     1      -6.887 -11.416 -38.408  1.00  0.00     0.167 HD
BRANCH  11  13
HETATM   13  C   UNL     1      -8.309 -12.829 -38.689  1.00  0.00     0.036 A 
HETATM   14  C   UNL     1      -8.567 -14.206 -38.623  1.00  0.00     0.069 A 
HETATM   15  C   UNL     1      -9.621 -14.777 -39.345  1.00  0.00     0.104 A 
HETATM   16  C   UNL     1     -10.437 -13.974 -40.142  1.00  0.00     0.102 A 
HETATM   17  O   UNL     1      -9.850 -16.111 -39.139  1.00  0.00    -0.348 OA
HETATM   18  O   UNL     1     -11.544 -14.439 -40.795  1.00  0.00    -0.348 OA
HETATM   19  C   UNL     1     -10.192 -12.606 -40.222  1.00  0.00     0.042 A 
HETATM   20  C   UNL     1     -11.217 -15.421 -41.780  1.00  0.00     0.178 C 
HETATM   21  C   UNL     1     -11.035 -16.799 -41.167  1.00  0.00     0.053 C 
HETATM   22  C   UNL     1      -9.757 -16.869 -40.346  1.00  0.00     0.178 C 
HETATM   23  C   UNL     1      -9.120 -12.045 -39.522  1.00  0.00     0.032 A 
ENDBRANCH  11  13
ENDBRANCH   8  11
BRANCH   6  24
HETATM   24  C   UNL     1      -2.763 -13.940 -38.818  1.00  0.00     0.029 A 
HETATM   25  C   UNL     1      -2.922 -14.249 -40.169  1.00  0.00     0.131 A 
HETATM   26  N   UNL     1      -1.911 -14.398 -41.064  1.00  0.00    -0.272 NA
HETATM   27  C   UNL     1      -0.658 -14.234 -40.593  1.00  0.00     0.116 A 
HETATM   28  C   UNL     1      -0.372 -13.927 -39.275  1.00  0.00     0.020 A 
HETATM   29  C   UNL     1      -1.436 -13.778 -38.385  1.00  0.00     0.018 A 
ENDBRANCH   6  24
TORSDOF 3
ENDMDL
MODEL 9
REMARK VINA RESULT:      -8.3      1.765      2.332
REMARK  3 active torsions:
REMARK  status: ('A' for Active; 'I' for Inactive)
REMARK    1  A    between atoms: C_6  and  C_7 
REMARK    2  A    between atoms: C_14  and  N_15 
REMARK    3  A    between atoms: N_15  and  C_16 
ROOT
HETATM    1  C   UNL     1      -9.082   4.167 -31.217  1.00  0.00     0.001 A 
HETATM    2  C   UNL     1      -7.882   4.137 -31.923  1.00  0.00     0.018 A 
HETATM    3  C   UNL     1      -7.333   2.908 -32.375  1.00  0.00     0.039 A 
HETATM    4  C   UNL     1      -8.017   1.714 -32.118  1.00  0.00     0.073 A 
HETATM    5  N   UNL     1      -7.572   0.521 -32.526  1.00  0.00    -0.228 NA
HETATM    6  C   UNL     1      -6.419   0.490 -33.213  1.00  0.00     0.164 A 
HETATM    7  N   UNL     1      -5.689   1.574 -33.514  1.00  0.00    -0.210 NA
HETATM    8  C   UNL     1      -6.134   2.771 -33.096  1.00  0.00     0.143 A 
HETATM    9  C   UNL     1      -9.213   1.769 -31.412  1.00  0.00     0.032 A 
HETATM   10  C   UNL     1      -9.749   2.978 -30.959  1.00  0.00     0.002 A 
ENDROOT
BRANCH   8  11
HETATM   11  N   UNL     1      -5.358   3.929 -33.373  1.00  0.00    -0.340 N 
HETATM   12  H   UNL     1      -5.983   4.696 -33.595  1.00  0.00     0.167 HD
BRANCH  11  13
HETATM   13  C   UNL     1      -4.197   4.371 -32.699  1.00  0.00     0.036 A 
HETATM   14  C   UNL     1      -4.326   5.228 -31.596  1.00  0.00     0.069 A 
HETATM   15  C   UNL     1      -3.199   5.752 -30.955  1.00  0.00     0.104 A 
HETATM   16  C   UNL     1      -1.921   5.423 -31.409  1.00  0.00     0.102 A 
HETATM   17  O   UNL     1      -3.428   6.499 -29.831  1.00  0.00    -0.348 OA
HETATM   18  O   UNL     1      -0.774   5.812 -30.776  1.00  0.00    -0.348 OA
HETATM   19  C   UNL     1      -1.776   4.577 -32.505  1.00  0.00     0.042 A 
HETATM   20  C   UNL     1      -0.617   7.231 -30.770  1.00  0.00     0.178 C 
HETATM   21  C   UNL     1      -1.418   7.886 -29.657  1.00  0.00     0.053 C 
HETATM   22  C   UNL     1      -2.909   7.825 -29.947  1.00  0.00     0.178 C 
HETATM   23  C   UNL     1      -2.906   4.079 -33.159  1.00  0.00     0.032 A 
ENDBRANCH  11  13
ENDBRANCH   8  11
BRANCH   6  24
HETATM   24  C   UNL     1      -5.913  -0.814 -33.656  1.00  0.00     0.029 A 
HETATM   25  C   UNL     1      -4.635  -1.263 -33.321  1.00  0.00     0.131 A 
HETATM   26  N   UNL     1      -4.098  -2.454 -33.696  1.00  0.00    -0.272 NA
HETATM   27  C   UNL     1      -4.875  -3.255 -34.453  1.00  0.00     0.116 A 
HETATM   28  C   UNL     1      -6.157  -2.922 -34.849  1.00  0.00     0.020 A 
HETATM   29  C   UNL     1      -6.676  -1.692 -34.445  1.00  0.00     0.018 A 
ENDBRANCH   6  24
TORSDOF 3
ENDMDL
MODEL 10
REMARK VINA RESULT:      -8.3      1.674      2.513
REMARK  3 active torsions:
REMARK  status: ('A' for Active; 'I' for Inactive)
REMARK    1  A    between atoms: C_6  and  C_7 
REMARK    2  A    between atoms: C_14  and  N_15 
REMARK    3  A    between atoms: N_15  and  C_16 
ROOT
HETATM    1  C   UNL     1     -12.476   2.605 -33.197  1.00  0.00     0.001 A 
HETATM    2  C   UNL     1     -11.180   3.083 -33.020  1.00  0.00     0.018 A 
HETATM    3  C   UNL     1     -10.062   2.217 -33.139  1.00  0.00     0.039 A 
HETATM    4  C   UNL     1     -10.267   0.868 -33.454  1.00  0.00     0.073 A 
HETATM    5  N   UNL     1      -9.264  -0.003 -33.599  1.00  0.00    -0.228 NA
HETATM    6  C   UNL     1      -8.014   0.456 -33.437  1.00  0.00     0.164 A 
HETATM    7  N   UNL     1      -7.708   1.727 -33.138  1.00  0.00    -0.210 NA
HETATM    8  C   UNL     1      -8.719   2.600 -32.984  1.00  0.00     0.143 A 
HETATM    9  C   UNL     1     -11.570   0.415 -33.626  1.00  0.00     0.032 A 
HETATM   10  C   UNL     1     -12.672   1.265 -33.499  1.00  0.00     0.002 A 
ENDROOT
BRANCH   8  11
HETATM   11  N   UNL     1      -8.420   3.943 -32.632  1.00  0.00    -0.340 N 
HETATM   12  H   UNL     1      -9.038   4.231 -31.881  1.00  0.00     0.167 HD
BRANCH  11  13
HETATM   13  C   UNL     1      -7.145   4.545 -32.526  1.00  0.00     0.036 A 
HETATM   14  C   UNL     1      -6.441   4.874 -33.694  1.00  0.00     0.069 A 
HETATM   15  C   UNL     1      -5.144   5.393 -33.631  1.00  0.00     0.104 A 
HETATM   16  C   UNL     1      -4.532   5.595 -32.393  1.00  0.00     0.102 A 
HETATM   17  O   UNL     1      -4.579   5.771 -34.819  1.00  0.00    -0.348 OA
HETATM   18  O   UNL     1      -3.311   6.191 -32.246  1.00  0.00    -0.348 OA
HETATM   19  C   UNL     1      -5.215   5.270 -31.225  1.00  0.00     0.042 A 
HETATM   20  C   UNL     1      -2.265   5.435 -32.857  1.00  0.00     0.178 C 
HETATM   21  C   UNL     1      -2.177   5.694 -34.352  1.00  0.00     0.053 C 
HETATM   22  C   UNL     1      -3.359   5.078 -35.085  1.00  0.00     0.178 C 
HETATM   23  C   UNL     1      -6.500   4.724 -31.295  1.00  0.00     0.032 A 
ENDBRANCH  11  13
ENDBRANCH   8  11
BRANCH   6  24
HETATM   24  C   UNL     1      -6.904  -0.493 -33.582  1.00  0.00     0.029 A 
HETATM   25  C   UNL     1      -5.824  -0.507 -32.699  1.00  0.00     0.131 A 
HETATM   26  N   UNL     1      -4.762  -1.353 -32.771  1.00  0.00    -0.272 NA
HETATM   27  C   UNL     1      -4.766  -2.242 -33.784  1.00  0.00     0.116 A 
HETATM   28  C   UNL     1      -5.779  -2.327 -34.722  1.00  0.00     0.020 A 
HETATM   29  C   UNL     1      -6.854  -1.445 -34.615  1.00  0.00     0.018 A 
ENDBRANCH   6  24
TORSDOF 3
ENDMDL
