MODEL 1
REMARK VINA RESULT:      -9.3      0.000      0.000
REMARK  6 active torsions:
REMARK  status: ('A' for Active; 'I' for Inactive)
REMARK    1  A    between atoms: C_2  and  C_3 
REMARK       I    between atoms: C_3  and  N_4 
REMARK    2  A    between atoms: N_4  and  C_5 
REMARK    3  A    between atoms: C_8  and  N_9 
REMARK       I    between atoms: N_9  and  C_10 
REMARK    4  A    between atoms: C_10  and  C_11 
REMARK    5  A    between atoms: C_16  and  C_17 
REMARK    6  A    between atoms: C_23  and  C_24 
ROOT
HETATM    1  C   UNL     1      -4.116   3.549 -32.093  1.00  0.00     0.148 C 
HETATM    2  N   UNL     1      -2.922   3.552 -32.733  1.00  0.00    -0.165 NA
HETATM    3  N   UNL     1      -2.378   4.719 -32.350  1.00  0.00    -0.240 N 
HETATM    4  C   UNL     1      -3.066   5.358 -31.362  1.00  0.00     0.123 C 
HETATM    5  N   UNL     1      -2.544   6.433 -30.742  1.00  0.00    -0.364 N 
HETATM    6  C   UNL     1      -1.122   6.797 -30.840  1.00  0.00     0.143 C 
HETATM    7  C   UNL     1      -0.312   5.753 -31.647  1.00  0.00     0.068 C 
HETATM    8  C   UNL     1      -1.092   5.179 -32.833  1.00  0.00     0.221 C 
HETATM    9  C   UNL     1      -4.250   4.680 -31.239  1.00  0.00     0.089 C 
HETATM   10  H   UNL     1      -3.063   6.930 -30.019  1.00  0.00     0.162 HD
ENDROOT
BRANCH   1  11
HETATM   11  C   UNL     1      -5.083   2.449 -32.265  1.00  0.00     0.276 C 
HETATM   12  N   UNL     1      -6.369   2.930 -32.406  1.00  0.00    -0.322 N 
HETATM   13  H   UNL     1      -6.418   3.945 -32.415  1.00  0.00     0.169 HD
HETATM   14  O   UNL     1      -4.725   1.278 -32.317  1.00  0.00    -0.266 OA
BRANCH  12  15
HETATM   15  C   UNL     1      -7.561   2.208 -32.561  1.00  0.00     0.035 A 
HETATM   16  C   UNL     1      -8.124   1.417 -31.564  1.00  0.00     0.032 A 
HETATM   17  C   UNL     1      -9.348   0.766 -31.778  1.00  0.00     0.032 A 
HETATM   18  C   UNL     1     -10.010   0.879 -32.999  1.00  0.00     0.034 A 
HETATM   19  C   UNL     1      -9.425   1.648 -34.011  1.00  0.00     0.032 A 
HETATM   20  C   UNL     1      -8.220   2.322 -33.788  1.00  0.00     0.032 A 
BRANCH  18  21
HETATM   21  N   UNL     1     -11.247   0.269 -33.292  1.00  0.00    -0.327 N 
HETATM   22  C   UNL     1     -12.451   0.896 -33.552  1.00  0.00     0.221 C 
HETATM   23  O   UNL     1     -12.661   2.105 -33.548  1.00  0.00    -0.273 OA
HETATM   24  H   UNL     1     -11.229  -0.738 -33.372  1.00  0.00     0.169 HD
BRANCH  22  25
HETATM   25  C   UNL     1     -13.588  -0.077 -33.827  1.00  0.00     0.098 C 
HETATM   26  C   UNL     1     -14.881   0.600 -34.249  1.00  0.00     0.014 C 
ENDBRANCH  22  25
ENDBRANCH  18  21
ENDBRANCH  12  15
ENDBRANCH   1  11
BRANCH   8  27
HETATM   27  C   UNL     1      -1.280   6.175 -33.954  1.00  0.00     0.409 C 
HETATM   28  F   UNL     1      -2.580   6.497 -34.139  1.00  0.00    -0.169 F 
HETATM   29  F   UNL     1      -0.590   7.321 -33.785  1.00  0.00    -0.169 F 
HETATM   30  F   UNL     1      -0.848   5.632 -35.123  1.00  0.00    -0.169 F 
ENDBRANCH   8  27
BRANCH   6  31
HETATM   31  C   UNL     1      -0.479   6.960 -29.495  1.00  0.00     0.075 A 
HETATM   32  O   UNL     1      -1.232   6.633 -28.406  1.00  0.00    -0.325 OA
HETATM   33  C   UNL     1      -0.472   6.889 -27.309  1.00  0.00     0.142 A 
HETATM   34  C   UNL     1       0.758   7.381 -27.677  1.00  0.00     0.027 A 
HETATM   35  C   UNL     1       0.756   7.428 -29.091  1.00  0.00     0.037 A 
ENDBRANCH   6  31
TORSDOF 6
ENDMDL
MODEL 2
REMARK VINA RESULT:      -8.5      3.182     10.790
REMARK  6 active torsions:
REMARK  status: ('A' for Active; 'I' for Inactive)
REMARK    1  A    between atoms: C_2  and  C_3 
REMARK       I    between atoms: C_3  and  N_4 
REMARK    2  A    between atoms: N_4  and  C_5 
REMARK    3  A    between atoms: C_8  and  N_9 
REMARK       I    between atoms: N_9  and  C_10 
REMARK    4  A    between atoms: C_10  and  C_11 
REMARK    5  A    between atoms: C_16  and  C_17 
REMARK    6  A    between atoms: C_23  and  C_24 
ROOT
HETATM    1  C   UNL     1      -6.226   3.658 -32.682  1.00  0.00     0.148 C 
HETATM    2  N   UNL     1      -6.032   2.737 -33.657  1.00  0.00    -0.165 NA
HETATM    3  N   UNL     1      -7.043   1.875 -33.464  1.00  0.00    -0.240 N 
HETATM    4  C   UNL     1      -7.970   2.297 -32.557  1.00  0.00     0.123 C 
HETATM    5  N   UNL     1      -9.133   1.637 -32.402  1.00  0.00    -0.364 N 
HETATM    6  C   UNL     1      -9.625   0.650 -33.375  1.00  0.00     0.143 C 
HETATM    7  C   UNL     1      -8.701   0.548 -34.613  1.00  0.00     0.068 C 
HETATM    8  C   UNL     1      -7.216   0.680 -34.263  1.00  0.00     0.221 C 
HETATM    9  C   UNL     1      -7.424   3.400 -31.957  1.00  0.00     0.089 C 
HETATM   10  H   UNL     1      -9.820   1.932 -31.708  1.00  0.00     0.162 HD
ENDROOT
BRANCH   1  11
HETATM   11  C   UNL     1      -5.301   4.790 -32.491  1.00  0.00     0.276 C 
HETATM   12  N   UNL     1      -4.549   4.635 -31.344  1.00  0.00    -0.322 N 
HETATM   13  H   UNL     1      -4.727   3.757 -30.864  1.00  0.00     0.169 HD
HETATM   14  O   UNL     1      -5.219   5.701 -33.307  1.00  0.00    -0.266 OA
BRANCH  12  15
HETATM   15  C   UNL     1      -3.587   5.501 -30.805  1.00  0.00     0.035 A 
HETATM   16  C   UNL     1      -3.880   6.527 -29.912  1.00  0.00     0.032 A 
HETATM   17  C   UNL     1      -2.854   7.319 -29.375  1.00  0.00     0.032 A 
HETATM   18  C   UNL     1      -1.527   7.109 -29.744  1.00  0.00     0.034 A 
HETATM   19  C   UNL     1      -1.238   6.099 -30.667  1.00  0.00     0.032 A 
HETATM   20  C   UNL     1      -2.257   5.289 -31.180  1.00  0.00     0.032 A 
BRANCH  18  21
HETATM   21  N   UNL     1      -0.436   7.850 -29.245  1.00  0.00    -0.327 N 
HETATM   22  C   UNL     1       0.471   7.459 -28.278  1.00  0.00     0.221 C 
HETATM   23  O   UNL     1       0.472   6.398 -27.663  1.00  0.00    -0.273 OA
HETATM   24  H   UNL     1      -0.277   8.745 -29.687  1.00  0.00     0.169 HD
BRANCH  22  25
HETATM   25  C   UNL     1       1.524   8.517 -27.979  1.00  0.00     0.098 C 
HETATM   26  C   UNL     1       1.932   8.573 -26.517  1.00  0.00     0.014 C 
ENDBRANCH  22  25
ENDBRANCH  18  21
ENDBRANCH  12  15
ENDBRANCH   1  11
BRANCH   8  27
HETATM   27  C   UNL     1      -6.674  -0.524 -33.527  1.00  0.00     0.409 C 
HETATM   28  F   UNL     1      -5.406  -0.817 -33.892  1.00  0.00    -0.169 F 
HETATM   29  F   UNL     1      -6.699  -0.398 -32.185  1.00  0.00    -0.169 F 
HETATM   30  F   UNL     1      -7.424  -1.616 -33.827  1.00  0.00    -0.169 F 
ENDBRANCH   8  27
BRANCH   6  31
HETATM   31  C   UNL     1     -11.016   0.953 -33.845  1.00  0.00     0.075 A 
HETATM   32  O   UNL     1     -12.008   0.117 -33.422  1.00  0.00    -0.325 OA
HETATM   33  C   UNL     1     -13.162   0.555 -33.991  1.00  0.00     0.142 A 
HETATM   34  C   UNL     1     -12.926   1.658 -34.778  1.00  0.00     0.027 A 
HETATM   35  C   UNL     1     -11.539   1.918 -34.685  1.00  0.00     0.037 A 
ENDBRANCH   6  31
TORSDOF 6
ENDMDL
MODEL 3
REMARK VINA RESULT:      -8.2      5.900      8.674
REMARK  6 active torsions:
REMARK  status: ('A' for Active; 'I' for Inactive)
REMARK    1  A    between atoms: C_2  and  C_3 
REMARK       I    between atoms: C_3  and  N_4 
REMARK    2  A    between atoms: N_4  and  C_5 
REMARK    3  A    between atoms: C_8  and  N_9 
REMARK       I    between atoms: N_9  and  C_10 
REMARK    4  A    between atoms: C_10  and  C_11 
REMARK    5  A    between atoms: C_16  and  C_17 
REMARK    6  A    between atoms: C_23  and  C_24 
ROOT
HETATM    1  C   UNL     1     -10.816   1.150 -33.743  1.00  0.00     0.148 C 
HETATM    2  N   UNL     1      -9.876   1.780 -34.489  1.00  0.00    -0.165 NA
HETATM    3  N   UNL     1      -8.732   1.208 -34.080  1.00  0.00    -0.240 N 
HETATM    4  C   UNL     1      -8.909   0.127 -33.266  1.00  0.00     0.123 C 
HETATM    5  N   UNL     1      -7.870  -0.663 -32.935  1.00  0.00    -0.364 N 
HETATM    6  C   UNL     1      -6.583  -0.628 -33.647  1.00  0.00     0.143 C 
HETATM    7  C   UNL     1      -6.616   0.341 -34.854  1.00  0.00     0.068 C 
HETATM    8  C   UNL     1      -7.435   1.607 -34.582  1.00  0.00     0.221 C 
HETATM    9  C   UNL     1     -10.240   0.120 -32.946  1.00  0.00     0.089 C 
HETATM   10  H   UNL     1      -7.989  -1.458 -32.309  1.00  0.00     0.162 HD
ENDROOT
BRANCH   1  11
HETATM   11  C   UNL     1     -12.244   1.503 -33.837  1.00  0.00     0.276 C 
HETATM   12  N   UNL     1     -12.612   2.377 -32.833  1.00  0.00    -0.322 N 
HETATM   13  H   UNL     1     -11.834   2.658 -32.242  1.00  0.00     0.169 HD
HETATM   14  O   UNL     1     -12.954   1.082 -34.744  1.00  0.00    -0.266 OA
BRANCH  12  15
HETATM   15  C   UNL     1     -13.877   2.919 -32.567  1.00  0.00     0.035 A 
HETATM   16  C   UNL     1     -15.004   2.155 -32.275  1.00  0.00     0.032 A 
HETATM   17  C   UNL     1     -16.224   2.775 -31.967  1.00  0.00     0.032 A 
HETATM   18  C   UNL     1     -16.337   4.164 -31.971  1.00  0.00     0.034 A 
HETATM   19  C   UNL     1     -15.212   4.929 -32.296  1.00  0.00     0.032 A 
HETATM   20  C   UNL     1     -13.987   4.313 -32.574  1.00  0.00     0.032 A 
BRANCH  18  21
HETATM   21  N   UNL     1     -17.520   4.866 -31.662  1.00  0.00    -0.327 N 
HETATM   22  C   UNL     1     -17.725   5.747 -30.615  1.00  0.00     0.221 C 
HETATM   23  O   UNL     1     -16.911   6.055 -29.751  1.00  0.00    -0.273 OA
HETATM   24  H   UNL     1     -18.282   4.746 -32.315  1.00  0.00     0.169 HD
BRANCH  22  25
HETATM   25  C   UNL     1     -19.133   6.322 -30.582  1.00  0.00     0.098 C 
HETATM   26  C   UNL     1     -19.490   7.132 -31.816  1.00  0.00     0.014 C 
ENDBRANCH  22  25
ENDBRANCH  18  21
ENDBRANCH  12  15
ENDBRANCH   1  11
BRANCH   8  27
HETATM   27  C   UNL     1      -6.762   2.547 -33.608  1.00  0.00     0.409 C 
HETATM   28  F   UNL     1      -7.470   2.691 -32.466  1.00  0.00    -0.169 F 
HETATM   29  F   UNL     1      -5.509   2.179 -33.274  1.00  0.00    -0.169 F 
HETATM   30  F   UNL     1      -6.667   3.784 -34.162  1.00  0.00    -0.169 F 
ENDBRANCH   8  27
BRANCH   6  31
HETATM   31  C   UNL     1      -6.162  -1.981 -34.136  1.00  0.00     0.075 A 
HETATM   32  O   UNL     1      -4.822  -2.229 -34.190  1.00  0.00    -0.325 OA
HETATM   33  C   UNL     1      -4.672  -3.484 -34.689  1.00  0.00     0.142 A 
HETATM   34  C   UNL     1      -5.898  -4.045 -34.963  1.00  0.00     0.027 A 
HETATM   35  C   UNL     1      -6.863  -3.075 -34.605  1.00  0.00     0.037 A 
ENDBRANCH   6  31
TORSDOF 6
ENDMDL
MODEL 4
REMARK VINA RESULT:      -8.0      1.515      1.663
REMARK  6 active torsions:
REMARK  status: ('A' for Active; 'I' for Inactive)
REMARK    1  A    between atoms: C_2  and  C_3 
REMARK       I    between atoms: C_3  and  N_4 
REMARK    2  A    between atoms: N_4  and  C_5 
REMARK    3  A    between atoms: C_8  and  N_9 
REMARK       I    between atoms: N_9  and  C_10 
REMARK    4  A    between atoms: C_10  and  C_11 
REMARK    5  A    between atoms: C_16  and  C_17 
REMARK    6  A    between atoms: C_23  and  C_24 
ROOT
HETATM    1  C   UNL     1      -4.509   4.565 -31.453  1.00  0.00     0.148 C 
HETATM    2  N   UNL     1      -3.372   4.257 -32.124  1.00  0.00    -0.165 NA
HETATM    3  N   UNL     1      -2.555   5.277 -31.817  1.00  0.00    -0.240 N 
HETATM    4  C   UNL     1      -3.036   6.105 -30.845  1.00  0.00     0.123 C 
HETATM    5  N   UNL     1      -2.252   7.052 -30.296  1.00  0.00    -0.364 N 
HETATM    6  C   UNL     1      -0.789   7.064 -30.451  1.00  0.00     0.143 C 
HETATM    7  C   UNL     1      -0.278   5.823 -31.224  1.00  0.00     0.068 C 
HETATM    8  C   UNL     1      -1.217   5.398 -32.357  1.00  0.00     0.221 C 
HETATM    9  C   UNL     1      -4.340   5.733 -30.656  1.00  0.00     0.089 C 
HETATM   10  H   UNL     1      -2.612   7.690 -29.587  1.00  0.00     0.162 HD
ENDROOT
BRANCH   1  11
HETATM   11  C   UNL     1      -5.713   3.719 -31.542  1.00  0.00     0.276 C 
HETATM   12  N   UNL     1      -6.842   4.477 -31.781  1.00  0.00    -0.322 N 
HETATM   13  H   UNL     1      -6.641   5.467 -31.901  1.00  0.00     0.169 HD
HETATM   14  O   UNL     1      -5.651   2.498 -31.455  1.00  0.00    -0.266 OA
BRANCH  12  15
HETATM   15  C   UNL     1      -8.172   4.051 -31.901  1.00  0.00     0.035 A 
HETATM   16  C   UNL     1      -8.951   3.627 -30.829  1.00  0.00     0.032 A 
HETATM   17  C   UNL     1     -10.293   3.266 -31.023  1.00  0.00     0.032 A 
HETATM   18  C   UNL     1     -10.862   3.301 -32.294  1.00  0.00     0.034 A 
HETATM   19  C   UNL     1     -10.067   3.696 -33.375  1.00  0.00     0.032 A 
HETATM   20  C   UNL     1      -8.739   4.085 -33.179  1.00  0.00     0.032 A 
BRANCH  18  21
HETATM   21  N   UNL     1     -12.203   2.966 -32.574  1.00  0.00    -0.327 N 
HETATM   22  C   UNL     1     -12.664   1.883 -33.299  1.00  0.00     0.221 C 
HETATM   23  O   UNL     1     -11.978   1.030 -33.852  1.00  0.00    -0.273 OA
HETATM   24  H   UNL     1     -12.900   3.561 -32.147  1.00  0.00     0.169 HD
BRANCH  22  25
HETATM   25  C   UNL     1     -14.181   1.833 -33.405  1.00  0.00     0.098 C 
HETATM   26  C   UNL     1     -14.895   2.293 -32.147  1.00  0.00     0.014 C 
ENDBRANCH  22  25
ENDBRANCH  18  21
ENDBRANCH  12  15
ENDBRANCH   1  11
BRANCH   8  27
HETATM   27  C   UNL     1      -1.208   6.359 -33.523  1.00  0.00     0.409 C 
HETATM   28  F   UNL     1      -0.923   5.743 -34.691  1.00  0.00    -0.169 F 
HETATM   29  F   UNL     1      -2.365   7.032 -33.683  1.00  0.00    -0.169 F 
HETATM   30  F   UNL     1      -0.240   7.294 -33.334  1.00  0.00    -0.169 F 
ENDBRANCH   8  27
BRANCH   6  31
HETATM   31  C   UNL     1      -0.075   7.130 -29.134  1.00  0.00     0.075 A 
HETATM   32  O   UNL     1      -0.510   6.288 -28.153  1.00  0.00    -0.325 OA
HETATM   33  C   UNL     1       0.247   6.541 -27.053  1.00  0.00     0.142 A 
HETATM   34  C   UNL     1       1.159   7.537 -27.310  1.00  0.00     0.027 A 
HETATM   35  C   UNL     1       0.953   7.920 -28.657  1.00  0.00     0.037 A 
ENDBRANCH   6  31
TORSDOF 6
ENDMDL
MODEL 5
REMARK VINA RESULT:      -7.9      3.646      4.424
REMARK  6 active torsions:
REMARK  status: ('A' for Active; 'I' for Inactive)
REMARK    1  A    between atoms: C_2  and  C_3 
REMARK       I    between atoms: C_3  and  N_4 
REMARK    2  A    between atoms: N_4  and  C_5 
REMARK    3  A    between atoms: C_8  and  N_9 
REMARK       I    between atoms: N_9  and  C_10 
REMARK    4  A    between atoms: C_10  and  C_11 
REMARK    5  A    between atoms: C_16  and  C_17 
REMARK    6  A    between atoms: C_23  and  C_24 
ROOT
HETATM    1  C   UNL     1      -4.189   4.649 -30.853  1.00  0.00     0.148 C 
HETATM    2  N   UNL     1      -2.941   4.911 -31.310  1.00  0.00    -0.165 NA
HETATM    3  N   UNL     1      -2.722   6.166 -30.889  1.00  0.00    -0.240 N 
HETATM    4  C   UNL     1      -3.671   6.641 -30.032  1.00  0.00     0.123 C 
HETATM    5  N   UNL     1      -3.489   7.803 -29.377  1.00  0.00    -0.364 N 
HETATM    6  C   UNL     1      -2.180   8.465 -29.276  1.00  0.00     0.143 C 
HETATM    7  C   UNL     1      -1.053   7.621 -29.922  1.00  0.00     0.068 C 
HETATM    8  C   UNL     1      -1.506   6.893 -31.191  1.00  0.00     0.221 C 
HETATM    9  C   UNL     1      -4.688   5.725 -30.064  1.00  0.00     0.089 C 
HETATM   10  H   UNL     1      -4.205   8.176 -28.754  1.00  0.00     0.162 HD
ENDROOT
BRANCH   1  11
HETATM   11  C   UNL     1      -4.863   3.367 -31.131  1.00  0.00     0.276 C 
HETATM   12  N   UNL     1      -4.175   2.635 -32.078  1.00  0.00    -0.322 N 
HETATM   13  H   UNL     1      -3.311   3.079 -32.377  1.00  0.00     0.169 HD
HETATM   14  O   UNL     1      -5.876   3.028 -30.531  1.00  0.00    -0.266 OA
BRANCH  12  15
HETATM   15  C   UNL     1      -4.504   1.388 -32.627  1.00  0.00     0.035 A 
HETATM   16  C   UNL     1      -5.645   1.152 -33.389  1.00  0.00     0.032 A 
HETATM   17  C   UNL     1      -5.878  -0.113 -33.948  1.00  0.00     0.032 A 
HETATM   18  C   UNL     1      -4.986  -1.162 -33.733  1.00  0.00     0.034 A 
HETATM   19  C   UNL     1      -3.857  -0.931 -32.939  1.00  0.00     0.032 A 
HETATM   20  C   UNL     1      -3.609   0.337 -32.406  1.00  0.00     0.032 A 
BRANCH  18  21
HETATM   21  N   UNL     1      -5.138  -2.458 -34.267  1.00  0.00    -0.327 N 
HETATM   22  C   UNL     1      -6.321  -3.136 -34.499  1.00  0.00     0.221 C 
HETATM   23  O   UNL     1      -7.453  -2.734 -34.255  1.00  0.00    -0.273 OA
HETATM   24  H   UNL     1      -4.285  -2.912 -34.560  1.00  0.00     0.169 HD
BRANCH  22  25
HETATM   25  C   UNL     1      -6.112  -4.525 -35.085  1.00  0.00     0.098 C 
HETATM   26  C   UNL     1      -4.901  -5.248 -34.521  1.00  0.00     0.014 C 
ENDBRANCH  22  25
ENDBRANCH  18  21
ENDBRANCH  12  15
ENDBRANCH   1  11
BRANCH   8  27
HETATM   27  C   UNL     1      -1.731   7.826 -32.359  1.00  0.00     0.409 C 
HETATM   28  F   UNL     1      -1.662   9.126 -31.994  1.00  0.00    -0.169 F 
HETATM   29  F   UNL     1      -0.872   7.637 -33.380  1.00  0.00    -0.169 F 
HETATM   30  F   UNL     1      -2.979   7.633 -32.862  1.00  0.00    -0.169 F 
ENDBRANCH   8  27
BRANCH   6  31
HETATM   31  C   UNL     1      -1.795   8.761 -27.857  1.00  0.00     0.075 A 
HETATM   32  O   UNL     1      -1.866   7.728 -26.969  1.00  0.00    -0.325 OA
HETATM   33  C   UNL     1      -1.512   8.226 -25.755  1.00  0.00     0.142 A 
HETATM   34  C   UNL     1      -1.221   9.567 -25.848  1.00  0.00     0.027 A 
HETATM   35  C   UNL     1      -1.403   9.915 -27.207  1.00  0.00     0.037 A 
ENDBRANCH   6  31
TORSDOF 6
ENDMDL
MODEL 6
REMARK VINA RESULT:      -7.7      3.995      4.691
REMARK  6 active torsions:
REMARK  status: ('A' for Active; 'I' for Inactive)
REMARK    1  A    between atoms: C_2  and  C_3 
REMARK       I    between atoms: C_3  and  N_4 
REMARK    2  A    between atoms: N_4  and  C_5 
REMARK    3  A    between atoms: C_8  and  N_9 
REMARK       I    between atoms: N_9  and  C_10 
REMARK    4  A    between atoms: C_10  and  C_11 
REMARK    5  A    between atoms: C_16  and  C_17 
REMARK    6  A    between atoms: C_23  and  C_24 
ROOT
HETATM    1  C   UNL     1      -3.868   5.634 -31.833  1.00  0.00     0.148 C 
HETATM    2  N   UNL     1      -3.802   6.923 -32.248  1.00  0.00    -0.165 NA
HETATM    3  N   UNL     1      -3.494   7.587 -31.122  1.00  0.00    -0.240 N 
HETATM    4  C   UNL     1      -3.173   6.781 -30.069  1.00  0.00     0.123 C 
HETATM    5  N   UNL     1      -2.657   7.298 -28.937  1.00  0.00    -0.364 N 
HETATM    6  C   UNL     1      -2.114   8.663 -28.860  1.00  0.00     0.143 C 
HETATM    7  C   UNL     1      -2.125   9.369 -30.238  1.00  0.00     0.068 C 
HETATM    8  C   UNL     1      -3.361   9.028 -31.074  1.00  0.00     0.221 C 
HETATM    9  C   UNL     1      -3.501   5.511 -30.463  1.00  0.00     0.089 C 
HETATM   10  H   UNL     1      -2.438   6.705 -28.138  1.00  0.00     0.162 HD
ENDROOT
BRANCH   1  11
HETATM   11  C   UNL     1      -4.229   4.542 -32.755  1.00  0.00     0.276 C 
HETATM   12  N   UNL     1      -5.028   3.604 -32.132  1.00  0.00    -0.322 N 
HETATM   13  H   UNL     1      -5.264   3.851 -31.175  1.00  0.00     0.169 HD
HETATM   14  O   UNL     1      -3.877   4.546 -33.929  1.00  0.00    -0.266 OA
BRANCH  12  15
HETATM   15  C   UNL     1      -5.552   2.414 -32.658  1.00  0.00     0.035 A 
HETATM   16  C   UNL     1      -6.260   2.340 -33.854  1.00  0.00     0.032 A 
HETATM   17  C   UNL     1      -6.707   1.103 -34.341  1.00  0.00     0.032 A 
HETATM   18  C   UNL     1      -6.471  -0.070 -33.626  1.00  0.00     0.034 A 
HETATM   19  C   UNL     1      -5.788   0.011 -32.409  1.00  0.00     0.032 A 
HETATM   20  C   UNL     1      -5.316   1.240 -31.937  1.00  0.00     0.032 A 
BRANCH  18  21
HETATM   21  N   UNL     1      -6.875  -1.353 -34.050  1.00  0.00    -0.327 N 
HETATM   22  C   UNL     1      -6.065  -2.389 -34.478  1.00  0.00     0.221 C 
HETATM   23  O   UNL     1      -4.843  -2.363 -34.589  1.00  0.00    -0.273 OA
HETATM   24  H   UNL     1      -7.864  -1.546 -33.977  1.00  0.00     0.169 HD
BRANCH  22  25
HETATM   25  C   UNL     1      -6.842  -3.639 -34.864  1.00  0.00     0.098 C 
HETATM   26  C   UNL     1      -5.979  -4.884 -34.970  1.00  0.00     0.014 C 
ENDBRANCH  22  25
ENDBRANCH  18  21
ENDBRANCH  12  15
ENDBRANCH   1  11
BRANCH   8  27
HETATM   27  C   UNL     1      -4.629   9.652 -30.536  1.00  0.00     0.409 C 
HETATM   28  F   UNL     1      -5.464  10.045 -31.523  1.00  0.00    -0.169 F 
HETATM   29  F   UNL     1      -5.321   8.847 -29.705  1.00  0.00    -0.169 F 
HETATM   30  F   UNL     1      -4.319  10.769 -29.825  1.00  0.00    -0.169 F 
ENDBRANCH   8  27
BRANCH   6  31
HETATM   31  C   UNL     1      -0.714   8.692 -28.323  1.00  0.00     0.075 A 
HETATM   32  O   UNL     1      -0.444   9.613 -27.354  1.00  0.00    -0.325 OA
HETATM   33  C   UNL     1       0.874   9.486 -27.046  1.00  0.00     0.142 A 
HETATM   34  C   UNL     1       1.456   8.500 -27.807  1.00  0.00     0.027 A 
HETATM   35  C   UNL     1       0.431   7.985 -28.634  1.00  0.00     0.037 A 
ENDBRANCH   6  31
TORSDOF 6
ENDMDL
MODEL 7
REMARK VINA RESULT:      -7.7      3.524      5.212
REMARK  6 active torsions:
REMARK  status: ('A' for Active; 'I' for Inactive)
REMARK    1  A    between atoms: C_2  and  C_3 
REMARK       I    between atoms: C_3  and  N_4 
REMARK    2  A    between atoms: N_4  and  C_5 
REMARK    3  A    between atoms: C_8  and  N_9 
REMARK       I    between atoms: N_9  and  C_10 
REMARK    4  A    between atoms: C_10  and  C_11 
REMARK    5  A    between atoms: C_16  and  C_17 
REMARK    6  A    between atoms: C_23  and  C_24 
ROOT
HETATM    1  C   UNL     1      -7.786   1.551 -32.590  1.00  0.00     0.148 C 
HETATM    2  N   UNL     1      -6.981   0.773 -31.826  1.00  0.00    -0.165 NA
HETATM    3  N   UNL     1      -5.751   1.205 -32.146  1.00  0.00    -0.240 N 
HETATM    4  C   UNL     1      -5.738   2.332 -32.916  1.00  0.00     0.123 C 
HETATM    5  N   UNL     1      -4.588   2.991 -33.153  1.00  0.00    -0.364 N 
HETATM    6  C   UNL     1      -3.361   2.759 -32.377  1.00  0.00     0.143 C 
HETATM    7  C   UNL     1      -3.589   1.755 -31.220  1.00  0.00     0.068 C 
HETATM    8  C   UNL     1      -4.547   0.620 -31.595  1.00  0.00     0.221 C 
HETATM    9  C   UNL     1      -7.036   2.527 -33.306  1.00  0.00     0.089 C 
HETATM   10  H   UNL     1      -4.567   3.819 -33.747  1.00  0.00     0.162 HD
ENDROOT
BRANCH   1  11
HETATM   11  C   UNL     1      -9.251   1.385 -32.588  1.00  0.00     0.276 C 
HETATM   12  N   UNL     1      -9.891   2.579 -32.854  1.00  0.00    -0.322 N 
HETATM   13  H   UNL     1      -9.249   3.342 -33.050  1.00  0.00     0.169 HD
HETATM   14  O   UNL     1      -9.776   0.291 -32.415  1.00  0.00    -0.266 OA
BRANCH  12  15
HETATM   15  C   UNL     1     -11.267   2.839 -32.911  1.00  0.00     0.035 A 
HETATM   16  C   UNL     1     -12.117   2.315 -33.881  1.00  0.00     0.032 A 
HETATM   17  C   UNL     1     -13.494   2.579 -33.840  1.00  0.00     0.032 A 
HETATM   18  C   UNL     1     -14.033   3.390 -32.842  1.00  0.00     0.034 A 
HETATM   19  C   UNL     1     -13.172   3.942 -31.888  1.00  0.00     0.032 A 
HETATM   20  C   UNL     1     -11.804   3.655 -31.911  1.00  0.00     0.032 A 
BRANCH  18  21
HETATM   21  N   UNL     1     -15.404   3.695 -32.721  1.00  0.00    -0.327 N 
HETATM   22  C   UNL     1     -16.384   2.930 -32.116  1.00  0.00     0.221 C 
HETATM   23  O   UNL     1     -16.234   1.830 -31.596  1.00  0.00    -0.273 OA
HETATM   24  H   UNL     1     -15.682   4.601 -33.072  1.00  0.00     0.169 HD
BRANCH  22  25
HETATM   25  C   UNL     1     -17.764   3.568 -32.172  1.00  0.00     0.098 C 
HETATM   26  C   UNL     1     -17.761   5.055 -31.860  1.00  0.00     0.014 C 
ENDBRANCH  22  25
ENDBRANCH  18  21
ENDBRANCH  12  15
ENDBRANCH   1  11
BRANCH   8  27
HETATM   27  C   UNL     1      -3.945  -0.361 -32.575  1.00  0.00     0.409 C 
HETATM   28  F   UNL     1      -3.964  -1.628 -32.107  1.00  0.00    -0.169 F 
HETATM   29  F   UNL     1      -4.543  -0.358 -33.784  1.00  0.00    -0.169 F 
HETATM   30  F   UNL     1      -2.640  -0.048 -32.789  1.00  0.00    -0.169 F 
ENDBRANCH   8  27
BRANCH   6  31
HETATM   31  C   UNL     1      -2.798   4.024 -31.802  1.00  0.00     0.075 A 
HETATM   32  O   UNL     1      -1.439   4.142 -31.781  1.00  0.00    -0.325 OA
HETATM   33  C   UNL     1      -1.156   5.335 -31.194  1.00  0.00     0.142 A 
HETATM   34  C   UNL     1      -2.314   5.983 -30.832  1.00  0.00     0.027 A 
HETATM   35  C   UNL     1      -3.377   5.138 -31.225  1.00  0.00     0.037 A 
ENDBRANCH   6  31
TORSDOF 6
ENDMDL
MODEL 8
REMARK VINA RESULT:      -7.7      4.792      7.309
REMARK  6 active torsions:
REMARK  status: ('A' for Active; 'I' for Inactive)
REMARK    1  A    between atoms: C_2  and  C_3 
REMARK       I    between atoms: C_3  and  N_4 
REMARK    2  A    between atoms: N_4  and  C_5 
REMARK    3  A    between atoms: C_8  and  N_9 
REMARK       I    between atoms: N_9  and  C_10 
REMARK    4  A    between atoms: C_10  and  C_11 
REMARK    5  A    between atoms: C_16  and  C_17 
REMARK    6  A    between atoms: C_23  and  C_24 
ROOT
HETATM    1  C   UNL     1      -7.025   2.388 -33.310  1.00  0.00     0.148 C 
HETATM    2  N   UNL     1      -5.682   2.563 -33.348  1.00  0.00    -0.165 NA
HETATM    3  N   UNL     1      -5.214   1.423 -32.816  1.00  0.00    -0.240 N 
HETATM    4  C   UNL     1      -6.165   0.464 -32.624  1.00  0.00     0.123 C 
HETATM    5  N   UNL     1      -5.820  -0.792 -32.283  1.00  0.00    -0.364 N 
HETATM    6  C   UNL     1      -4.445  -1.301 -32.403  1.00  0.00     0.143 C 
HETATM    7  C   UNL     1      -3.497  -0.260 -33.048  1.00  0.00     0.068 C 
HETATM    8  C   UNL     1      -3.802   1.176 -32.612  1.00  0.00     0.221 C 
HETATM    9  C   UNL     1      -7.365   1.088 -32.839  1.00  0.00     0.089 C 
HETATM   10  H   UNL     1      -6.527  -1.506 -32.114  1.00  0.00     0.162 HD
ENDROOT
BRANCH   1  11
HETATM   11  C   UNL     1      -7.955   3.437 -33.766  1.00  0.00     0.276 C 
HETATM   12  N   UNL     1      -9.270   3.045 -33.607  1.00  0.00    -0.322 N 
HETATM   13  H   UNL     1      -9.366   2.135 -33.164  1.00  0.00     0.169 HD
HETATM   14  O   UNL     1      -7.555   4.519 -34.180  1.00  0.00    -0.266 OA
BRANCH  12  15
HETATM   15  C   UNL     1     -10.437   3.743 -33.946  1.00  0.00     0.035 A 
HETATM   16  C   UNL     1     -11.031   4.704 -33.132  1.00  0.00     0.032 A 
HETATM   17  C   UNL     1     -12.170   5.399 -33.565  1.00  0.00     0.032 A 
HETATM   18  C   UNL     1     -12.742   5.124 -34.805  1.00  0.00     0.034 A 
HETATM   19  C   UNL     1     -12.163   4.135 -35.607  1.00  0.00     0.032 A 
HETATM   20  C   UNL     1     -11.010   3.463 -35.189  1.00  0.00     0.032 A 
BRANCH  18  21
HETATM   21  N   UNL     1     -13.877   5.782 -35.320  1.00  0.00    -0.327 N 
HETATM   22  C   UNL     1     -13.902   6.850 -36.198  1.00  0.00     0.221 C 
HETATM   23  O   UNL     1     -12.929   7.432 -36.668  1.00  0.00    -0.273 OA
HETATM   24  H   UNL     1     -14.769   5.388 -35.054  1.00  0.00     0.169 HD
BRANCH  22  25
HETATM   25  C   UNL     1     -15.310   7.313 -36.542  1.00  0.00     0.098 C 
HETATM   26  C   UNL     1     -16.073   7.874 -35.356  1.00  0.00     0.014 C 
ENDBRANCH  22  25
ENDBRANCH  18  21
ENDBRANCH  12  15
ENDBRANCH   1  11
BRANCH   8  27
HETATM   27  C   UNL     1      -3.426   1.449 -31.173  1.00  0.00     0.409 C 
HETATM   28  F   UNL     1      -4.508   1.514 -30.366  1.00  0.00    -0.169 F 
HETATM   29  F   UNL     1      -2.576   0.541 -30.652  1.00  0.00    -0.169 F 
HETATM   30  F   UNL     1      -2.805   2.655 -31.086  1.00  0.00    -0.169 F 
ENDBRANCH   8  27
BRANCH   6  31
HETATM   31  C   UNL     1      -4.372  -2.568 -33.202  1.00  0.00     0.075 A 
HETATM   32  O   UNL     1      -5.291  -2.725 -34.197  1.00  0.00    -0.325 OA
HETATM   33  C   UNL     1      -5.063  -3.942 -34.757  1.00  0.00     0.142 A 
HETATM   34  C   UNL     1      -4.012  -4.573 -34.132  1.00  0.00     0.027 A 
HETATM   35  C   UNL     1      -3.563  -3.685 -33.126  1.00  0.00     0.037 A 
ENDBRANCH   6  31
TORSDOF 6
ENDMDL
MODEL 9
REMARK VINA RESULT:      -7.5      3.561     10.540
REMARK  6 active torsions:
REMARK  status: ('A' for Active; 'I' for Inactive)
REMARK    1  A    between atoms: C_2  and  C_3 
REMARK       I    between atoms: C_3  and  N_4 
REMARK    2  A    between atoms: N_4  and  C_5 
REMARK    3  A    between atoms: C_8  and  N_9 
REMARK       I    between atoms: N_9  and  C_10 
REMARK    4  A    between atoms: C_10  and  C_11 
REMARK    5  A    between atoms: C_16  and  C_17 
REMARK    6  A    between atoms: C_23  and  C_24 
ROOT
HETATM    1  C   UNL     1      -5.601   2.553 -31.748  1.00  0.00     0.148 C 
HETATM    2  N   UNL     1      -5.527   1.935 -32.952  1.00  0.00    -0.165 NA
HETATM    3  N   UNL     1      -6.621   1.156 -32.958  1.00  0.00    -0.240 N 
HETATM    4  C   UNL     1      -7.477   1.388 -31.922  1.00  0.00     0.123 C 
HETATM    5  N   UNL     1      -8.701   0.826 -31.900  1.00  0.00    -0.364 N 
HETATM    6  C   UNL     1      -9.317   0.210 -33.085  1.00  0.00     0.143 C 
HETATM    7  C   UNL     1      -8.436   0.378 -34.348  1.00  0.00     0.068 C 
HETATM    8  C   UNL     1      -6.938   0.261 -34.051  1.00  0.00     0.221 C 
HETATM    9  C   UNL     1      -6.803   2.215 -31.064  1.00  0.00     0.089 C 
HETATM   10  H   UNL     1      -9.336   0.975 -31.117  1.00  0.00     0.162 HD
ENDROOT
BRANCH   1  11
HETATM   11  C   UNL     1      -4.556   3.488 -31.294  1.00  0.00     0.276 C 
HETATM   12  N   UNL     1      -5.101   4.689 -30.884  1.00  0.00    -0.322 N 
HETATM   13  H   UNL     1      -6.117   4.701 -30.921  1.00  0.00     0.169 HD
HETATM   14  O   UNL     1      -3.373   3.168 -31.261  1.00  0.00    -0.266 OA
BRANCH  12  15
HETATM   15  C   UNL     1      -4.441   5.834 -30.416  1.00  0.00     0.035 A 
HETATM   16  C   UNL     1      -3.504   6.548 -31.157  1.00  0.00     0.032 A 
HETATM   17  C   UNL     1      -2.926   7.716 -30.638  1.00  0.00     0.032 A 
HETATM   18  C   UNL     1      -3.261   8.169 -29.363  1.00  0.00     0.034 A 
HETATM   19  C   UNL     1      -4.178   7.432 -28.608  1.00  0.00     0.032 A 
HETATM   20  C   UNL     1      -4.777   6.284 -29.136  1.00  0.00     0.032 A 
BRANCH  18  21
HETATM   21  N   UNL     1      -2.737   9.337 -28.772  1.00  0.00    -0.327 N 
HETATM   22  C   UNL     1      -1.549   9.465 -28.077  1.00  0.00     0.221 C 
HETATM   23  O   UNL     1      -0.747   8.570 -27.829  1.00  0.00    -0.273 OA
HETATM   24  H   UNL     1      -3.271  10.181 -28.926  1.00  0.00     0.169 HD
BRANCH  22  25
HETATM   25  C   UNL     1      -1.297  10.879 -27.572  1.00  0.00     0.098 C 
HETATM   26  C   UNL     1       0.015  11.034 -26.824  1.00  0.00     0.014 C 
ENDBRANCH  22  25
ENDBRANCH  18  21
ENDBRANCH  12  15
ENDBRANCH   1  11
BRANCH   8  27
HETATM   27  C   UNL     1      -6.512  -1.150 -33.714  1.00  0.00     0.409 C 
HETATM   28  F   UNL     1      -7.528  -2.032 -33.830  1.00  0.00    -0.169 F 
HETATM   29  F   UNL     1      -5.485  -1.601 -34.461  1.00  0.00    -0.169 F 
HETATM   30  F   UNL     1      -6.101  -1.203 -32.419  1.00  0.00    -0.169 F 
ENDBRANCH   8  27
BRANCH   6  31
HETATM   31  C   UNL     1     -10.677   0.768 -33.378  1.00  0.00     0.075 A 
HETATM   32  O   UNL     1     -11.724  -0.105 -33.343  1.00  0.00    -0.325 OA
HETATM   33  C   UNL     1     -12.839   0.601 -33.670  1.00  0.00     0.142 A 
HETATM   34  C   UNL     1     -12.522   1.915 -33.920  1.00  0.00     0.027 A 
HETATM   35  C   UNL     1     -11.125   2.027 -33.732  1.00  0.00     0.037 A 
ENDBRANCH   6  31
TORSDOF 6
ENDMDL
MODEL 10
REMARK VINA RESULT:      -7.4      5.433      8.265
REMARK  6 active torsions:
REMARK  status: ('A' for Active; 'I' for Inactive)
REMARK    1  A    between atoms: C_2  and  C_3 
REMARK       I    between atoms: C_3  and  N_4 
REMARK    2  A    between atoms: N_4  and  C_5 
REMARK    3  A    between atoms: C_8  and  N_9 
REMARK       I    between atoms: N_9  and  C_10 
REMARK    4  A    between atoms: C_10  and  C_11 
REMARK    5  A    between atoms: C_16  and  C_17 
REMARK    6  A    between atoms: C_23  and  C_24 
ROOT
HETATM    1  C   UNL     1      -9.149   2.990 -32.793  1.00  0.00     0.148 C 
HETATM    2  N   UNL     1      -7.848   3.362 -32.867  1.00  0.00    -0.165 NA
HETATM    3  N   UNL     1      -7.194   2.242 -32.518  1.00  0.00    -0.240 N 
HETATM    4  C   UNL     1      -7.990   1.139 -32.418  1.00  0.00     0.123 C 
HETATM    5  N   UNL     1      -7.454  -0.087 -32.268  1.00  0.00    -0.364 N 
HETATM    6  C   UNL     1      -6.033  -0.372 -32.518  1.00  0.00     0.143 C 
HETATM    7  C   UNL     1      -5.280   0.870 -33.055  1.00  0.00     0.068 C 
HETATM    8  C   UNL     1      -5.751   2.178 -32.413  1.00  0.00     0.221 C 
HETATM    9  C   UNL     1      -9.276   1.605 -32.491  1.00  0.00     0.089 C 
HETATM   10  H   UNL     1      -8.043  -0.913 -32.168  1.00  0.00     0.162 HD
ENDROOT
BRANCH   1  11
HETATM   11  C   UNL     1     -10.242   3.943 -33.059  1.00  0.00     0.276 C 
HETATM   12  N   UNL     1     -10.217   4.382 -34.368  1.00  0.00    -0.322 N 
HETATM   13  H   UNL     1      -9.490   3.941 -34.925  1.00  0.00     0.169 HD
HETATM   14  O   UNL     1     -11.067   4.234 -32.201  1.00  0.00    -0.266 OA
BRANCH  12  15
HETATM   15  C   UNL     1     -11.064   5.306 -34.996  1.00  0.00     0.035 A 
HETATM   16  C   UNL     1     -12.371   5.023 -35.383  1.00  0.00     0.032 A 
HETATM   17  C   UNL     1     -13.174   6.017 -35.959  1.00  0.00     0.032 A 
HETATM   18  C   UNL     1     -12.672   7.299 -36.177  1.00  0.00     0.034 A 
HETATM   19  C   UNL     1     -11.348   7.572 -35.818  1.00  0.00     0.032 A 
HETATM   20  C   UNL     1     -10.556   6.589 -35.216  1.00  0.00     0.032 A 
BRANCH  18  21
HETATM   21  N   UNL     1     -13.415   8.358 -36.739  1.00  0.00    -0.327 N 
HETATM   22  C   UNL     1     -13.493   8.714 -38.072  1.00  0.00     0.221 C 
HETATM   23  O   UNL     1     -12.904   8.179 -39.006  1.00  0.00    -0.273 OA
HETATM   24  H   UNL     1     -13.993   8.876 -36.092  1.00  0.00     0.169 HD
BRANCH  22  25
HETATM   25  C   UNL     1     -14.390   9.917 -38.322  1.00  0.00     0.098 C 
HETATM   26  C   UNL     1     -14.872  10.030 -39.758  1.00  0.00     0.014 C 
ENDBRANCH  22  25
ENDBRANCH  18  21
ENDBRANCH  12  15
ENDBRANCH   1  11
BRANCH   8  27
HETATM   27  C   UNL     1      -5.326   2.314 -30.968  1.00  0.00     0.409 C 
HETATM   28  F   UNL     1      -5.023   3.589 -30.642  1.00  0.00    -0.169 F 
HETATM   29  F   UNL     1      -6.244   1.869 -30.087  1.00  0.00    -0.169 F 
HETATM   30  F   UNL     1      -4.200   1.583 -30.756  1.00  0.00    -0.169 F 
ENDBRANCH   8  27
BRANCH   6  31
HETATM   31  C   UNL     1      -5.836  -1.500 -33.486  1.00  0.00     0.075 A 
HETATM   32  O   UNL     1      -4.572  -2.001 -33.602  1.00  0.00    -0.325 OA
HETATM   33  C   UNL     1      -4.620  -2.977 -34.546  1.00  0.00     0.142 A 
HETATM   34  C   UNL     1      -5.896  -3.108 -35.043  1.00  0.00     0.027 A 
HETATM   35  C   UNL     1      -6.684  -2.153 -34.358  1.00  0.00     0.037 A 
ENDBRANCH   6  31
TORSDOF 6
ENDMDL
