MODEL 1
REMARK VINA RESULT:      -9.4      0.000      0.000
REMARK  7 active torsions:
REMARK  status: ('A' for Active; 'I' for Inactive)
REMARK    1  A    between atoms: S_2  and  C_3 
REMARK    2  A    between atoms: C_3  and  C_4 
REMARK    3  A    between atoms: C_4  and  C_5 
REMARK    4  A    between atoms: C_5  and  N_6 
REMARK    5  A    between atoms: C_5  and  C_26 
REMARK       I    between atoms: N_6  and  C_7 
REMARK    6  A    between atoms: C_7  and  C_8 
REMARK    7  A    between atoms: C_8  and  N_9 
ROOT
HETATM    1  N   UNL     1      -6.738   2.489 -31.902  1.00  0.00    -0.348 N 
HETATM    2  C   UNL     1      -6.800   3.067 -30.646  1.00  0.00     0.236 C 
HETATM    3  O   UNL     1      -7.783   2.979 -29.917  1.00  0.00    -0.272 OA
HETATM    4  H   UNL     1      -5.796   2.182 -32.140  1.00  0.00     0.163 HD
ENDROOT
BRANCH   2   5
HETATM    5  C   UNL     1      -5.491   3.666 -30.130  1.00  0.00     0.239 C 
BRANCH   5   6
HETATM    6  N   UNL     1      -4.419   3.731 -31.103  1.00  0.00    -0.259 N 
HETATM    7  C   UNL     1      -3.619   2.690 -31.439  1.00  0.00     0.326 A 
HETATM    8  O   UNL     1      -3.792   1.523 -31.127  1.00  0.00    -0.247 OA
HETATM    9  N   UNL     1      -2.605   3.140 -32.240  1.00  0.00    -0.320 N 
HETATM   10  C   UNL     1      -2.658   4.575 -32.456  1.00  0.00     0.144 A 
HETATM   11  H   UNL     1      -1.839   2.542 -32.521  1.00  0.00     0.165 HD
HETATM   12  C   UNL     1      -1.481   5.295 -31.810  1.00  0.00    -0.014 A 
HETATM   13  C   UNL     1      -2.813   4.851 -33.958  1.00  0.00     0.047 C 
HETATM   14  C   UNL     1      -3.978   4.883 -31.697  1.00  0.00     0.261 A 
HETATM   15  C   UNL     1      -0.850   6.374 -32.463  1.00  0.00    -0.049 A 
HETATM   16  C   UNL     1      -1.044   4.944 -30.516  1.00  0.00     0.011 A 
HETATM   17  C   UNL     1       0.197   7.058 -31.824  1.00  0.00     0.007 A 
HETATM   18  C   UNL     1      -1.225   6.792 -33.864  1.00  0.00     0.039 C 
HETATM   19  C   UNL     1       0.610   6.698 -30.543  1.00  0.00     0.001 A 
HETATM   20  C   UNL     1      -0.009   5.640 -29.890  1.00  0.00     0.001 A 
HETATM   21  C   UNL     1      -2.614   6.327 -34.285  1.00  0.00     0.008 C 
HETATM   22  O   UNL     1      -4.523   5.975 -31.614  1.00  0.00    -0.270 OA
ENDBRANCH   5   6
ENDBRANCH   2   5
BRANCH   1  23
HETATM   23  C   UNL     1      -7.787   1.588 -32.386  1.00  0.00     0.155 C 
BRANCH  23  24
HETATM   24  C   UNL     1      -8.844   2.184 -33.338  1.00  0.00     0.043 C 
BRANCH  24  25
HETATM   25  C   UNL     1     -10.255   2.271 -32.760  1.00  0.00     0.076 C 
BRANCH  25  26
HETATM   26  S   UNL     1     -11.361   1.171 -33.711  1.00  0.00    -0.173 SA
HETATM   27  C   UNL     1     -12.843   2.204 -33.733  1.00  0.00     0.089 C 
ENDBRANCH  25  26
ENDBRANCH  24  25
ENDBRANCH  23  24
BRANCH  23  28
HETATM   28  C   UNL     1      -7.143   0.368 -32.993  1.00  0.00     0.128 A 
HETATM   29  N   UNL     1      -7.773  -0.630 -33.583  1.00  0.00    -0.231 NA
HETATM   30  C   UNL     1      -6.801  -1.532 -33.939  1.00  0.00     0.085 A 
HETATM   31  C   UNL     1      -5.543  -1.077 -33.564  1.00  0.00     0.062 A 
HETATM   32  C   UNL     1      -6.920  -2.773 -34.579  1.00  0.00     0.034 A 
HETATM   33  N   UNL     1      -5.785   0.143 -32.992  1.00  0.00    -0.341 N 
HETATM   34  C   UNL     1      -4.370  -1.805 -33.777  1.00  0.00     0.032 A 
HETATM   35  H   UNL     1      -5.094   0.759 -32.591  1.00  0.00     0.167 HD
HETATM   36  C   UNL     1      -4.510  -3.048 -34.408  1.00  0.00     0.002 A 
HETATM   37  C   UNL     1      -5.761  -3.525 -34.807  1.00  0.00     0.002 A 
ENDBRANCH  23  28
ENDBRANCH   1  23
TORSDOF 7
ENDMDL
MODEL 2
REMARK VINA RESULT:      -9.3      2.856      8.873
REMARK  7 active torsions:
REMARK  status: ('A' for Active; 'I' for Inactive)
REMARK    1  A    between atoms: S_2  and  C_3 
REMARK    2  A    between atoms: C_3  and  C_4 
REMARK    3  A    between atoms: C_4  and  C_5 
REMARK    4  A    between atoms: C_5  and  N_6 
REMARK    5  A    between atoms: C_5  and  C_26 
REMARK       I    between atoms: N_6  and  C_7 
REMARK    6  A    between atoms: C_7  and  C_8 
REMARK    7  A    between atoms: C_8  and  N_9 
ROOT
HETATM    1  N   UNL     1      -2.975   5.105 -31.234  1.00  0.00    -0.348 N 
HETATM    2  C   UNL     1      -3.756   3.965 -31.311  1.00  0.00     0.236 C 
HETATM    3  O   UNL     1      -3.286   2.836 -31.396  1.00  0.00    -0.272 OA
HETATM    4  H   UNL     1      -3.407   5.832 -30.665  1.00  0.00     0.163 HD
ENDROOT
BRANCH   2   5
HETATM    5  C   UNL     1      -5.255   4.176 -31.088  1.00  0.00     0.239 C 
BRANCH   5   6
HETATM    6  N   UNL     1      -6.088   3.028 -31.386  1.00  0.00    -0.259 N 
HETATM    7  C   UNL     1      -6.751   2.295 -30.460  1.00  0.00     0.326 A 
HETATM    8  O   UNL     1      -6.901   2.591 -29.285  1.00  0.00    -0.247 OA
HETATM    9  N   UNL     1      -7.284   1.185 -31.058  1.00  0.00    -0.320 N 
HETATM   10  C   UNL     1      -6.955   1.100 -32.469  1.00  0.00     0.144 A 
HETATM   11  H   UNL     1      -7.732   0.453 -30.524  1.00  0.00     0.165 HD
HETATM   12  C   UNL     1      -6.038  -0.078 -32.773  1.00  0.00    -0.014 A 
HETATM   13  C   UNL     1      -8.253   1.110 -33.289  1.00  0.00     0.047 C 
HETATM   14  C   UNL     1      -6.194   2.445 -32.621  1.00  0.00     0.261 A 
HETATM   15  C   UNL     1      -6.217  -0.849 -33.941  1.00  0.00    -0.049 A 
HETATM   16  C   UNL     1      -4.948  -0.380 -31.930  1.00  0.00     0.011 A 
HETATM   17  C   UNL     1      -5.325  -1.896 -34.228  1.00  0.00     0.007 A 
HETATM   18  C   UNL     1      -7.378  -0.624 -34.878  1.00  0.00     0.039 C 
HETATM   19  C   UNL     1      -4.252  -2.172 -33.384  1.00  0.00     0.001 A 
HETATM   20  C   UNL     1      -4.065  -1.416 -32.234  1.00  0.00     0.001 A 
HETATM   21  C   UNL     1      -8.002   0.761 -34.751  1.00  0.00     0.008 C 
HETATM   22  O   UNL     1      -5.736   2.901 -33.660  1.00  0.00    -0.270 OA
ENDBRANCH   5   6
ENDBRANCH   2   5
BRANCH   1  23
HETATM   23  C   UNL     1      -1.519   5.030 -31.083  1.00  0.00     0.155 C 
BRANCH  23  24
HETATM   24  C   UNL     1      -0.671   5.150 -32.365  1.00  0.00     0.043 C 
BRANCH  24  25
HETATM   25  C   UNL     1      -1.236   6.094 -33.424  1.00  0.00     0.076 C 
BRANCH  25  26
HETATM   26  S   UNL     1      -1.732   5.121 -34.890  1.00  0.00    -0.173 SA
HETATM   27  C   UNL     1      -3.516   5.394 -34.825  1.00  0.00     0.089 C 
ENDBRANCH  25  26
ENDBRANCH  24  25
ENDBRANCH  23  24
BRANCH  23  28
HETATM   28  C   UNL     1      -1.081   6.038 -30.051  1.00  0.00     0.128 A 
HETATM   29  N   UNL     1       0.122   6.567 -29.944  1.00  0.00    -0.231 NA
HETATM   30  C   UNL     1       0.078   7.389 -28.846  1.00  0.00     0.085 A 
HETATM   31  C   UNL     1      -1.185   7.371 -28.266  1.00  0.00     0.062 A 
HETATM   32  C   UNL     1       1.084   8.179 -28.275  1.00  0.00     0.034 A 
HETATM   33  N   UNL     1      -1.909   6.528 -29.066  1.00  0.00    -0.341 N 
HETATM   34  C   UNL     1      -1.510   8.094 -27.116  1.00  0.00     0.032 A 
HETATM   35  H   UNL     1      -2.875   6.267 -28.934  1.00  0.00     0.167 HD
HETATM   36  C   UNL     1      -0.489   8.870 -26.554  1.00  0.00     0.002 A 
HETATM   37  C   UNL     1       0.786   8.917 -27.123  1.00  0.00     0.002 A 
ENDBRANCH  23  28
ENDBRANCH   1  23
TORSDOF 7
ENDMDL
MODEL 3
REMARK VINA RESULT:      -9.3      2.041      3.243
REMARK  7 active torsions:
REMARK  status: ('A' for Active; 'I' for Inactive)
REMARK    1  A    between atoms: S_2  and  C_3 
REMARK    2  A    between atoms: C_3  and  C_4 
REMARK    3  A    between atoms: C_4  and  C_5 
REMARK    4  A    between atoms: C_5  and  N_6 
REMARK    5  A    between atoms: C_5  and  C_26 
REMARK       I    between atoms: N_6  and  C_7 
REMARK    6  A    between atoms: C_7  and  C_8 
REMARK    7  A    between atoms: C_8  and  N_9 
ROOT
HETATM    1  N   UNL     1      -4.920   3.025 -31.883  1.00  0.00    -0.348 N 
HETATM    2  C   UNL     1      -3.620   3.298 -32.271  1.00  0.00     0.236 C 
HETATM    3  O   UNL     1      -2.656   2.647 -31.882  1.00  0.00    -0.272 OA
HETATM    4  H   UNL     1      -5.595   3.234 -32.618  1.00  0.00     0.163 HD
ENDROOT
BRANCH   2   5
HETATM    5  C   UNL     1      -3.467   4.344 -33.376  1.00  0.00     0.239 C 
BRANCH   5   6
HETATM    6  N   UNL     1      -2.666   5.499 -33.021  1.00  0.00    -0.259 N 
HETATM    7  C   UNL     1      -1.562   5.908 -33.692  1.00  0.00     0.326 A 
HETATM    8  O   UNL     1      -1.190   5.495 -34.779  1.00  0.00    -0.247 OA
HETATM    9  N   UNL     1      -0.950   6.909 -32.987  1.00  0.00    -0.320 N 
HETATM   10  C   UNL     1      -1.623   7.203 -31.735  1.00  0.00     0.144 A 
HETATM   11  H   UNL     1      -0.052   7.285 -33.262  1.00  0.00     0.165 HD
HETATM   12  C   UNL     1      -0.773   6.831 -30.527  1.00  0.00    -0.014 A 
HETATM   13  C   UNL     1      -2.087   8.666 -31.747  1.00  0.00     0.047 C 
HETATM   14  C   UNL     1      -2.831   6.237 -31.879  1.00  0.00     0.261 A 
HETATM   15  C   UNL     1      -0.744   7.656 -29.384  1.00  0.00    -0.049 A 
HETATM   16  C   UNL     1      -0.053   5.619 -30.498  1.00  0.00     0.011 A 
HETATM   17  C   UNL     1       0.003   7.264 -28.260  1.00  0.00     0.007 A 
HETATM   18  C   UNL     1      -1.451   8.989 -29.340  1.00  0.00     0.039 C 
HETATM   19  C   UNL     1       0.703   6.060 -28.251  1.00  0.00     0.001 A 
HETATM   20  C   UNL     1       0.677   5.238 -29.371  1.00  0.00     0.001 A 
HETATM   21  C   UNL     1      -2.566   9.119 -30.372  1.00  0.00     0.008 C 
HETATM   22  O   UNL     1      -3.762   6.126 -31.093  1.00  0.00    -0.270 OA
ENDBRANCH   5   6
ENDBRANCH   2   5
BRANCH   1  23
HETATM   23  C   UNL     1      -5.256   1.831 -31.102  1.00  0.00     0.155 C 
BRANCH  23  24
HETATM   24  C   UNL     1      -6.427   1.946 -30.106  1.00  0.00     0.043 C 
BRANCH  24  25
HETATM   25  C   UNL     1      -7.162   3.284 -30.130  1.00  0.00     0.076 C 
BRANCH  25  26
HETATM   26  S   UNL     1      -8.885   3.012 -30.675  1.00  0.00    -0.173 SA
HETATM   27  C   UNL     1      -8.679   3.323 -32.442  1.00  0.00     0.089 C 
ENDBRANCH  25  26
ENDBRANCH  24  25
ENDBRANCH  23  24
BRANCH  23  28
HETATM   28  C   UNL     1      -5.462   0.672 -32.045  1.00  0.00     0.128 A 
HETATM   29  N   UNL     1      -6.620   0.253 -32.517  1.00  0.00    -0.231 NA
HETATM   30  C   UNL     1      -6.337  -0.845 -33.292  1.00  0.00     0.085 A 
HETATM   31  C   UNL     1      -4.971  -1.104 -33.301  1.00  0.00     0.062 A 
HETATM   32  C   UNL     1      -7.200  -1.681 -34.013  1.00  0.00     0.034 A 
HETATM   33  N   UNL     1      -4.436  -0.111 -32.525  1.00  0.00    -0.341 N 
HETATM   34  C   UNL     1      -4.401  -2.179 -33.986  1.00  0.00     0.032 A 
HETATM   35  H   UNL     1      -3.460   0.007 -32.299  1.00  0.00     0.167 HD
HETATM   36  C   UNL     1      -5.280  -3.010 -34.692  1.00  0.00     0.002 A 
HETATM   37  C   UNL     1      -6.655  -2.766 -34.710  1.00  0.00     0.002 A 
ENDBRANCH  23  28
ENDBRANCH   1  23
TORSDOF 7
ENDMDL
MODEL 4
REMARK VINA RESULT:      -8.9      2.778      6.947
REMARK  7 active torsions:
REMARK  status: ('A' for Active; 'I' for Inactive)
REMARK    1  A    between atoms: S_2  and  C_3 
REMARK    2  A    between atoms: C_3  and  C_4 
REMARK    3  A    between atoms: C_4  and  C_5 
REMARK    4  A    between atoms: C_5  and  N_6 
REMARK    5  A    between atoms: C_5  and  C_26 
REMARK       I    between atoms: N_6  and  C_7 
REMARK    6  A    between atoms: C_7  and  C_8 
REMARK    7  A    between atoms: C_8  and  N_9 
ROOT
HETATM    1  N   UNL     1      -7.914   3.044 -32.764  1.00  0.00    -0.348 N 
HETATM    2  C   UNL     1      -8.946   3.209 -33.671  1.00  0.00     0.236 C 
HETATM    3  O   UNL     1      -9.495   4.288 -33.871  1.00  0.00    -0.272 OA
HETATM    4  H   UNL     1      -7.246   2.335 -33.063  1.00  0.00     0.163 HD
ENDROOT
BRANCH   2   5
HETATM    5  C   UNL     1      -9.240   2.002 -34.564  1.00  0.00     0.239 C 
BRANCH   5   6
HETATM    6  N   UNL     1      -8.691   0.745 -34.096  1.00  0.00    -0.259 N 
HETATM    7  C   UNL     1      -9.245  -0.026 -33.129  1.00  0.00     0.326 A 
HETATM    8  O   UNL     1     -10.357   0.116 -32.648  1.00  0.00    -0.247 OA
HETATM    9  N   UNL     1      -8.380  -1.037 -32.807  1.00  0.00    -0.320 N 
HETATM   10  C   UNL     1      -7.135  -0.965 -33.550  1.00  0.00     0.144 A 
HETATM   11  H   UNL     1      -8.556  -1.667 -32.036  1.00  0.00     0.165 HD
HETATM   12  C   UNL     1      -5.948  -0.653 -32.649  1.00  0.00    -0.014 A 
HETATM   13  C   UNL     1      -6.971  -2.246 -34.380  1.00  0.00     0.047 C 
HETATM   14  C   UNL     1      -7.470   0.246 -34.463  1.00  0.00     0.261 A 
HETATM   15  C   UNL     1      -4.703  -1.284 -32.851  1.00  0.00    -0.049 A 
HETATM   16  C   UNL     1      -6.048   0.325 -31.638  1.00  0.00     0.011 A 
HETATM   17  C   UNL     1      -3.607  -0.939 -32.042  1.00  0.00     0.007 A 
HETATM   18  C   UNL     1      -4.514  -2.370 -33.882  1.00  0.00     0.039 C 
HETATM   19  C   UNL     1      -3.727   0.035 -31.053  1.00  0.00     0.001 A 
HETATM   20  C   UNL     1      -4.948   0.665 -30.849  1.00  0.00     0.001 A 
HETATM   21  C   UNL     1      -5.573  -2.358 -34.978  1.00  0.00     0.008 C 
HETATM   22  O   UNL     1      -6.754   0.704 -35.343  1.00  0.00    -0.270 OA
ENDBRANCH   5   6
ENDBRANCH   2   5
BRANCH   1  23
HETATM   23  C   UNL     1      -7.292   4.188 -32.091  1.00  0.00     0.155 C 
BRANCH  23  24
HETATM   24  C   UNL     1      -7.298   4.187 -30.549  1.00  0.00     0.043 C 
BRANCH  24  25
HETATM   25  C   UNL     1      -8.565   4.751 -29.911  1.00  0.00     0.076 C 
BRANCH  25  26
HETATM   26  S   UNL     1      -8.110   6.110 -28.776  1.00  0.00    -0.173 SA
HETATM   27  C   UNL     1      -6.478   5.525 -28.268  1.00  0.00     0.089 C 
ENDBRANCH  25  26
ENDBRANCH  24  25
ENDBRANCH  23  24
BRANCH  23  28
HETATM   28  C   UNL     1      -5.893   4.367 -32.624  1.00  0.00     0.128 A 
HETATM   29  N   UNL     1      -4.775   4.178 -31.949  1.00  0.00    -0.231 NA
HETATM   30  C   UNL     1      -3.755   4.501 -32.809  1.00  0.00     0.085 A 
HETATM   31  C   UNL     1      -4.256   4.893 -34.045  1.00  0.00     0.062 A 
HETATM   32  C   UNL     1      -2.370   4.493 -32.601  1.00  0.00     0.034 A 
HETATM   33  N   UNL     1      -5.613   4.773 -33.909  1.00  0.00    -0.341 N 
HETATM   34  C   UNL     1      -3.445   5.304 -35.105  1.00  0.00     0.032 A 
HETATM   35  H   UNL     1      -6.302   4.989 -34.614  1.00  0.00     0.167 HD
HETATM   36  C   UNL     1      -2.063   5.300 -34.875  1.00  0.00     0.002 A 
HETATM   37  C   UNL     1      -1.531   4.898 -33.647  1.00  0.00     0.002 A 
ENDBRANCH  23  28
ENDBRANCH   1  23
TORSDOF 7
ENDMDL
MODEL 5
REMARK VINA RESULT:      -8.7      3.510      7.655
REMARK  7 active torsions:
REMARK  status: ('A' for Active; 'I' for Inactive)
REMARK    1  A    between atoms: S_2  and  C_3 
REMARK    2  A    between atoms: C_3  and  C_4 
REMARK    3  A    between atoms: C_4  and  C_5 
REMARK    4  A    between atoms: C_5  and  N_6 
REMARK    5  A    between atoms: C_5  and  C_26 
REMARK       I    between atoms: N_6  and  C_7 
REMARK    6  A    between atoms: C_7  and  C_8 
REMARK    7  A    between atoms: C_8  and  N_9 
ROOT
HETATM    1  N   UNL     1     -11.274   3.169 -32.155  1.00  0.00    -0.348 N 
HETATM    2  C   UNL     1     -10.159   2.363 -32.298  1.00  0.00     0.236 C 
HETATM    3  O   UNL     1     -10.097   1.445 -33.110  1.00  0.00    -0.272 OA
HETATM    4  H   UNL     1     -11.029   4.124 -31.894  1.00  0.00     0.163 HD
ENDROOT
BRANCH   2   5
HETATM    5  C   UNL     1      -8.921   2.802 -31.514  1.00  0.00     0.239 C 
BRANCH   5   6
HETATM    6  N   UNL     1      -7.657   2.575 -32.186  1.00  0.00    -0.259 N 
HETATM    7  C   UNL     1      -7.294   3.146 -33.360  1.00  0.00     0.326 A 
HETATM    8  O   UNL     1      -7.875   4.059 -33.923  1.00  0.00    -0.247 OA
HETATM    9  N   UNL     1      -6.129   2.576 -33.798  1.00  0.00    -0.320 N 
HETATM   10  C   UNL     1      -5.657   1.523 -32.918  1.00  0.00     0.144 A 
HETATM   11  H   UNL     1      -5.739   2.788 -34.707  1.00  0.00     0.165 HD
HETATM   12  C   UNL     1      -5.717   0.153 -33.581  1.00  0.00    -0.014 A 
HETATM   13  C   UNL     1      -4.267   1.899 -32.385  1.00  0.00     0.047 C 
HETATM   14  C   UNL     1      -6.729   1.644 -31.801  1.00  0.00     0.261 A 
HETATM   15  C   UNL     1      -4.687  -0.790 -33.383  1.00  0.00    -0.049 A 
HETATM   16  C   UNL     1      -6.836  -0.227 -34.350  1.00  0.00     0.011 A 
HETATM   17  C   UNL     1      -4.792  -2.067 -33.960  1.00  0.00     0.007 A 
HETATM   18  C   UNL     1      -3.435  -0.458 -32.609  1.00  0.00     0.039 C 
HETATM   19  C   UNL     1      -5.910  -2.423 -34.711  1.00  0.00     0.001 A 
HETATM   20  C   UNL     1      -6.930  -1.502 -34.908  1.00  0.00     0.001 A 
HETATM   21  C   UNL     1      -3.600   0.731 -31.669  1.00  0.00     0.008 C 
HETATM   22  O   UNL     1      -6.764   0.997 -30.763  1.00  0.00    -0.270 OA
ENDBRANCH   5   6
ENDBRANCH   2   5
BRANCH   1  23
HETATM   23  C   UNL     1     -12.406   3.088 -33.082  1.00  0.00     0.155 C 
BRANCH  23  24
HETATM   24  C   UNL     1     -13.808   2.906 -32.468  1.00  0.00     0.043 C 
BRANCH  24  25
HETATM   25  C   UNL     1     -14.575   1.684 -32.966  1.00  0.00     0.076 C 
BRANCH  25  26
HETATM   26  S   UNL     1     -13.665   0.933 -34.362  1.00  0.00    -0.173 SA
HETATM   27  C   UNL     1     -13.072  -0.565 -33.546  1.00  0.00     0.089 C 
ENDBRANCH  25  26
ENDBRANCH  24  25
ENDBRANCH  23  24
BRANCH  23  28
HETATM   28  C   UNL     1     -12.372   4.282 -34.002  1.00  0.00     0.128 A 
HETATM   29  N   UNL     1     -11.346   5.088 -34.191  1.00  0.00    -0.231 NA
HETATM   30  C   UNL     1     -11.777   6.052 -35.068  1.00  0.00     0.085 A 
HETATM   31  C   UNL     1     -13.100   5.831 -35.433  1.00  0.00     0.062 A 
HETATM   32  C   UNL     1     -11.096   7.158 -35.593  1.00  0.00     0.034 A 
HETATM   33  N   UNL     1     -13.445   4.687 -34.765  1.00  0.00    -0.341 N 
HETATM   34  C   UNL     1     -13.808   6.672 -36.294  1.00  0.00     0.032 A 
HETATM   35  H   UNL     1     -14.347   4.236 -34.785  1.00  0.00     0.167 HD
HETATM   36  C   UNL     1     -13.113   7.778 -36.801  1.00  0.00     0.002 A 
HETATM   37  C   UNL     1     -11.779   8.018 -36.461  1.00  0.00     0.002 A 
ENDBRANCH  23  28
ENDBRANCH   1  23
TORSDOF 7
ENDMDL
MODEL 6
REMARK VINA RESULT:      -8.7      1.874      2.216
REMARK  7 active torsions:
REMARK  status: ('A' for Active; 'I' for Inactive)
REMARK    1  A    between atoms: S_2  and  C_3 
REMARK    2  A    between atoms: C_3  and  C_4 
REMARK    3  A    between atoms: C_4  and  C_5 
REMARK    4  A    between atoms: C_5  and  N_6 
REMARK    5  A    between atoms: C_5  and  C_26 
REMARK       I    between atoms: N_6  and  C_7 
REMARK    6  A    between atoms: C_7  and  C_8 
REMARK    7  A    between atoms: C_8  and  N_9 
ROOT
HETATM    1  N   UNL     1      -5.344   1.672 -32.872  1.00  0.00    -0.348 N 
HETATM    2  C   UNL     1      -5.419   2.670 -31.917  1.00  0.00     0.236 C 
HETATM    3  O   UNL     1      -6.480   3.161 -31.544  1.00  0.00    -0.272 OA
HETATM    4  H   UNL     1      -4.569   1.031 -32.702  1.00  0.00     0.163 HD
ENDROOT
BRANCH   2   5
HETATM    5  C   UNL     1      -4.108   3.000 -31.201  1.00  0.00     0.239 C 
BRANCH   5   6
HETATM    6  N   UNL     1      -3.497   4.256 -31.586  1.00  0.00    -0.259 N 
HETATM    7  C   UNL     1      -2.639   4.411 -32.623  1.00  0.00     0.326 A 
HETATM    8  O   UNL     1      -2.401   3.582 -33.486  1.00  0.00    -0.247 OA
HETATM    9  N   UNL     1      -2.114   5.675 -32.590  1.00  0.00    -0.320 N 
HETATM   10  C   UNL     1      -2.588   6.447 -31.456  1.00  0.00     0.144 A 
HETATM   11  H   UNL     1      -1.374   5.963 -33.217  1.00  0.00     0.165 HD
HETATM   12  C   UNL     1      -1.472   6.750 -30.464  1.00  0.00    -0.014 A 
HETATM   13  C   UNL     1      -3.323   7.693 -31.970  1.00  0.00     0.047 C 
HETATM   14  C   UNL     1      -3.589   5.417 -30.865  1.00  0.00     0.261 A 
HETATM   15  C   UNL     1      -1.395   8.006 -29.828  1.00  0.00    -0.049 A 
HETATM   16  C   UNL     1      -0.536   5.757 -30.106  1.00  0.00     0.011 A 
HETATM   17  C   UNL     1      -0.390   8.243 -28.874  1.00  0.00     0.007 A 
HETATM   18  C   UNL     1      -2.328   9.139 -30.176  1.00  0.00     0.039 C 
HETATM   19  C   UNL     1       0.521   7.246 -28.532  1.00  0.00     0.001 A 
HETATM   20  C   UNL     1       0.449   6.004 -29.150  1.00  0.00     0.001 A 
HETATM   21  C   UNL     1      -3.618   8.679 -30.845  1.00  0.00     0.008 C 
HETATM   22  O   UNL     1      -4.318   5.594 -29.899  1.00  0.00    -0.270 OA
ENDBRANCH   5   6
ENDBRANCH   2   5
BRANCH   1  23
HETATM   23  C   UNL     1      -6.545   1.012 -33.391  1.00  0.00     0.155 C 
BRANCH  23  24
HETATM   24  C   UNL     1      -7.287   1.709 -34.549  1.00  0.00     0.043 C 
BRANCH  24  25
HETATM   25  C   UNL     1      -8.659   2.271 -34.187  1.00  0.00     0.076 C 
BRANCH  25  26
HETATM   26  S   UNL     1      -9.425   1.209 -32.913  1.00  0.00    -0.173 SA
HETATM   27  C   UNL     1     -11.131   1.234 -33.505  1.00  0.00     0.089 C 
ENDBRANCH  25  26
ENDBRANCH  24  25
ENDBRANCH  23  24
BRANCH  23  28
HETATM   28  C   UNL     1      -6.205  -0.413 -33.749  1.00  0.00     0.128 A 
HETATM   29  N   UNL     1      -7.012  -1.282 -34.326  1.00  0.00    -0.231 NA
HETATM   30  C   UNL     1      -6.304  -2.453 -34.418  1.00  0.00     0.085 A 
HETATM   31  C   UNL     1      -5.027  -2.302 -33.889  1.00  0.00     0.062 A 
HETATM   32  C   UNL     1      -6.690  -3.698 -34.933  1.00  0.00     0.034 A 
HETATM   33  N   UNL     1      -4.981  -0.990 -33.497  1.00  0.00    -0.341 N 
HETATM   34  C   UNL     1      -4.096  -3.341 -33.824  1.00  0.00     0.032 A 
HETATM   35  H   UNL     1      -4.200  -0.529 -33.054  1.00  0.00     0.167 HD
HETATM   36  C   UNL     1      -4.503  -4.580 -34.334  1.00  0.00     0.002 A 
HETATM   37  C   UNL     1      -5.776  -4.758 -34.883  1.00  0.00     0.002 A 
ENDBRANCH  23  28
ENDBRANCH   1  23
TORSDOF 7
ENDMDL
MODEL 7
REMARK VINA RESULT:      -8.7      3.218      8.126
REMARK  7 active torsions:
REMARK  status: ('A' for Active; 'I' for Inactive)
REMARK    1  A    between atoms: S_2  and  C_3 
REMARK    2  A    between atoms: C_3  and  C_4 
REMARK    3  A    between atoms: C_4  and  C_5 
REMARK    4  A    between atoms: C_5  and  N_6 
REMARK    5  A    between atoms: C_5  and  C_26 
REMARK       I    between atoms: N_6  and  C_7 
REMARK    6  A    between atoms: C_7  and  C_8 
REMARK    7  A    between atoms: C_8  and  N_9 
ROOT
HETATM    1  N   UNL     1      -5.794   4.548 -28.895  1.00  0.00    -0.348 N 
HETATM    2  C   UNL     1      -7.022   4.329 -29.495  1.00  0.00     0.236 C 
HETATM    3  O   UNL     1      -7.820   5.230 -29.731  1.00  0.00    -0.272 OA
HETATM    4  H   UNL     1      -5.079   3.902 -29.229  1.00  0.00     0.163 HD
ENDROOT
BRANCH   2   5
HETATM    5  C   UNL     1      -7.253   2.915 -30.030  1.00  0.00     0.239 C 
BRANCH   5   6
HETATM    6  N   UNL     1      -6.227   2.422 -30.926  1.00  0.00    -0.259 N 
HETATM    7  C   UNL     1      -5.713   3.119 -31.969  1.00  0.00     0.326 A 
HETATM    8  O   UNL     1      -5.891   4.305 -32.195  1.00  0.00    -0.247 OA
HETATM    9  N   UNL     1      -4.908   2.297 -32.709  1.00  0.00    -0.320 N 
HETATM   10  C   UNL     1      -4.874   0.939 -32.197  1.00  0.00     0.144 A 
HETATM   11  H   UNL     1      -4.507   2.592 -33.590  1.00  0.00     0.165 HD
HETATM   12  C   UNL     1      -5.524  -0.051 -33.155  1.00  0.00    -0.014 A 
HETATM   13  C   UNL     1      -3.431   0.583 -31.814  1.00  0.00     0.047 C 
HETATM   14  C   UNL     1      -5.750   1.138 -30.929  1.00  0.00     0.261 A 
HETATM   15  C   UNL     1      -4.968  -1.331 -33.355  1.00  0.00    -0.049 A 
HETATM   16  C   UNL     1      -6.734   0.265 -33.807  1.00  0.00     0.011 A 
HETATM   17  C   UNL     1      -5.616  -2.248 -34.201  1.00  0.00     0.007 A 
HETATM   18  C   UNL     1      -3.657  -1.742 -32.731  1.00  0.00     0.039 C 
HETATM   19  C   UNL     1      -6.813  -1.916 -34.831  1.00  0.00     0.001 A 
HETATM   20  C   UNL     1      -7.371  -0.659 -34.636  1.00  0.00     0.001 A 
HETATM   21  C   UNL     1      -3.274  -0.904 -31.517  1.00  0.00     0.008 C 
HETATM   22  O   UNL     1      -6.002   0.287 -30.087  1.00  0.00    -0.270 OA
ENDBRANCH   5   6
ENDBRANCH   2   5
BRANCH   1  23
HETATM   23  C   UNL     1      -5.290   5.901 -28.646  1.00  0.00     0.155 C 
BRANCH  23  24
HETATM   24  C   UNL     1      -4.773   6.210 -27.226  1.00  0.00     0.043 C 
BRANCH  24  25
HETATM   25  C   UNL     1      -4.935   7.663 -26.785  1.00  0.00     0.076 C 
BRANCH  25  26
HETATM   26  S   UNL     1      -3.288   8.365 -26.418  1.00  0.00    -0.173 SA
HETATM   27  C   UNL     1      -2.423   6.845 -25.966  1.00  0.00     0.089 C 
ENDBRANCH  25  26
ENDBRANCH  24  25
ENDBRANCH  23  24
BRANCH  23  28
HETATM   28  C   UNL     1      -4.247   6.233 -29.682  1.00  0.00     0.128 A 
HETATM   29  N   UNL     1      -3.936   7.441 -30.112  1.00  0.00    -0.231 NA
HETATM   30  C   UNL     1      -2.977   7.265 -31.077  1.00  0.00     0.085 A 
HETATM   31  C   UNL     1      -2.685   5.916 -31.243  1.00  0.00     0.062 A 
HETATM   32  C   UNL     1      -2.313   8.213 -31.866  1.00  0.00     0.034 A 
HETATM   33  N   UNL     1      -3.484   5.285 -30.327  1.00  0.00    -0.341 N 
HETATM   34  C   UNL     1      -1.765   5.441 -32.180  1.00  0.00     0.032 A 
HETATM   35  H   UNL     1      -3.544   4.289 -30.176  1.00  0.00     0.167 HD
HETATM   36  C   UNL     1      -1.118   6.403 -32.967  1.00  0.00     0.002 A 
HETATM   37  C   UNL     1      -1.383   7.766 -32.813  1.00  0.00     0.002 A 
ENDBRANCH  23  28
ENDBRANCH   1  23
TORSDOF 7
ENDMDL
MODEL 8
REMARK VINA RESULT:      -8.6      2.884      8.309
REMARK  7 active torsions:
REMARK  status: ('A' for Active; 'I' for Inactive)
REMARK    1  A    between atoms: S_2  and  C_3 
REMARK    2  A    between atoms: C_3  and  C_4 
REMARK    3  A    between atoms: C_4  and  C_5 
REMARK    4  A    between atoms: C_5  and  N_6 
REMARK    5  A    between atoms: C_5  and  C_26 
REMARK       I    between atoms: N_6  and  C_7 
REMARK    6  A    between atoms: C_7  and  C_8 
REMARK    7  A    between atoms: C_8  and  N_9 
ROOT
HETATM    1  N   UNL     1      -6.474   3.865 -32.027  1.00  0.00    -0.348 N 
HETATM    2  C   UNL     1      -7.068   4.882 -32.752  1.00  0.00     0.236 C 
HETATM    3  O   UNL     1      -6.511   5.452 -33.685  1.00  0.00    -0.272 OA
HETATM    4  H   UNL     1      -7.152   3.175 -31.702  1.00  0.00     0.163 HD
ENDROOT
BRANCH   2   5
HETATM    5  C   UNL     1      -8.546   5.133 -32.451  1.00  0.00     0.239 C 
BRANCH   5   6
HETATM    6  N   UNL     1      -9.476   4.394 -33.281  1.00  0.00    -0.259 N 
HETATM    7  C   UNL     1      -9.901   4.790 -34.505  1.00  0.00     0.326 A 
HETATM    8  O   UNL     1      -9.437   5.708 -35.162  1.00  0.00    -0.247 OA
HETATM    9  N   UNL     1     -10.906   3.961 -34.925  1.00  0.00    -0.320 N 
HETATM   10  C   UNL     1     -11.242   2.948 -33.941  1.00  0.00     0.144 A 
HETATM   11  H   UNL     1     -11.432   4.144 -35.769  1.00  0.00     0.165 HD
HETATM   12  C   UNL     1     -12.641   3.147 -33.371  1.00  0.00    -0.014 A 
HETATM   13  C   UNL     1     -11.007   1.559 -34.551  1.00  0.00     0.047 C 
HETATM   14  C   UNL     1     -10.159   3.277 -32.877  1.00  0.00     0.261 A 
HETATM   15  C   UNL     1     -13.478   2.041 -33.113  1.00  0.00    -0.049 A 
HETATM   16  C   UNL     1     -13.101   4.433 -33.022  1.00  0.00     0.011 A 
HETATM   17  C   UNL     1     -14.742   2.245 -32.535  1.00  0.00     0.007 A 
HETATM   18  C   UNL     1     -13.085   0.634 -33.490  1.00  0.00     0.039 C 
HETATM   19  C   UNL     1     -15.174   3.524 -32.193  1.00  0.00     0.001 A 
HETATM   20  C   UNL     1     -14.355   4.619 -32.438  1.00  0.00     0.001 A 
HETATM   21  C   UNL     1     -11.583   0.452 -33.675  1.00  0.00     0.008 C 
HETATM   22  O   UNL     1      -9.964   2.666 -31.836  1.00  0.00    -0.270 OA
ENDBRANCH   5   6
ENDBRANCH   2   5
BRANCH   1  23
HETATM   23  C   UNL     1      -5.192   3.280 -32.429  1.00  0.00     0.155 C 
BRANCH  23  24
HETATM   24  C   UNL     1      -4.046   3.319 -31.398  1.00  0.00     0.043 C 
BRANCH  24  25
HETATM   25  C   UNL     1      -3.021   4.430 -31.617  1.00  0.00     0.076 C 
BRANCH  25  26
HETATM   26  S   UNL     1      -2.482   4.412 -33.363  1.00  0.00    -0.173 SA
HETATM   27  C   UNL     1      -2.826   6.134 -33.787  1.00  0.00     0.089 C 
ENDBRANCH  25  26
ENDBRANCH  24  25
ENDBRANCH  23  24
BRANCH  23  28
HETATM   28  C   UNL     1      -5.427   1.874 -32.920  1.00  0.00     0.128 A 
HETATM   29  N   UNL     1      -4.623   0.844 -32.738  1.00  0.00    -0.231 NA
HETATM   30  C   UNL     1      -5.209  -0.212 -33.390  1.00  0.00     0.085 A 
HETATM   31  C   UNL     1      -6.405   0.175 -33.983  1.00  0.00     0.062 A 
HETATM   32  C   UNL     1      -4.772  -1.536 -33.528  1.00  0.00     0.034 A 
HETATM   33  N   UNL     1      -6.534   1.496 -33.646  1.00  0.00    -0.341 N 
HETATM   34  C   UNL     1      -7.202  -0.690 -34.736  1.00  0.00     0.032 A 
HETATM   35  H   UNL     1      -7.287   2.109 -33.920  1.00  0.00     0.167 HD
HETATM   36  C   UNL     1      -6.744  -2.007 -34.871  1.00  0.00     0.002 A 
HETATM   37  C   UNL     1      -5.551  -2.426 -34.276  1.00  0.00     0.002 A 
ENDBRANCH  23  28
ENDBRANCH   1  23
TORSDOF 7
ENDMDL
MODEL 9
REMARK VINA RESULT:      -8.5      2.427      7.547
REMARK  7 active torsions:
REMARK  status: ('A' for Active; 'I' for Inactive)
REMARK    1  A    between atoms: S_2  and  C_3 
REMARK    2  A    between atoms: C_3  and  C_4 
REMARK    3  A    between atoms: C_4  and  C_5 
REMARK    4  A    between atoms: C_5  and  N_6 
REMARK    5  A    between atoms: C_5  and  C_26 
REMARK       I    between atoms: N_6  and  C_7 
REMARK    6  A    between atoms: C_7  and  C_8 
REMARK    7  A    between atoms: C_8  and  N_9 
ROOT
HETATM    1  N   UNL     1      -6.739   2.969 -30.583  1.00  0.00    -0.348 N 
HETATM    2  C   UNL     1      -7.838   2.695 -31.377  1.00  0.00     0.236 C 
HETATM    3  O   UNL     1      -8.597   3.564 -31.794  1.00  0.00    -0.272 OA
HETATM    4  H   UNL     1      -5.967   2.327 -30.755  1.00  0.00     0.163 HD
ENDROOT
BRANCH   2   5
HETATM    5  C   UNL     1      -7.950   1.252 -31.874  1.00  0.00     0.239 C 
BRANCH   5   6
HETATM    6  N   UNL     1      -6.769   0.739 -32.540  1.00  0.00    -0.259 N 
HETATM    7  C   UNL     1      -6.320   1.161 -33.748  1.00  0.00     0.326 A 
HETATM    8  O   UNL     1      -6.717   2.140 -34.358  1.00  0.00    -0.247 OA
HETATM    9  N   UNL     1      -5.302   0.345 -34.161  1.00  0.00    -0.320 N 
HETATM   10  C   UNL     1      -5.035  -0.732 -33.225  1.00  0.00     0.144 A 
HETATM   11  H   UNL     1      -4.894   0.423 -35.083  1.00  0.00     0.165 HD
HETATM   12  C   UNL     1      -5.381  -2.096 -33.809  1.00  0.00    -0.014 A 
HETATM   13  C   UNL     1      -3.588  -0.615 -32.725  1.00  0.00     0.047 C 
HETATM   14  C   UNL     1      -6.041  -0.337 -32.109  1.00  0.00     0.261 A 
HETATM   15  C   UNL     1      -4.558  -3.215 -33.564  1.00  0.00    -0.049 A 
HETATM   16  C   UNL     1      -6.568  -2.284 -34.547  1.00  0.00     0.011 A 
HETATM   17  C   UNL     1      -4.928  -4.474 -34.066  1.00  0.00     0.007 A 
HETATM   18  C   UNL     1      -3.251  -3.100 -32.819  1.00  0.00     0.039 C 
HETATM   19  C   UNL     1      -6.108  -4.638 -34.788  1.00  0.00     0.001 A 
HETATM   20  C   UNL     1      -6.927  -3.543 -35.031  1.00  0.00     0.001 A 
HETATM   21  C   UNL     1      -3.156  -1.854 -31.947  1.00  0.00     0.008 C 
HETATM   22  O   UNL     1      -6.186  -0.906 -31.036  1.00  0.00    -0.270 OA
ENDBRANCH   5   6
ENDBRANCH   2   5
BRANCH   1  23
HETATM   23  C   UNL     1      -6.307   4.344 -30.316  1.00  0.00     0.155 C 
BRANCH  23  24
HETATM   24  C   UNL     1      -5.950   4.701 -28.859  1.00  0.00     0.043 C 
BRANCH  24  25
HETATM   25  C   UNL     1      -6.895   5.697 -28.190  1.00  0.00     0.076 C 
BRANCH  25  26
HETATM   26  S   UNL     1      -8.283   6.059 -29.323  1.00  0.00    -0.173 SA
HETATM   27  C   UNL     1      -9.110   7.344 -28.361  1.00  0.00     0.089 C 
ENDBRANCH  25  26
ENDBRANCH  24  25
ENDBRANCH  23  24
BRANCH  23  28
HETATM   28  C   UNL     1      -5.174   4.692 -31.248  1.00  0.00     0.128 A 
HETATM   29  N   UNL     1      -5.294   5.165 -32.473  1.00  0.00    -0.231 NA
HETATM   30  C   UNL     1      -4.016   5.289 -32.958  1.00  0.00     0.085 A 
HETATM   31  C   UNL     1      -3.086   4.887 -32.007  1.00  0.00     0.062 A 
HETATM   32  C   UNL     1      -3.571   5.730 -34.211  1.00  0.00     0.034 A 
HETATM   33  N   UNL     1      -3.845   4.539 -30.922  1.00  0.00    -0.341 N 
HETATM   34  C   UNL     1      -1.709   4.880 -32.238  1.00  0.00     0.032 A 
HETATM   35  H   UNL     1      -3.499   4.185 -30.043  1.00  0.00     0.167 HD
HETATM   36  C   UNL     1      -1.282   5.314 -33.499  1.00  0.00     0.002 A 
HETATM   37  C   UNL     1      -2.194   5.735 -34.470  1.00  0.00     0.002 A 
ENDBRANCH  23  28
ENDBRANCH   1  23
TORSDOF 7
ENDMDL
MODEL 10
REMARK VINA RESULT:      -8.4     16.941     18.806
REMARK  7 active torsions:
REMARK  status: ('A' for Active; 'I' for Inactive)
REMARK    1  A    between atoms: S_2  and  C_3 
REMARK    2  A    between atoms: C_3  and  C_4 
REMARK    3  A    between atoms: C_4  and  C_5 
REMARK    4  A    between atoms: C_5  and  N_6 
REMARK    5  A    between atoms: C_5  and  C_26 
REMARK       I    between atoms: N_6  and  C_7 
REMARK    6  A    between atoms: C_7  and  C_8 
REMARK    7  A    between atoms: C_8  and  N_9 
ROOT
HETATM    1  N   UNL     1      -3.890 -14.565 -36.831  1.00  0.00    -0.348 N 
HETATM    2  C   UNL     1      -2.824 -15.308 -36.353  1.00  0.00     0.236 C 
HETATM    3  O   UNL     1      -2.770 -15.738 -35.206  1.00  0.00    -0.272 OA
HETATM    4  H   UNL     1      -4.065 -14.734 -37.821  1.00  0.00     0.163 HD
ENDROOT
BRANCH   2   5
HETATM    5  C   UNL     1      -1.793 -15.733 -37.400  1.00  0.00     0.239 C 
BRANCH   5   6
HETATM    6  N   UNL     1      -1.939 -15.103 -38.697  1.00  0.00    -0.259 N 
HETATM    7  C   UNL     1      -1.232 -14.024 -39.113  1.00  0.00     0.326 A 
HETATM    8  O   UNL     1      -0.259 -13.545 -38.554  1.00  0.00    -0.247 OA
HETATM    9  N   UNL     1      -1.746 -13.579 -40.302  1.00  0.00    -0.320 N 
HETATM   10  C   UNL     1      -2.896 -14.351 -40.737  1.00  0.00     0.144 A 
HETATM   11  H   UNL     1      -1.428 -12.722 -40.735  1.00  0.00     0.165 HD
HETATM   12  C   UNL     1      -4.177 -13.528 -40.717  1.00  0.00    -0.014 A 
HETATM   13  C   UNL     1      -2.585 -14.992 -42.096  1.00  0.00     0.047 C 
HETATM   14  C   UNL     1      -2.908 -15.420 -39.610  1.00  0.00     0.261 A 
HETATM   15  C   UNL     1      -5.137 -13.664 -41.741  1.00  0.00    -0.049 A 
HETATM   16  C   UNL     1      -4.464 -12.665 -39.639  1.00  0.00     0.011 A 
HETATM   17  C   UNL     1      -6.337 -12.935 -41.673  1.00  0.00     0.007 A 
HETATM   18  C   UNL     1      -4.899 -14.532 -42.952  1.00  0.00     0.039 C 
HETATM   19  C   UNL     1      -6.602 -12.093 -40.595  1.00  0.00     0.001 A 
HETATM   20  C   UNL     1      -5.664 -11.956 -39.580  1.00  0.00     0.001 A 
HETATM   21  C   UNL     1      -3.830 -15.597 -42.735  1.00  0.00     0.008 C 
HETATM   22  O   UNL     1      -3.674 -16.371 -39.528  1.00  0.00    -0.270 OA
ENDBRANCH   5   6
ENDBRANCH   2   5
BRANCH   1  23
HETATM   23  C   UNL     1      -5.111 -14.378 -36.043  1.00  0.00     0.155 C 
BRANCH  23  24
HETATM   24  C   UNL     1      -5.170 -13.146 -35.117  1.00  0.00     0.043 C 
BRANCH  24  25
HETATM   25  C   UNL     1      -5.757 -13.410 -33.733  1.00  0.00     0.076 C 
BRANCH  25  26
HETATM   26  S   UNL     1      -5.731 -15.208 -33.404  1.00  0.00    -0.173 SA
HETATM   27  C   UNL     1      -7.492 -15.468 -33.095  1.00  0.00     0.089 C 
ENDBRANCH  25  26
ENDBRANCH  24  25
ENDBRANCH  23  24
BRANCH  23  28
HETATM   28  C   UNL     1      -6.301 -14.413 -36.969  1.00  0.00     0.128 A 
HETATM   29  N   UNL     1      -6.504 -15.283 -37.939  1.00  0.00    -0.231 NA
HETATM   30  C   UNL     1      -7.679 -14.910 -38.542  1.00  0.00     0.085 A 
HETATM   31  C   UNL     1      -8.216 -13.786 -37.925  1.00  0.00     0.062 A 
HETATM   32  C   UNL     1      -8.348 -15.479 -39.634  1.00  0.00     0.034 A 
HETATM   33  N   UNL     1      -7.337 -13.508 -36.912  1.00  0.00    -0.341 N 
HETATM   34  C   UNL     1      -9.396 -13.170 -38.348  1.00  0.00     0.032 A 
HETATM   35  H   UNL     1      -7.405 -12.742 -36.259  1.00  0.00     0.167 HD
HETATM   36  C   UNL     1     -10.045 -13.746 -39.447  1.00  0.00     0.002 A 
HETATM   37  C   UNL     1      -9.534 -14.883 -40.079  1.00  0.00     0.002 A 
ENDBRANCH  23  28
ENDBRANCH   1  23
TORSDOF 7
ENDMDL
