MODEL 1
REMARK VINA RESULT:      -8.8      0.000      0.000
REMARK  5 active torsions:
REMARK  status: ('A' for Active; 'I' for Inactive)
REMARK    1  A    between atoms: C_4  and  C_5 
REMARK       I    between atoms: C_5  and  N_6 
REMARK    2  A    between atoms: N_6  and  C_7 
REMARK    3  A    between atoms: C_10  and  C_11 
REMARK    4  A    between atoms: C_18  and  N_19 
REMARK       I    between atoms: N_19  and  C_20 
REMARK    5  A    between atoms: C_20  and  C_21 
ROOT
HETATM    1  C   UNL     1       0.653   8.364 -26.747  1.00  0.00     0.139 A 
HETATM    2  N   UNL     1       1.878   8.090 -26.331  1.00  0.00    -0.228 NA
HETATM    3  C   UNL     1       2.018   8.699 -25.105  1.00  0.00     0.088 A 
HETATM    4  C   UNL     1       0.855   9.370 -24.760  1.00  0.00     0.063 A 
HETATM    5  N   UNL     1       0.009   9.142 -25.811  1.00  0.00    -0.338 N 
HETATM    6  H   UNL     1      -0.924   9.513 -25.900  1.00  0.00     0.167 HD
HETATM    7  C   UNL     1       3.117   8.729 -24.227  1.00  0.00     0.063 A 
HETATM    8  C   UNL     1       3.005   9.443 -23.026  1.00  0.00     0.037 A 
HETATM    9  C   UNL     1       1.808  10.110 -22.718  1.00  0.00     0.032 A 
HETATM   10  C   UNL     1       0.703  10.090 -23.578  1.00  0.00     0.034 A 
ENDROOT
BRANCH   1  11
HETATM   11  C   UNL     1       0.052   7.964 -28.024  1.00  0.00     0.010 A 
HETATM   12  C   UNL     1       0.819   7.474 -29.089  1.00  0.00     0.017 A 
HETATM   13  C   UNL     1       0.214   7.044 -30.277  1.00  0.00     0.030 A 
HETATM   14  C   UNL     1      -1.170   7.100 -30.432  1.00  0.00     0.035 A 
HETATM   15  C   UNL     1      -1.939   7.625 -29.389  1.00  0.00     0.030 A 
HETATM   16  C   UNL     1      -1.335   8.052 -28.198  1.00  0.00     0.017 A 
BRANCH  14  17
HETATM   17  N   UNL     1      -1.848   6.647 -31.579  1.00  0.00    -0.321 N 
HETATM   18  C   UNL     1      -2.039   5.342 -32.001  1.00  0.00     0.279 C 
HETATM   19  O   UNL     1      -1.610   4.341 -31.435  1.00  0.00    -0.265 OA
HETATM   20  H   UNL     1      -2.298   7.349 -32.159  1.00  0.00     0.169 HD
BRANCH  18  21
HETATM   21  C   UNL     1      -2.840   5.251 -33.209  1.00  0.00     0.142 A 
HETATM   22  O   UNL     1      -4.184   4.987 -33.115  1.00  0.00    -0.317 OA
HETATM   23  C   UNL     1      -4.673   4.955 -34.382  1.00  0.00     0.143 A 
HETATM   24  C   UNL     1      -3.670   5.187 -35.294  1.00  0.00     0.027 A 
HETATM   25  C   UNL     1      -2.489   5.379 -34.539  1.00  0.00     0.045 A 
ENDBRANCH  18  21
ENDBRANCH  14  17
ENDBRANCH   1  11
BRANCH   8  26
HETATM   26  N   UNL     1       4.036   9.549 -22.073  1.00  0.00    -0.321 N 
HETATM   27  C   UNL     1       4.504   8.591 -21.192  1.00  0.00     0.279 C 
HETATM   28  O   UNL     1       4.080   7.446 -21.087  1.00  0.00    -0.265 OA
HETATM   29  H   UNL     1       4.516  10.440 -22.009  1.00  0.00     0.169 HD
BRANCH  27  30
HETATM   30  C   UNL     1       5.591   9.093 -20.367  1.00  0.00     0.142 A 
HETATM   31  O   UNL     1       6.138   8.277 -19.405  1.00  0.00    -0.317 OA
HETATM   32  C   UNL     1       7.119   8.986 -18.789  1.00  0.00     0.143 A 
HETATM   33  C   UNL     1       7.219  10.244 -19.332  1.00  0.00     0.027 A 
HETATM   34  C   UNL     1       6.236  10.315 -20.348  1.00  0.00     0.045 A 
ENDBRANCH  27  30
ENDBRANCH   8  26
TORSDOF 5
ENDMDL
MODEL 2
REMARK VINA RESULT:      -8.2      1.352     12.428
REMARK  5 active torsions:
REMARK  status: ('A' for Active; 'I' for Inactive)
REMARK    1  A    between atoms: C_4  and  C_5 
REMARK       I    between atoms: C_5  and  N_6 
REMARK    2  A    between atoms: N_6  and  C_7 
REMARK    3  A    between atoms: C_10  and  C_11 
REMARK    4  A    between atoms: C_18  and  N_19 
REMARK       I    between atoms: N_19  and  C_20 
REMARK    5  A    between atoms: C_20  and  C_21 
ROOT
HETATM    1  C   UNL     1       1.132   8.841 -26.080  1.00  0.00     0.139 A 
HETATM    2  N   UNL     1       1.477   8.264 -27.220  1.00  0.00    -0.228 NA
HETATM    3  C   UNL     1       0.317   8.112 -27.946  1.00  0.00     0.088 A 
HETATM    4  C   UNL     1      -0.769   8.600 -27.234  1.00  0.00     0.063 A 
HETATM    5  N   UNL     1      -0.228   9.055 -26.063  1.00  0.00    -0.338 N 
HETATM    6  H   UNL     1      -0.748   9.453 -25.297  1.00  0.00     0.167 HD
HETATM    7  C   UNL     1       0.112   7.557 -29.221  1.00  0.00     0.063 A 
HETATM    8  C   UNL     1      -1.191   7.509 -29.737  1.00  0.00     0.037 A 
HETATM    9  C   UNL     1      -2.262   8.013 -28.980  1.00  0.00     0.032 A 
HETATM   10  C   UNL     1      -2.077   8.571 -27.710  1.00  0.00     0.034 A 
ENDROOT
BRANCH   1  11
HETATM   11  C   UNL     1       2.022   9.171 -24.962  1.00  0.00     0.010 A 
HETATM   12  C   UNL     1       1.541   9.698 -23.757  1.00  0.00     0.017 A 
HETATM   13  C   UNL     1       2.404   9.951 -22.683  1.00  0.00     0.030 A 
HETATM   14  C   UNL     1       3.768   9.690 -22.790  1.00  0.00     0.035 A 
HETATM   15  C   UNL     1       4.263   9.200 -24.004  1.00  0.00     0.030 A 
HETATM   16  C   UNL     1       3.399   8.944 -25.077  1.00  0.00     0.017 A 
BRANCH  14  17
HETATM   17  N   UNL     1       4.687   9.879 -21.741  1.00  0.00    -0.321 N 
HETATM   18  C   UNL     1       5.100   8.961 -20.789  1.00  0.00     0.279 C 
HETATM   19  O   UNL     1       4.696   7.807 -20.691  1.00  0.00    -0.265 OA
HETATM   20  H   UNL     1       5.147  10.782 -21.686  1.00  0.00     0.169 HD
BRANCH  18  21
HETATM   21  C   UNL     1       6.107   9.496 -19.889  1.00  0.00     0.142 A 
HETATM   22  O   UNL     1       6.149  10.845 -19.642  1.00  0.00    -0.317 OA
HETATM   23  C   UNL     1       7.179  11.060 -18.781  1.00  0.00     0.143 A 
HETATM   24  C   UNL     1       7.805   9.877 -18.471  1.00  0.00     0.027 A 
HETATM   25  C   UNL     1       7.115   8.868 -19.183  1.00  0.00     0.045 A 
ENDBRANCH  18  21
ENDBRANCH  14  17
ENDBRANCH   1  11
BRANCH   8  26
HETATM   26  N   UNL     1      -1.520   6.973 -30.997  1.00  0.00    -0.321 N 
HETATM   27  C   UNL     1      -1.804   7.640 -32.175  1.00  0.00     0.279 C 
HETATM   28  O   UNL     1      -1.821   8.857 -32.323  1.00  0.00    -0.265 OA
HETATM   29  H   UNL     1      -1.557   5.963 -31.074  1.00  0.00     0.169 HD
BRANCH  27  30
HETATM   30  C   UNL     1      -2.095   6.723 -33.266  1.00  0.00     0.142 A 
HETATM   31  O   UNL     1      -3.403   6.450 -33.586  1.00  0.00    -0.317 OA
HETATM   32  C   UNL     1      -3.388   5.575 -34.625  1.00  0.00     0.143 A 
HETATM   33  C   UNL     1      -2.095   5.275 -34.984  1.00  0.00     0.027 A 
HETATM   34  C   UNL     1      -1.261   6.013 -34.110  1.00  0.00     0.045 A 
ENDBRANCH  27  30
ENDBRANCH   8  26
TORSDOF 5
ENDMDL
MODEL 3
REMARK VINA RESULT:      -8.1      8.374     13.433
REMARK  5 active torsions:
REMARK  status: ('A' for Active; 'I' for Inactive)
REMARK    1  A    between atoms: C_4  and  C_5 
REMARK       I    between atoms: C_5  and  N_6 
REMARK    2  A    between atoms: N_6  and  C_7 
REMARK    3  A    between atoms: C_10  and  C_11 
REMARK    4  A    between atoms: C_18  and  N_19 
REMARK       I    between atoms: N_19  and  C_20 
REMARK    5  A    between atoms: C_20  and  C_21 
ROOT
HETATM    1  C   UNL     1      -9.504   3.619 -31.302  1.00  0.00     0.139 A 
HETATM    2  N   UNL     1      -8.635   4.558 -31.636  1.00  0.00    -0.228 NA
HETATM    3  C   UNL     1      -7.400   4.112 -31.221  1.00  0.00     0.088 A 
HETATM    4  C   UNL     1      -7.512   2.872 -30.610  1.00  0.00     0.063 A 
HETATM    5  N   UNL     1      -8.848   2.582 -30.676  1.00  0.00    -0.338 N 
HETATM    6  H   UNL     1      -9.284   1.757 -30.296  1.00  0.00     0.167 HD
HETATM    7  C   UNL     1      -6.136   4.718 -31.325  1.00  0.00     0.063 A 
HETATM    8  C   UNL     1      -5.020   4.049 -30.802  1.00  0.00     0.037 A 
HETATM    9  C   UNL     1      -5.180   2.795 -30.189  1.00  0.00     0.032 A 
HETATM   10  C   UNL     1      -6.430   2.175 -30.079  1.00  0.00     0.034 A 
ENDROOT
BRANCH   1  11
HETATM   11  C   UNL     1     -10.956   3.657 -31.503  1.00  0.00     0.010 A 
HETATM   12  C   UNL     1     -11.826   4.216 -30.558  1.00  0.00     0.017 A 
HETATM   13  C   UNL     1     -13.204   4.293 -30.799  1.00  0.00     0.030 A 
HETATM   14  C   UNL     1     -13.745   3.808 -31.988  1.00  0.00     0.035 A 
HETATM   15  C   UNL     1     -12.889   3.214 -32.920  1.00  0.00     0.030 A 
HETATM   16  C   UNL     1     -11.510   3.139 -32.680  1.00  0.00     0.017 A 
BRANCH  14  17
HETATM   17  N   UNL     1     -15.112   3.890 -32.316  1.00  0.00    -0.321 N 
HETATM   18  C   UNL     1     -16.097   2.937 -32.118  1.00  0.00     0.279 C 
HETATM   19  O   UNL     1     -15.924   1.824 -31.634  1.00  0.00    -0.265 OA
HETATM   20  H   UNL     1     -15.443   4.766 -32.707  1.00  0.00     0.169 HD
BRANCH  18  21
HETATM   21  C   UNL     1     -17.413   3.393 -32.532  1.00  0.00     0.142 A 
HETATM   22  O   UNL     1     -18.255   2.530 -33.187  1.00  0.00    -0.317 OA
HETATM   23  C   UNL     1     -19.398   3.215 -33.454  1.00  0.00     0.143 A 
HETATM   24  C   UNL     1     -19.309   4.505 -32.990  1.00  0.00     0.027 A 
HETATM   25  C   UNL     1     -18.031   4.621 -32.394  1.00  0.00     0.045 A 
ENDBRANCH  18  21
ENDBRANCH  14  17
ENDBRANCH   1  11
BRANCH   8  26
HETATM   26  N   UNL     1      -3.707   4.557 -30.842  1.00  0.00    -0.321 N 
HETATM   27  C   UNL     1      -2.696   4.275 -31.742  1.00  0.00     0.279 C 
HETATM   28  O   UNL     1      -2.776   3.504 -32.691  1.00  0.00    -0.265 OA
HETATM   29  H   UNL     1      -3.447   5.223 -30.122  1.00  0.00     0.169 HD
BRANCH  27  30
HETATM   30  C   UNL     1      -1.478   5.011 -31.443  1.00  0.00     0.142 A 
HETATM   31  O   UNL     1      -0.492   4.408 -30.699  1.00  0.00    -0.317 OA
HETATM   32  C   UNL     1       0.519   5.305 -30.570  1.00  0.00     0.143 A 
HETATM   33  C   UNL     1       0.208   6.478 -31.216  1.00  0.00     0.027 A 
HETATM   34  C   UNL     1      -1.077   6.291 -31.779  1.00  0.00     0.045 A 
ENDBRANCH  27  30
ENDBRANCH   8  26
TORSDOF 5
ENDMDL
MODEL 4
REMARK VINA RESULT:      -8.0      2.653     13.073
REMARK  5 active torsions:
REMARK  status: ('A' for Active; 'I' for Inactive)
REMARK    1  A    between atoms: C_4  and  C_5 
REMARK       I    between atoms: C_5  and  N_6 
REMARK    2  A    between atoms: N_6  and  C_7 
REMARK    3  A    between atoms: C_10  and  C_11 
REMARK    4  A    between atoms: C_18  and  N_19 
REMARK       I    between atoms: N_19  and  C_20 
REMARK    5  A    between atoms: C_20  and  C_21 
ROOT
HETATM    1  C   UNL     1      -1.397   6.689 -29.835  1.00  0.00     0.139 A 
HETATM    2  N   UNL     1      -2.689   6.471 -29.655  1.00  0.00    -0.228 NA
HETATM    3  C   UNL     1      -3.220   6.232 -30.902  1.00  0.00     0.088 A 
HETATM    4  C   UNL     1      -2.235   6.310 -31.874  1.00  0.00     0.063 A 
HETATM    5  N   UNL     1      -1.094   6.598 -31.175  1.00  0.00    -0.338 N 
HETATM    6  H   UNL     1      -0.184   6.751 -31.581  1.00  0.00     0.167 HD
HETATM    7  C   UNL     1      -4.543   5.946 -31.284  1.00  0.00     0.063 A 
HETATM    8  C   UNL     1      -4.829   5.753 -32.642  1.00  0.00     0.037 A 
HETATM    9  C   UNL     1      -3.799   5.844 -33.594  1.00  0.00     0.032 A 
HETATM   10  C   UNL     1      -2.476   6.124 -33.232  1.00  0.00     0.034 A 
ENDROOT
BRANCH   1  11
HETATM   11  C   UNL     1      -0.413   7.028 -28.800  1.00  0.00     0.010 A 
HETATM   12  C   UNL     1       0.599   7.971 -29.014  1.00  0.00     0.017 A 
HETATM   13  C   UNL     1       1.491   8.320 -27.991  1.00  0.00     0.030 A 
HETATM   14  C   UNL     1       1.395   7.729 -26.733  1.00  0.00     0.035 A 
HETATM   15  C   UNL     1       0.411   6.758 -26.522  1.00  0.00     0.030 A 
HETATM   16  C   UNL     1      -0.483   6.411 -27.545  1.00  0.00     0.017 A 
BRANCH  14  17
HETATM   17  N   UNL     1       2.227   8.060 -25.647  1.00  0.00    -0.321 N 
HETATM   18  C   UNL     1       2.004   8.999 -24.653  1.00  0.00     0.279 C 
HETATM   19  O   UNL     1       1.024   9.732 -24.574  1.00  0.00    -0.265 OA
HETATM   20  H   UNL     1       3.082   7.524 -25.538  1.00  0.00     0.169 HD
BRANCH  18  21
HETATM   21  C   UNL     1       3.062   9.030 -23.659  1.00  0.00     0.142 A 
HETATM   22  O   UNL     1       2.937   8.289 -22.510  1.00  0.00    -0.317 OA
HETATM   23  C   UNL     1       4.056   8.509 -21.771  1.00  0.00     0.143 A 
HETATM   24  C   UNL     1       4.899   9.381 -22.417  1.00  0.00     0.027 A 
HETATM   25  C   UNL     1       4.261   9.717 -23.634  1.00  0.00     0.045 A 
ENDBRANCH  18  21
ENDBRANCH  14  17
ENDBRANCH   1  11
BRANCH   8  26
HETATM   26  N   UNL     1      -6.113   5.467 -33.145  1.00  0.00    -0.321 N 
HETATM   27  C   UNL     1      -6.735   4.241 -33.288  1.00  0.00     0.279 C 
HETATM   28  O   UNL     1      -6.252   3.153 -32.992  1.00  0.00    -0.265 OA
HETATM   29  H   UNL     1      -6.676   6.255 -33.447  1.00  0.00     0.169 HD
BRANCH  27  30
HETATM   30  C   UNL     1      -8.072   4.367 -33.846  1.00  0.00     0.142 A 
HETATM   31  O   UNL     1      -8.462   5.566 -34.393  1.00  0.00    -0.317 OA
HETATM   32  C   UNL     1      -9.738   5.410 -34.832  1.00  0.00     0.143 A 
HETATM   33  C   UNL     1     -10.182   4.134 -34.582  1.00  0.00     0.027 A 
HETATM   34  C   UNL     1      -9.110   3.461 -33.947  1.00  0.00     0.045 A 
ENDBRANCH  27  30
ENDBRANCH   8  26
TORSDOF 5
ENDMDL
MODEL 5
REMARK VINA RESULT:      -7.8      8.071     16.698
REMARK  5 active torsions:
REMARK  status: ('A' for Active; 'I' for Inactive)
REMARK    1  A    between atoms: C_4  and  C_5 
REMARK       I    between atoms: C_5  and  N_6 
REMARK    2  A    between atoms: N_6  and  C_7 
REMARK    3  A    between atoms: C_10  and  C_11 
REMARK    4  A    between atoms: C_18  and  N_19 
REMARK       I    between atoms: N_19  and  C_20 
REMARK    5  A    between atoms: C_20  and  C_21 
ROOT
HETATM    1  C   UNL     1      -8.905   3.500 -32.762  1.00  0.00     0.139 A 
HETATM    2  N   UNL     1      -9.922   4.068 -32.136  1.00  0.00    -0.228 NA
HETATM    3  C   UNL     1     -11.065   3.573 -32.722  1.00  0.00     0.088 A 
HETATM    4  C   UNL     1     -10.746   2.685 -33.737  1.00  0.00     0.063 A 
HETATM    5  N   UNL     1      -9.378   2.655 -33.742  1.00  0.00    -0.338 N 
HETATM    6  H   UNL     1      -8.809   2.124 -34.382  1.00  0.00     0.167 HD
HETATM    7  C   UNL     1     -12.417   3.844 -32.443  1.00  0.00     0.063 A 
HETATM    8  C   UNL     1     -13.406   3.209 -33.206  1.00  0.00     0.037 A 
HETATM    9  C   UNL     1     -13.037   2.318 -34.228  1.00  0.00     0.032 A 
HETATM   10  C   UNL     1     -11.697   2.033 -34.518  1.00  0.00     0.034 A 
ENDROOT
BRANCH   1  11
HETATM   11  C   UNL     1      -7.479   3.742 -32.517  1.00  0.00     0.010 A 
HETATM   12  C   UNL     1      -6.485   3.304 -33.401  1.00  0.00     0.017 A 
HETATM   13  C   UNL     1      -5.135   3.599 -33.174  1.00  0.00     0.030 A 
HETATM   14  C   UNL     1      -4.745   4.333 -32.055  1.00  0.00     0.035 A 
HETATM   15  C   UNL     1      -5.728   4.741 -31.147  1.00  0.00     0.030 A 
HETATM   16  C   UNL     1      -7.079   4.449 -31.376  1.00  0.00     0.017 A 
BRANCH  14  17
HETATM   17  N   UNL     1      -3.414   4.702 -31.785  1.00  0.00    -0.321 N 
HETATM   18  C   UNL     1      -2.686   5.742 -32.339  1.00  0.00     0.279 C 
HETATM   19  O   UNL     1      -3.091   6.515 -33.201  1.00  0.00    -0.265 OA
HETATM   20  H   UNL     1      -2.925   4.179 -31.066  1.00  0.00     0.169 HD
BRANCH  18  21
HETATM   21  C   UNL     1      -1.351   5.857 -31.777  1.00  0.00     0.142 A 
HETATM   22  O   UNL     1      -0.790   4.783 -31.133  1.00  0.00    -0.317 OA
HETATM   23  C   UNL     1       0.442   5.171 -30.711  1.00  0.00     0.143 A 
HETATM   24  C   UNL     1       0.686   6.476 -31.065  1.00  0.00     0.027 A 
HETATM   25  C   UNL     1      -0.468   6.919 -31.753  1.00  0.00     0.045 A 
ENDBRANCH  18  21
ENDBRANCH  14  17
ENDBRANCH   1  11
BRANCH   8  26
HETATM   26  N   UNL     1     -14.789   3.404 -33.024  1.00  0.00    -0.321 N 
HETATM   27  C   UNL     1     -15.672   2.673 -32.252  1.00  0.00     0.279 C 
HETATM   28  O   UNL     1     -15.389   1.693 -31.572  1.00  0.00    -0.265 OA
HETATM   29  H   UNL     1     -15.214   4.182 -33.516  1.00  0.00     0.169 HD
BRANCH  27  30
HETATM   30  C   UNL     1     -17.026   3.199 -32.325  1.00  0.00     0.142 A 
HETATM   31  O   UNL     1     -17.978   2.512 -33.041  1.00  0.00    -0.317 OA
HETATM   32  C   UNL     1     -19.136   3.215 -32.947  1.00  0.00     0.143 A 
HETATM   33  C   UNL     1     -18.954   4.344 -32.184  1.00  0.00     0.027 A 
HETATM   34  C   UNL     1     -17.596   4.335 -31.783  1.00  0.00     0.045 A 
ENDBRANCH  27  30
ENDBRANCH   8  26
TORSDOF 5
ENDMDL
MODEL 6
REMARK VINA RESULT:      -7.7      4.205      7.747
REMARK  5 active torsions:
REMARK  status: ('A' for Active; 'I' for Inactive)
REMARK    1  A    between atoms: C_4  and  C_5 
REMARK       I    between atoms: C_5  and  N_6 
REMARK    2  A    between atoms: N_6  and  C_7 
REMARK    3  A    between atoms: C_10  and  C_11 
REMARK    4  A    between atoms: C_18  and  N_19 
REMARK       I    between atoms: N_19  and  C_20 
REMARK    5  A    between atoms: C_20  and  C_21 
ROOT
HETATM    1  C   UNL     1      -3.752   5.866 -31.796  1.00  0.00     0.139 A 
HETATM    2  N   UNL     1      -3.677   6.302 -30.550  1.00  0.00    -0.228 NA
HETATM    3  C   UNL     1      -2.355   6.613 -30.325  1.00  0.00     0.088 A 
HETATM    4  C   UNL     1      -1.597   6.357 -31.457  1.00  0.00     0.063 A 
HETATM    5  N   UNL     1      -2.501   5.889 -32.371  1.00  0.00    -0.338 N 
HETATM    6  H   UNL     1      -2.279   5.579 -33.304  1.00  0.00     0.167 HD
HETATM    7  C   UNL     1      -1.725   7.114 -29.172  1.00  0.00     0.063 A 
HETATM    8  C   UNL     1      -0.342   7.337 -29.200  1.00  0.00     0.037 A 
HETATM    9  C   UNL     1       0.388   7.061 -30.368  1.00  0.00     0.032 A 
HETATM   10  C   UNL     1      -0.222   6.565 -31.526  1.00  0.00     0.034 A 
ENDROOT
BRANCH   1  11
HETATM   11  C   UNL     1      -4.953   5.378 -32.483  1.00  0.00     0.010 A 
HETATM   12  C   UNL     1      -4.965   4.175 -33.201  1.00  0.00     0.017 A 
HETATM   13  C   UNL     1      -6.140   3.702 -33.799  1.00  0.00     0.030 A 
HETATM   14  C   UNL     1      -7.329   4.422 -33.699  1.00  0.00     0.035 A 
HETATM   15  C   UNL     1      -7.317   5.643 -33.017  1.00  0.00     0.030 A 
HETATM   16  C   UNL     1      -6.142   6.115 -32.416  1.00  0.00     0.017 A 
BRANCH  14  17
HETATM   17  N   UNL     1      -8.555   3.988 -34.237  1.00  0.00    -0.321 N 
HETATM   18  C   UNL     1      -9.421   3.033 -33.731  1.00  0.00     0.279 C 
HETATM   19  O   UNL     1      -9.237   2.373 -32.713  1.00  0.00    -0.265 OA
HETATM   20  H   UNL     1      -8.882   4.454 -35.078  1.00  0.00     0.169 HD
BRANCH  18  21
HETATM   21  C   UNL     1     -10.625   2.884 -34.530  1.00  0.00     0.142 A 
HETATM   22  O   UNL     1     -11.327   1.706 -34.487  1.00  0.00    -0.317 OA
HETATM   23  C   UNL     1     -12.389   1.845 -35.323  1.00  0.00     0.143 A 
HETATM   24  C   UNL     1     -12.385   3.088 -35.909  1.00  0.00     0.027 A 
HETATM   25  C   UNL     1     -11.250   3.760 -35.398  1.00  0.00     0.045 A 
ENDBRANCH  18  21
ENDBRANCH  14  17
ENDBRANCH   1  11
BRANCH   8  26
HETATM   26  N   UNL     1       0.399   7.830 -28.108  1.00  0.00    -0.321 N 
HETATM   27  C   UNL     1       0.262   9.032 -27.440  1.00  0.00     0.279 C 
HETATM   28  O   UNL     1      -0.558   9.906 -27.698  1.00  0.00    -0.265 OA
HETATM   29  H   UNL     1       1.138   7.237 -27.746  1.00  0.00     0.169 HD
BRANCH  27  30
HETATM   30  C   UNL     1       1.223   9.168 -26.356  1.00  0.00     0.142 A 
HETATM   31  O   UNL     1       1.287  10.350 -25.658  1.00  0.00    -0.317 OA
HETATM   32  C   UNL     1       2.256  10.208 -24.717  1.00  0.00     0.143 A 
HETATM   33  C   UNL     1       2.822   8.958 -24.792  1.00  0.00     0.027 A 
HETATM   34  C   UNL     1       2.158   8.287 -25.847  1.00  0.00     0.045 A 
ENDBRANCH  27  30
ENDBRANCH   8  26
TORSDOF 5
ENDMDL
MODEL 7
REMARK VINA RESULT:      -7.4      5.894     14.800
REMARK  5 active torsions:
REMARK  status: ('A' for Active; 'I' for Inactive)
REMARK    1  A    between atoms: C_4  and  C_5 
REMARK       I    between atoms: C_5  and  N_6 
REMARK    2  A    between atoms: N_6  and  C_7 
REMARK    3  A    between atoms: C_10  and  C_11 
REMARK    4  A    between atoms: C_18  and  N_19 
REMARK       I    between atoms: N_19  and  C_20 
REMARK    5  A    between atoms: C_20  and  C_21 
ROOT
HETATM    1  C   UNL     1      -6.098   4.702 -29.493  1.00  0.00     0.139 A 
HETATM    2  N   UNL     1      -7.313   4.946 -29.956  1.00  0.00    -0.228 NA
HETATM    3  C   UNL     1      -7.778   3.758 -30.473  1.00  0.00     0.088 A 
HETATM    4  C   UNL     1      -6.826   2.760 -30.332  1.00  0.00     0.063 A 
HETATM    5  N   UNL     1      -5.777   3.380 -29.710  1.00  0.00    -0.338 N 
HETATM    6  H   UNL     1      -4.898   2.946 -29.478  1.00  0.00     0.167 HD
HETATM    7  C   UNL     1      -9.006   3.457 -31.089  1.00  0.00     0.063 A 
HETATM    8  C   UNL     1      -9.231   2.152 -31.547  1.00  0.00     0.037 A 
HETATM    9  C   UNL     1      -8.237   1.172 -31.385  1.00  0.00     0.032 A 
HETATM   10  C   UNL     1      -7.010   1.452 -30.773  1.00  0.00     0.034 A 
ENDROOT
BRANCH   1  11
HETATM   11  C   UNL     1      -5.182   5.671 -28.883  1.00  0.00     0.010 A 
HETATM   12  C   UNL     1      -5.205   5.959 -27.512  1.00  0.00     0.017 A 
HETATM   13  C   UNL     1      -4.281   6.846 -26.944  1.00  0.00     0.030 A 
HETATM   14  C   UNL     1      -3.317   7.470 -27.733  1.00  0.00     0.035 A 
HETATM   15  C   UNL     1      -3.312   7.219 -29.109  1.00  0.00     0.030 A 
HETATM   16  C   UNL     1      -4.235   6.329 -29.677  1.00  0.00     0.017 A 
BRANCH  14  17
HETATM   17  N   UNL     1      -2.333   8.339 -27.225  1.00  0.00    -0.321 N 
HETATM   18  C   UNL     1      -1.162   8.010 -26.563  1.00  0.00     0.279 C 
HETATM   19  O   UNL     1      -0.798   6.872 -26.282  1.00  0.00    -0.265 OA
HETATM   20  H   UNL     1      -2.459   9.331 -27.394  1.00  0.00     0.169 HD
BRANCH  18  21
HETATM   21  C   UNL     1      -0.356   9.172 -26.231  1.00  0.00     0.142 A 
HETATM   22  O   UNL     1       0.523   9.111 -25.179  1.00  0.00    -0.317 OA
HETATM   23  C   UNL     1       1.130  10.324 -25.097  1.00  0.00     0.143 A 
HETATM   24  C   UNL     1       0.657  11.169 -26.073  1.00  0.00     0.027 A 
HETATM   25  C   UNL     1      -0.299  10.428 -26.806  1.00  0.00     0.045 A 
ENDBRANCH  18  21
ENDBRANCH  14  17
ENDBRANCH   1  11
BRANCH   8  26
HETATM   26  N   UNL     1     -10.417   1.732 -32.182  1.00  0.00    -0.321 N 
HETATM   27  C   UNL     1     -10.625   1.427 -33.514  1.00  0.00     0.279 C 
HETATM   28  O   UNL     1      -9.780   1.476 -34.401  1.00  0.00    -0.265 OA
HETATM   29  H   UNL     1     -11.241   1.632 -31.600  1.00  0.00     0.169 HD
BRANCH  27  30
HETATM   30  C   UNL     1     -11.999   1.027 -33.774  1.00  0.00     0.142 A 
HETATM   31  O   UNL     1     -12.444  -0.190 -33.318  1.00  0.00    -0.317 OA
HETATM   32  C   UNL     1     -13.743  -0.309 -33.695  1.00  0.00     0.143 A 
HETATM   33  C   UNL     1     -14.149   0.806 -34.387  1.00  0.00     0.027 A 
HETATM   34  C   UNL     1     -13.027   1.668 -34.439  1.00  0.00     0.045 A 
ENDBRANCH  27  30
ENDBRANCH   8  26
TORSDOF 5
ENDMDL
MODEL 8
REMARK VINA RESULT:      -7.4     24.150     29.471
REMARK  5 active torsions:
REMARK  status: ('A' for Active; 'I' for Inactive)
REMARK    1  A    between atoms: C_4  and  C_5 
REMARK       I    between atoms: C_5  and  N_6 
REMARK    2  A    between atoms: N_6  and  C_7 
REMARK    3  A    between atoms: C_10  and  C_11 
REMARK    4  A    between atoms: C_18  and  N_19 
REMARK       I    between atoms: N_19  and  C_20 
REMARK    5  A    between atoms: C_20  and  C_21 
ROOT
HETATM    1  C   UNL     1      -7.483 -14.526 -36.867  1.00  0.00     0.139 A 
HETATM    2  N   UNL     1      -7.687 -15.486 -37.754  1.00  0.00    -0.228 NA
HETATM    3  C   UNL     1      -8.542 -14.966 -38.700  1.00  0.00     0.088 A 
HETATM    4  C   UNL     1      -8.878 -13.659 -38.385  1.00  0.00     0.063 A 
HETATM    5  N   UNL     1      -8.197 -13.405 -37.226  1.00  0.00    -0.338 N 
HETATM    6  H   UNL     1      -8.238 -12.544 -36.702  1.00  0.00     0.167 HD
HETATM    7  C   UNL     1      -9.082 -15.557 -39.856  1.00  0.00     0.063 A 
HETATM    8  C   UNL     1      -9.952 -14.805 -40.657  1.00  0.00     0.037 A 
HETATM    9  C   UNL     1     -10.268 -13.484 -40.298  1.00  0.00     0.032 A 
HETATM   10  C   UNL     1      -9.738 -12.878 -39.153  1.00  0.00     0.034 A 
ENDROOT
BRANCH   1  11
HETATM   11  C   UNL     1      -6.671 -14.618 -35.649  1.00  0.00     0.010 A 
HETATM   12  C   UNL     1      -7.066 -14.025 -34.443  1.00  0.00     0.017 A 
HETATM   13  C   UNL     1      -6.301 -14.176 -33.279  1.00  0.00     0.030 A 
HETATM   14  C   UNL     1      -5.121 -14.918 -33.294  1.00  0.00     0.035 A 
HETATM   15  C   UNL     1      -4.700 -15.480 -34.503  1.00  0.00     0.030 A 
HETATM   16  C   UNL     1      -5.467 -15.332 -35.667  1.00  0.00     0.017 A 
BRANCH  14  17
HETATM   17  N   UNL     1      -4.325 -15.146 -32.156  1.00  0.00    -0.321 N 
HETATM   18  C   UNL     1      -4.366 -16.224 -31.287  1.00  0.00     0.279 C 
HETATM   19  O   UNL     1      -5.145 -17.168 -31.359  1.00  0.00    -0.265 OA
HETATM   20  H   UNL     1      -3.596 -14.469 -31.957  1.00  0.00     0.169 HD
BRANCH  18  21
HETATM   21  C   UNL     1      -3.352 -16.150 -30.249  1.00  0.00     0.142 A 
HETATM   22  O   UNL     1      -2.357 -15.209 -30.338  1.00  0.00    -0.317 OA
HETATM   23  C   UNL     1      -1.559 -15.369 -29.249  1.00  0.00     0.143 A 
HETATM   24  C   UNL     1      -2.016 -16.399 -28.462  1.00  0.00     0.027 A 
HETATM   25  C   UNL     1      -3.172 -16.902 -29.104  1.00  0.00     0.045 A 
ENDBRANCH  18  21
ENDBRANCH  14  17
ENDBRANCH   1  11
BRANCH   8  26
HETATM   26  N   UNL     1     -10.558 -15.289 -41.833  1.00  0.00    -0.321 N 
HETATM   27  C   UNL     1     -11.633 -16.149 -41.963  1.00  0.00     0.279 C 
HETATM   28  O   UNL     1     -12.261 -16.656 -41.041  1.00  0.00    -0.265 OA
HETATM   29  H   UNL     1     -10.169 -14.975 -42.715  1.00  0.00     0.169 HD
BRANCH  27  30
HETATM   30  C   UNL     1     -11.961 -16.406 -43.357  1.00  0.00     0.142 A 
HETATM   31  O   UNL     1     -11.022 -16.151 -44.328  1.00  0.00    -0.317 OA
HETATM   32  C   UNL     1     -11.583 -16.474 -45.522  1.00  0.00     0.143 A 
HETATM   33  C   UNL     1     -12.866 -16.932 -45.345  1.00  0.00     0.027 A 
HETATM   34  C   UNL     1     -13.112 -16.889 -43.951  1.00  0.00     0.045 A 
ENDBRANCH  27  30
ENDBRANCH   8  26
TORSDOF 5
ENDMDL
MODEL 9
REMARK VINA RESULT:      -7.2      2.824     12.642
REMARK  5 active torsions:
REMARK  status: ('A' for Active; 'I' for Inactive)
REMARK    1  A    between atoms: C_4  and  C_5 
REMARK       I    between atoms: C_5  and  N_6 
REMARK    2  A    between atoms: N_6  and  C_7 
REMARK    3  A    between atoms: C_10  and  C_11 
REMARK    4  A    between atoms: C_18  and  N_19 
REMARK       I    between atoms: N_19  and  C_20 
REMARK    5  A    between atoms: C_20  and  C_21 
ROOT
HETATM    1  C   UNL     1      -1.441   7.364 -29.325  1.00  0.00     0.139 A 
HETATM    2  N   UNL     1      -1.448   6.110 -29.744  1.00  0.00    -0.228 NA
HETATM    3  C   UNL     1      -2.581   5.962 -30.512  1.00  0.00     0.088 A 
HETATM    4  C   UNL     1      -3.292   7.151 -30.562  1.00  0.00     0.063 A 
HETATM    5  N   UNL     1      -2.552   8.020 -29.807  1.00  0.00    -0.338 N 
HETATM    6  H   UNL     1      -2.799   8.977 -29.609  1.00  0.00     0.167 HD
HETATM    7  C   UNL     1      -3.073   4.836 -31.195  1.00  0.00     0.063 A 
HETATM    8  C   UNL     1      -4.276   4.947 -31.905  1.00  0.00     0.037 A 
HETATM    9  C   UNL     1      -4.965   6.171 -31.927  1.00  0.00     0.032 A 
HETATM   10  C   UNL     1      -4.490   7.304 -31.256  1.00  0.00     0.034 A 
ENDROOT
BRANCH   1  11
HETATM   11  C   UNL     1      -0.449   7.987 -28.441  1.00  0.00     0.010 A 
HETATM   12  C   UNL     1      -0.607   9.286 -27.942  1.00  0.00     0.017 A 
HETATM   13  C   UNL     1       0.326   9.837 -27.054  1.00  0.00     0.030 A 
HETATM   14  C   UNL     1       1.440   9.105 -26.648  1.00  0.00     0.035 A 
HETATM   15  C   UNL     1       1.625   7.822 -27.172  1.00  0.00     0.030 A 
HETATM   16  C   UNL     1       0.690   7.270 -28.059  1.00  0.00     0.017 A 
BRANCH  14  17
HETATM   17  N   UNL     1       2.394   9.578 -25.727  1.00  0.00    -0.321 N 
HETATM   18  C   UNL     1       2.235   9.799 -24.369  1.00  0.00     0.279 C 
HETATM   19  O   UNL     1       1.195   9.638 -23.738  1.00  0.00    -0.265 OA
HETATM   20  H   UNL     1       3.333   9.740 -26.075  1.00  0.00     0.169 HD
BRANCH  18  21
HETATM   21  C   UNL     1       3.460  10.238 -23.722  1.00  0.00     0.142 A 
HETATM   22  O   UNL     1       3.465  11.404 -22.999  1.00  0.00    -0.317 OA
HETATM   23  C   UNL     1       4.725  11.568 -22.517  1.00  0.00     0.143 A 
HETATM   24  C   UNL     1       5.535  10.533 -22.920  1.00  0.00     0.027 A 
HETATM   25  C   UNL     1       4.721   9.675 -23.695  1.00  0.00     0.045 A 
ENDBRANCH  18  21
ENDBRANCH  14  17
ENDBRANCH   1  11
BRANCH   8  26
HETATM   26  N   UNL     1      -4.868   3.889 -32.622  1.00  0.00    -0.321 N 
HETATM   27  C   UNL     1      -5.067   2.579 -32.227  1.00  0.00     0.279 C 
HETATM   28  O   UNL     1      -4.744   2.099 -31.146  1.00  0.00    -0.265 OA
HETATM   29  H   UNL     1      -5.204   4.096 -33.556  1.00  0.00     0.169 HD
BRANCH  27  30
HETATM   30  C   UNL     1      -5.721   1.791 -33.259  1.00  0.00     0.142 A 
HETATM   31  O   UNL     1      -5.481   0.439 -33.328  1.00  0.00    -0.317 OA
HETATM   32  C   UNL     1      -6.207  -0.045 -34.369  1.00  0.00     0.143 A 
HETATM   33  C   UNL     1      -6.913   0.966 -34.976  1.00  0.00     0.027 A 
HETATM   34  C   UNL     1      -6.602   2.149 -34.263  1.00  0.00     0.045 A 
ENDBRANCH  27  30
ENDBRANCH   8  26
TORSDOF 5
ENDMDL
MODEL 10
REMARK VINA RESULT:      -7.1     13.968     17.874
REMARK  5 active torsions:
REMARK  status: ('A' for Active; 'I' for Inactive)
REMARK    1  A    between atoms: C_4  and  C_5 
REMARK       I    between atoms: C_5  and  N_6 
REMARK    2  A    between atoms: N_6  and  C_7 
REMARK    3  A    between atoms: C_10  and  C_11 
REMARK    4  A    between atoms: C_18  and  N_19 
REMARK       I    between atoms: N_19  and  C_20 
REMARK    5  A    between atoms: C_20  and  C_21 
ROOT
HETATM    1  C   UNL     1     -10.069   2.898 -33.793  1.00  0.00     0.139 A 
HETATM    2  N   UNL     1     -10.843   3.052 -34.855  1.00  0.00    -0.228 NA
HETATM    3  C   UNL     1     -11.685   4.104 -34.574  1.00  0.00     0.088 A 
HETATM    4  C   UNL     1     -11.429   4.607 -33.308  1.00  0.00     0.063 A 
HETATM    5  N   UNL     1     -10.405   3.830 -32.837  1.00  0.00    -0.338 N 
HETATM    6  H   UNL     1      -9.988   3.908 -31.923  1.00  0.00     0.167 HD
HETATM    7  C   UNL     1     -12.702   4.684 -35.353  1.00  0.00     0.063 A 
HETATM    8  C   UNL     1     -13.434   5.755 -34.822  1.00  0.00     0.037 A 
HETATM    9  C   UNL     1     -13.143   6.230 -33.533  1.00  0.00     0.032 A 
HETATM   10  C   UNL     1     -12.132   5.668 -32.744  1.00  0.00     0.034 A 
ENDROOT
BRANCH   1  11
HETATM   11  C   UNL     1      -9.036   1.874 -33.603  1.00  0.00     0.010 A 
HETATM   12  C   UNL     1      -8.660   1.422 -32.332  1.00  0.00     0.017 A 
HETATM   13  C   UNL     1      -7.711   0.402 -32.180  1.00  0.00     0.030 A 
HETATM   14  C   UNL     1      -7.113  -0.185 -33.293  1.00  0.00     0.035 A 
HETATM   15  C   UNL     1      -7.455   0.288 -34.564  1.00  0.00     0.030 A 
HETATM   16  C   UNL     1      -8.406   1.306 -34.717  1.00  0.00     0.017 A 
BRANCH  14  17
HETATM   17  N   UNL     1      -6.186  -1.242 -33.217  1.00  0.00    -0.321 N 
HETATM   18  C   UNL     1      -4.804  -1.172 -33.278  1.00  0.00     0.279 C 
HETATM   19  O   UNL     1      -4.149  -0.148 -33.439  1.00  0.00    -0.265 OA
HETATM   20  H   UNL     1      -6.556  -2.172 -33.054  1.00  0.00     0.169 HD
BRANCH  18  21
HETATM   21  C   UNL     1      -4.167  -2.467 -33.108  1.00  0.00     0.142 A 
HETATM   22  O   UNL     1      -3.401  -2.706 -31.995  1.00  0.00    -0.317 OA
HETATM   23  C   UNL     1      -2.932  -3.977 -32.100  1.00  0.00     0.143 A 
HETATM   24  C   UNL     1      -3.375  -4.562 -33.262  1.00  0.00     0.027 A 
HETATM   25  C   UNL     1      -4.172  -3.590 -33.912  1.00  0.00     0.045 A 
ENDBRANCH  18  21
ENDBRANCH  14  17
ENDBRANCH   1  11
BRANCH   8  26
HETATM   26  N   UNL     1     -14.476   6.412 -35.504  1.00  0.00    -0.321 N 
HETATM   27  C   UNL     1     -14.404   7.234 -36.613  1.00  0.00     0.279 C 
HETATM   28  O   UNL     1     -13.379   7.544 -37.210  1.00  0.00    -0.265 OA
HETATM   29  H   UNL     1     -15.417   6.275 -35.150  1.00  0.00     0.169 HD
BRANCH  27  30
HETATM   30  C   UNL     1     -15.713   7.718 -37.021  1.00  0.00     0.142 A 
HETATM   31  O   UNL     1     -15.888   9.059 -37.269  1.00  0.00    -0.317 OA
HETATM   32  C   UNL     1     -17.187   9.234 -37.626  1.00  0.00     0.143 A 
HETATM   33  C   UNL     1     -17.857   8.035 -37.613  1.00  0.00     0.027 A 
HETATM   34  C   UNL     1     -16.910   7.057 -37.224  1.00  0.00     0.045 A 
ENDBRANCH  27  30
ENDBRANCH   8  26
TORSDOF 5
ENDMDL
