MODEL 1
REMARK VINA RESULT:      -9.0      0.000      0.000
REMARK  10 active torsions:
REMARK  status: ('A' for Active; 'I' for Inactive)
REMARK    1  A    between atoms: C_2  and  C_3 
REMARK    2  A    between atoms: C_3  and  C_4 
REMARK    3  A    between atoms: C_4  and  O_5 
REMARK    4  A    between atoms: O_5  and  C_6 
REMARK    5  A    between atoms: C_9  and  C_10 
REMARK       I    between atoms: C_10  and  N_11 
REMARK    6  A    between atoms: N_11  and  C_12 
REMARK    7  A    between atoms: C_12  and  N_13 
REMARK    8  A    between atoms: N_13  and  C_14 
REMARK    9  A    between atoms: C_16  and  O_17 
REMARK   10  A    between atoms: C_18  and  C_19 
ROOT
HETATM    1  N   UNL     1      -4.404   5.335 -30.164  1.00  0.00    -0.333 N 
HETATM    2  H   UNL     1      -4.852   5.302 -29.255  1.00  0.00     0.168 HD
ENDROOT
BRANCH   1   3
HETATM    3  C   UNL     1      -3.551   6.375 -30.297  1.00  0.00     0.179 C 
HETATM    4  S   UNL     1      -3.560   7.249 -31.725  1.00  0.00    -0.040 SA
BRANCH   3   5
HETATM    5  N   UNL     1      -2.652   6.727 -29.341  1.00  0.00    -0.299 N 
HETATM    6  C   UNL     1      -1.265   6.610 -29.395  1.00  0.00     0.257 C 
HETATM    7  O   UNL     1      -0.635   5.889 -30.160  1.00  0.00    -0.267 OA
HETATM    8  H   UNL     1      -3.015   7.457 -28.747  1.00  0.00     0.171 HD
BRANCH   6   9
HETATM    9  C   UNL     1      -0.512   7.417 -28.386  1.00  0.00     0.032 A 
HETATM   10  C   UNL     1       0.797   7.808 -28.700  1.00  0.00     0.020 A 
HETATM   11  C   UNL     1       1.559   8.540 -27.784  1.00  0.00     0.038 A 
HETATM   12  C   UNL     1       1.005   8.903 -26.557  1.00  0.00     0.068 A 
HETATM   13  C   UNL     1      -0.297   8.524 -26.237  1.00  0.00     0.038 A 
HETATM   14  C   UNL     1      -1.064   7.799 -27.155  1.00  0.00     0.020 A 
BRANCH  12  15
HETATM   15  O   UNL     1       1.718   9.546 -25.585  1.00  0.00    -0.351 OA
BRANCH  15  16
HETATM   16  C   UNL     1       2.553   8.668 -24.822  1.00  0.00     0.175 C 
BRANCH  16  17
HETATM   17  C   UNL     1       3.736   9.472 -24.282  1.00  0.00     0.026 C 
BRANCH  17  18
HETATM   18  C   UNL     1       4.324   8.842 -23.016  1.00  0.00    -0.002 C 
HETATM   19  C   UNL     1       3.233   8.390 -22.058  1.00  0.00     0.005 C 
ENDBRANCH  17  18
ENDBRANCH  16  17
ENDBRANCH  15  16
ENDBRANCH  12  15
ENDBRANCH   6   9
ENDBRANCH   3   5
ENDBRANCH   1   3
BRANCH   1  20
HETATM   20  C   UNL     1      -4.452   4.114 -30.879  1.00  0.00     0.036 A 
HETATM   21  C   UNL     1      -5.648   3.390 -30.817  1.00  0.00     0.067 A 
HETATM   22  C   UNL     1      -5.748   2.118 -31.397  1.00  0.00     0.082 A 
HETATM   23  C   UNL     1      -4.658   1.535 -32.057  1.00  0.00     0.050 A 
HETATM   24  C   UNL     1      -3.467   2.279 -32.119  1.00  0.00     0.021 A 
HETATM   25  C   UNL     1      -3.361   3.550 -31.535  1.00  0.00     0.030 A 
BRANCH  22  26
HETATM   26  O   UNL     1      -6.931   1.436 -31.269  1.00  0.00    -0.360 OA
HETATM   27  H   UNL     1      -7.671   2.064 -31.230  1.00  0.00     0.217 HD
ENDBRANCH  22  26
BRANCH  23  28
HETATM   28  C   UNL     1      -4.663   0.191 -32.642  1.00  0.00     0.183 A 
HETATM   29  O   UNL     1      -5.738  -0.166 -33.417  1.00  0.00    -0.289 OA
HETATM   30  C   UNL     1      -5.475  -1.451 -33.786  1.00  0.00     0.107 A 
HETATM   31  C   UNL     1      -4.255  -1.806 -33.240  1.00  0.00     0.093 A 
HETATM   32  C   UNL     1      -6.271  -2.284 -34.564  1.00  0.00     0.046 A 
HETATM   33  N   UNL     1      -3.738  -0.752 -32.528  1.00  0.00    -0.221 NA
HETATM   34  C   UNL     1      -3.764  -3.096 -33.466  1.00  0.00     0.035 A 
HETATM   35  C   UNL     1      -4.537  -3.973 -34.243  1.00  0.00     0.009 A 
HETATM   36  C   UNL     1      -5.768  -3.576 -34.798  1.00  0.00    -0.059 A 
HETATM   37  C   UNL     1      -6.577  -4.561 -35.596  1.00  0.00     0.048 C 
ENDBRANCH  23  28
ENDBRANCH   1  20
TORSDOF 10
ENDMDL
MODEL 2
REMARK VINA RESULT:      -8.8      2.011     12.404
REMARK  10 active torsions:
REMARK  status: ('A' for Active; 'I' for Inactive)
REMARK    1  A    between atoms: C_2  and  C_3 
REMARK    2  A    between atoms: C_3  and  C_4 
REMARK    3  A    between atoms: C_4  and  O_5 
REMARK    4  A    between atoms: O_5  and  C_6 
REMARK    5  A    between atoms: C_9  and  C_10 
REMARK       I    between atoms: C_10  and  N_11 
REMARK    6  A    between atoms: N_11  and  C_12 
REMARK    7  A    between atoms: C_12  and  N_13 
REMARK    8  A    between atoms: N_13  and  C_14 
REMARK    9  A    between atoms: C_16  and  O_17 
REMARK   10  A    between atoms: C_18  and  C_19 
ROOT
HETATM    1  N   UNL     1      -0.972   5.018 -32.762  1.00  0.00    -0.333 N 
HETATM    2  H   UNL     1      -0.275   4.349 -33.068  1.00  0.00     0.168 HD
ENDROOT
BRANCH   1   3
HETATM    3  C   UNL     1      -2.203   4.766 -33.260  1.00  0.00     0.179 C 
HETATM    4  S   UNL     1      -2.991   5.970 -34.116  1.00  0.00    -0.040 SA
BRANCH   3   5
HETATM    5  N   UNL     1      -2.858   3.591 -33.066  1.00  0.00    -0.299 N 
HETATM    6  C   UNL     1      -3.836   3.310 -32.115  1.00  0.00     0.257 C 
HETATM    7  O   UNL     1      -4.051   3.954 -31.095  1.00  0.00    -0.267 OA
HETATM    8  H   UNL     1      -2.890   3.045 -33.913  1.00  0.00     0.171 HD
BRANCH   6   9
HETATM    9  C   UNL     1      -4.649   2.081 -32.373  1.00  0.00     0.032 A 
HETATM   10  C   UNL     1      -4.291   0.902 -31.705  1.00  0.00     0.020 A 
HETATM   11  C   UNL     1      -4.997  -0.284 -31.929  1.00  0.00     0.038 A 
HETATM   12  C   UNL     1      -6.079  -0.289 -32.808  1.00  0.00     0.068 A 
HETATM   13  C   UNL     1      -6.446   0.878 -33.473  1.00  0.00     0.038 A 
HETATM   14  C   UNL     1      -5.748   2.068 -33.244  1.00  0.00     0.020 A 
BRANCH  12  15
HETATM   15  O   UNL     1      -6.761  -1.428 -33.134  1.00  0.00    -0.351 OA
BRANCH  15  16
HETATM   16  C   UNL     1      -6.751  -1.709 -34.538  1.00  0.00     0.175 C 
BRANCH  16  17
HETATM   17  C   UNL     1      -5.424  -2.382 -34.889  1.00  0.00     0.026 C 
BRANCH  17  18
HETATM   18  C   UNL     1      -5.482  -3.899 -34.691  1.00  0.00    -0.002 C 
HETATM   19  C   UNL     1      -6.689  -4.508 -35.388  1.00  0.00     0.005 C 
ENDBRANCH  17  18
ENDBRANCH  16  17
ENDBRANCH  15  16
ENDBRANCH  12  15
ENDBRANCH   6   9
ENDBRANCH   3   5
ENDBRANCH   1   3
BRANCH   1  20
HETATM   20  C   UNL     1      -0.601   5.759 -31.615  1.00  0.00     0.036 A 
HETATM   21  C   UNL     1       0.071   5.064 -30.602  1.00  0.00     0.067 A 
HETATM   22  C   UNL     1       0.376   5.688 -29.383  1.00  0.00     0.082 A 
HETATM   23  C   UNL     1       0.019   7.022 -29.144  1.00  0.00     0.050 A 
HETATM   24  C   UNL     1      -0.646   7.708 -30.175  1.00  0.00     0.021 A 
HETATM   25  C   UNL     1      -0.957   7.087 -31.393  1.00  0.00     0.030 A 
BRANCH  22  26
HETATM   26  O   UNL     1       0.996   4.946 -28.412  1.00  0.00    -0.360 OA
HETATM   27  H   UNL     1       0.860   4.000 -28.581  1.00  0.00     0.217 HD
ENDBRANCH  22  26
BRANCH  23  28
HETATM   28  C   UNL     1       0.252   7.729 -27.882  1.00  0.00     0.183 A 
HETATM   29  O   UNL     1       1.498   7.633 -27.314  1.00  0.00    -0.289 OA
HETATM   30  C   UNL     1       1.400   8.355 -26.163  1.00  0.00     0.107 A 
HETATM   31  C   UNL     1       0.117   8.868 -26.094  1.00  0.00     0.093 A 
HETATM   32  C   UNL     1       2.388   8.554 -25.206  1.00  0.00     0.046 A 
HETATM   33  N   UNL     1      -0.600   8.479 -27.197  1.00  0.00    -0.221 NA
HETATM   34  C   UNL     1      -0.242   9.643 -24.986  1.00  0.00     0.035 A 
HETATM   35  C   UNL     1       0.725   9.867 -23.992  1.00  0.00     0.009 A 
HETATM   36  C   UNL     1       2.027   9.344 -24.099  1.00  0.00    -0.059 A 
HETATM   37  C   UNL     1       3.018   9.582 -22.994  1.00  0.00     0.048 C 
ENDBRANCH  23  28
ENDBRANCH   1  20
TORSDOF 10
ENDMDL
MODEL 3
REMARK VINA RESULT:      -8.6      2.370      3.212
REMARK  10 active torsions:
REMARK  status: ('A' for Active; 'I' for Inactive)
REMARK    1  A    between atoms: C_2  and  C_3 
REMARK    2  A    between atoms: C_3  and  C_4 
REMARK    3  A    between atoms: C_4  and  O_5 
REMARK    4  A    between atoms: O_5  and  C_6 
REMARK    5  A    between atoms: C_9  and  C_10 
REMARK       I    between atoms: C_10  and  N_11 
REMARK    6  A    between atoms: N_11  and  C_12 
REMARK    7  A    between atoms: C_12  and  N_13 
REMARK    8  A    between atoms: N_13  and  C_14 
REMARK    9  A    between atoms: C_16  and  O_17 
REMARK   10  A    between atoms: C_18  and  C_19 
ROOT
HETATM    1  N   UNL     1      -7.176   5.188 -28.843  1.00  0.00    -0.333 N 
HETATM    2  H   UNL     1      -7.294   4.900 -27.878  1.00  0.00     0.168 HD
ENDROOT
BRANCH   1   3
HETATM    3  C   UNL     1      -6.956   6.515 -28.975  1.00  0.00     0.179 C 
HETATM    4  S   UNL     1      -7.909   7.389 -30.038  1.00  0.00    -0.040 SA
BRANCH   3   5
HETATM    5  N   UNL     1      -5.967   7.175 -28.317  1.00  0.00    -0.299 N 
HETATM    6  C   UNL     1      -5.092   6.661 -27.362  1.00  0.00     0.257 C 
HETATM    7  O   UNL     1      -5.257   5.631 -26.719  1.00  0.00    -0.267 OA
HETATM    8  H   UNL     1      -5.631   7.961 -28.852  1.00  0.00     0.171 HD
BRANCH   6   9
HETATM    9  C   UNL     1      -3.876   7.488 -27.093  1.00  0.00     0.032 A 
HETATM   10  C   UNL     1      -3.052   7.120 -26.021  1.00  0.00     0.020 A 
HETATM   11  C   UNL     1      -1.918   7.873 -25.705  1.00  0.00     0.038 A 
HETATM   12  C   UNL     1      -1.591   8.988 -26.476  1.00  0.00     0.068 A 
HETATM   13  C   UNL     1      -2.399   9.360 -27.547  1.00  0.00     0.038 A 
HETATM   14  C   UNL     1      -3.531   8.603 -27.871  1.00  0.00     0.020 A 
BRANCH  12  15
HETATM   15  O   UNL     1      -0.544   9.814 -26.175  1.00  0.00    -0.351 OA
BRANCH  15  16
HETATM   16  C   UNL     1       0.689   9.115 -25.981  1.00  0.00     0.175 C 
BRANCH  16  17
HETATM   17  C   UNL     1       1.342   8.894 -27.345  1.00  0.00     0.026 C 
BRANCH  17  18
HETATM   18  C   UNL     1       1.127   7.467 -27.858  1.00  0.00    -0.002 C 
HETATM   19  C   UNL     1       0.411   7.456 -29.199  1.00  0.00     0.005 C 
ENDBRANCH  17  18
ENDBRANCH  16  17
ENDBRANCH  15  16
ENDBRANCH  12  15
ENDBRANCH   6   9
ENDBRANCH   3   5
ENDBRANCH   1   3
BRANCH   1  20
HETATM   20  C   UNL     1      -6.862   4.131 -29.729  1.00  0.00     0.036 A 
HETATM   21  C   UNL     1      -7.891   3.233 -30.036  1.00  0.00     0.067 A 
HETATM   22  C   UNL     1      -7.643   2.093 -30.813  1.00  0.00     0.082 A 
HETATM   23  C   UNL     1      -6.360   1.818 -31.306  1.00  0.00     0.050 A 
HETATM   24  C   UNL     1      -5.339   2.734 -30.997  1.00  0.00     0.021 A 
HETATM   25  C   UNL     1      -5.583   3.874 -30.216  1.00  0.00     0.030 A 
BRANCH  22  26
HETATM   26  O   UNL     1      -8.679   1.226 -31.045  1.00  0.00    -0.360 OA
HETATM   27  H   UNL     1      -9.511   1.720 -31.122  1.00  0.00     0.217 HD
ENDBRANCH  22  26
BRANCH  23  28
HETATM   28  C   UNL     1      -6.005   0.624 -32.077  1.00  0.00     0.183 A 
HETATM   29  O   UNL     1      -7.009  -0.021 -32.758  1.00  0.00    -0.289 OA
HETATM   30  C   UNL     1      -6.389  -1.084 -33.342  1.00  0.00     0.107 A 
HETATM   31  C   UNL     1      -5.048  -1.027 -33.009  1.00  0.00     0.093 A 
HETATM   32  C   UNL     1      -6.972  -2.070 -34.129  1.00  0.00     0.046 A 
HETATM   33  N   UNL     1      -4.810   0.069 -32.220  1.00  0.00    -0.221 NA
HETATM   34  C   UNL     1      -4.192  -2.028 -33.482  1.00  0.00     0.035 A 
HETATM   35  C   UNL     1      -4.739  -3.047 -34.279  1.00  0.00     0.009 A 
HETATM   36  C   UNL     1      -6.106  -3.068 -34.612  1.00  0.00    -0.059 A 
HETATM   37  C   UNL     1      -6.653  -4.198 -35.440  1.00  0.00     0.048 C 
ENDBRANCH  23  28
ENDBRANCH   1  20
TORSDOF 10
ENDMDL
MODEL 4
REMARK VINA RESULT:      -8.5      1.599      2.115
REMARK  10 active torsions:
REMARK  status: ('A' for Active; 'I' for Inactive)
REMARK    1  A    between atoms: C_2  and  C_3 
REMARK    2  A    between atoms: C_3  and  C_4 
REMARK    3  A    between atoms: C_4  and  O_5 
REMARK    4  A    between atoms: O_5  and  C_6 
REMARK    5  A    between atoms: C_9  and  C_10 
REMARK       I    between atoms: C_10  and  N_11 
REMARK    6  A    between atoms: N_11  and  C_12 
REMARK    7  A    between atoms: C_12  and  N_13 
REMARK    8  A    between atoms: N_13  and  C_14 
REMARK    9  A    between atoms: C_16  and  O_17 
REMARK   10  A    between atoms: C_18  and  C_19 
ROOT
HETATM    1  N   UNL     1      -3.921   6.308 -31.746  1.00  0.00    -0.333 N 
HETATM    2  H   UNL     1      -4.481   6.760 -31.032  1.00  0.00     0.168 HD
ENDROOT
BRANCH   1   3
HETATM    3  C   UNL     1      -2.719   6.899 -31.928  1.00  0.00     0.179 C 
HETATM    4  S   UNL     1      -2.000   6.819 -33.438  1.00  0.00    -0.040 SA
BRANCH   3   5
HETATM    5  N   UNL     1      -2.038   7.524 -30.932  1.00  0.00    -0.299 N 
HETATM    6  C   UNL     1      -2.259   7.424 -29.559  1.00  0.00     0.257 C 
HETATM    7  O   UNL     1      -3.284   7.018 -29.025  1.00  0.00    -0.267 OA
HETATM    8  H   UNL     1      -1.099   7.753 -31.217  1.00  0.00     0.171 HD
BRANCH   6   9
HETATM    9  C   UNL     1      -1.138   7.902 -28.692  1.00  0.00     0.032 A 
HETATM   10  C   UNL     1      -1.464   8.588 -27.514  1.00  0.00     0.020 A 
HETATM   11  C   UNL     1      -0.458   9.084 -26.679  1.00  0.00     0.038 A 
HETATM   12  C   UNL     1       0.880   8.876 -27.010  1.00  0.00     0.068 A 
HETATM   13  C   UNL     1       1.215   8.191 -28.175  1.00  0.00     0.038 A 
HETATM   14  C   UNL     1       0.210   7.687 -29.008  1.00  0.00     0.020 A 
BRANCH  12  15
HETATM   15  O   UNL     1       1.912   9.401 -26.284  1.00  0.00    -0.351 OA
BRANCH  15  16
HETATM   16  C   UNL     1       2.373   8.531 -25.246  1.00  0.00     0.175 C 
BRANCH  16  17
HETATM   17  C   UNL     1       3.134   9.364 -24.214  1.00  0.00     0.026 C 
BRANCH  17  18
HETATM   18  C   UNL     1       2.554   9.199 -22.807  1.00  0.00    -0.002 C 
HETATM   19  C   UNL     1       1.280  10.010 -22.627  1.00  0.00     0.005 C 
ENDBRANCH  17  18
ENDBRANCH  16  17
ENDBRANCH  15  16
ENDBRANCH  12  15
ENDBRANCH   6   9
ENDBRANCH   3   5
ENDBRANCH   1   3
BRANCH   1  20
HETATM   20  C   UNL     1      -4.333   4.991 -32.059  1.00  0.00     0.036 A 
HETATM   21  C   UNL     1      -3.600   3.945 -31.485  1.00  0.00     0.067 A 
HETATM   22  C   UNL     1      -3.863   2.611 -31.828  1.00  0.00     0.082 A 
HETATM   23  C   UNL     1      -4.865   2.285 -32.752  1.00  0.00     0.050 A 
HETATM   24  C   UNL     1      -5.598   3.346 -33.312  1.00  0.00     0.021 A 
HETATM   25  C   UNL     1      -5.335   4.682 -32.975  1.00  0.00     0.030 A 
BRANCH  22  26
HETATM   26  O   UNL     1      -3.086   1.631 -31.267  1.00  0.00    -0.360 OA
HETATM   27  H   UNL     1      -3.470   0.759 -31.454  1.00  0.00     0.217 HD
ENDBRANCH  22  26
BRANCH  23  28
HETATM   28  C   UNL     1      -5.166   0.924 -33.205  1.00  0.00     0.183 A 
HETATM   29  O   UNL     1      -4.236  -0.054 -32.954  1.00  0.00    -0.289 OA
HETATM   30  C   UNL     1      -4.773  -1.178 -33.506  1.00  0.00     0.107 A 
HETATM   31  C   UNL     1      -6.002  -0.838 -34.045  1.00  0.00     0.093 A 
HETATM   32  C   UNL     1      -4.212  -2.449 -33.545  1.00  0.00     0.046 A 
HETATM   33  N   UNL     1      -6.250   0.495 -33.834  1.00  0.00    -0.221 NA
HETATM   34  C   UNL     1      -6.753  -1.828 -34.688  1.00  0.00     0.035 A 
HETATM   35  C   UNL     1      -6.222  -3.126 -34.754  1.00  0.00     0.009 A 
HETATM   36  C   UNL     1      -4.976  -3.443 -34.182  1.00  0.00    -0.059 A 
HETATM   37  C   UNL     1      -4.433  -4.839 -34.307  1.00  0.00     0.048 C 
ENDBRANCH  23  28
ENDBRANCH   1  20
TORSDOF 10
ENDMDL
MODEL 5
REMARK VINA RESULT:      -8.3      4.208      5.172
REMARK  10 active torsions:
REMARK  status: ('A' for Active; 'I' for Inactive)
REMARK    1  A    between atoms: C_2  and  C_3 
REMARK    2  A    between atoms: C_3  and  C_4 
REMARK    3  A    between atoms: C_4  and  O_5 
REMARK    4  A    between atoms: O_5  and  C_6 
REMARK    5  A    between atoms: C_9  and  C_10 
REMARK       I    between atoms: C_10  and  N_11 
REMARK    6  A    between atoms: N_11  and  C_12 
REMARK    7  A    between atoms: C_12  and  N_13 
REMARK    8  A    between atoms: N_13  and  C_14 
REMARK    9  A    between atoms: C_16  and  O_17 
REMARK   10  A    between atoms: C_18  and  C_19 
ROOT
HETATM    1  N   UNL     1      -9.005   5.049 -29.900  1.00  0.00    -0.333 N 
HETATM    2  H   UNL     1      -9.503   4.738 -29.074  1.00  0.00     0.168 HD
ENDROOT
BRANCH   1   3
HETATM    3  C   UNL     1      -8.778   6.381 -29.911  1.00  0.00     0.179 C 
HETATM    4  S   UNL     1     -10.011   7.415 -29.448  1.00  0.00    -0.040 SA
BRANCH   3   5
HETATM    5  N   UNL     1      -7.606   6.933 -30.321  1.00  0.00    -0.299 N 
HETATM    6  C   UNL     1      -6.412   7.019 -29.606  1.00  0.00     0.257 C 
HETATM    7  O   UNL     1      -6.293   6.906 -28.393  1.00  0.00    -0.267 OA
HETATM    8  H   UNL     1      -7.524   6.919 -31.325  1.00  0.00     0.171 HD
BRANCH   6   9
HETATM    9  C   UNL     1      -5.196   7.318 -30.423  1.00  0.00     0.032 A 
HETATM   10  C   UNL     1      -4.401   8.410 -30.046  1.00  0.00     0.020 A 
HETATM   11  C   UNL     1      -3.268   8.755 -30.789  1.00  0.00     0.038 A 
HETATM   12  C   UNL     1      -2.912   7.994 -31.901  1.00  0.00     0.068 A 
HETATM   13  C   UNL     1      -3.691   6.904 -32.282  1.00  0.00     0.038 A 
HETATM   14  C   UNL     1      -4.821   6.551 -31.535  1.00  0.00     0.020 A 
BRANCH  12  15
HETATM   15  O   UNL     1      -1.866   8.321 -32.717  1.00  0.00    -0.351 OA
BRANCH  15  16
HETATM   16  C   UNL     1      -0.984   7.223 -32.972  1.00  0.00     0.175 C 
BRANCH  16  17
HETATM   17  C   UNL     1      -0.183   6.939 -31.702  1.00  0.00     0.026 C 
BRANCH  17  18
HETATM   18  C   UNL     1      -0.092   5.440 -31.407  1.00  0.00    -0.002 C 
HETATM   19  C   UNL     1       0.152   5.173 -29.930  1.00  0.00     0.005 C 
ENDBRANCH  17  18
ENDBRANCH  16  17
ENDBRANCH  15  16
ENDBRANCH  12  15
ENDBRANCH   6   9
ENDBRANCH   3   5
ENDBRANCH   1   3
BRANCH   1  20
HETATM   20  C   UNL     1      -8.331   4.016 -30.593  1.00  0.00     0.036 A 
HETATM   21  C   UNL     1      -8.868   3.623 -31.825  1.00  0.00     0.067 A 
HETATM   22  C   UNL     1      -8.335   2.532 -32.526  1.00  0.00     0.082 A 
HETATM   23  C   UNL     1      -7.250   1.805 -32.018  1.00  0.00     0.050 A 
HETATM   24  C   UNL     1      -6.716   2.218 -30.785  1.00  0.00     0.021 A 
HETATM   25  C   UNL     1      -7.249   3.305 -30.078  1.00  0.00     0.030 A 
BRANCH  22  26
HETATM   26  O   UNL     1      -8.928   2.166 -33.706  1.00  0.00    -0.360 OA
HETATM   27  H   UNL     1      -8.247   1.959 -34.367  1.00  0.00     0.217 HD
ENDBRANCH  22  26
BRANCH  23  28
HETATM   28  C   UNL     1      -6.669   0.623 -32.660  1.00  0.00     0.183 A 
HETATM   29  O   UNL     1      -7.529  -0.281 -33.235  1.00  0.00    -0.289 OA
HETATM   30  C   UNL     1      -6.714  -1.263 -33.713  1.00  0.00     0.107 A 
HETATM   31  C   UNL     1      -5.409  -0.905 -33.427  1.00  0.00     0.093 A 
HETATM   32  C   UNL     1      -7.094  -2.429 -34.367  1.00  0.00     0.046 A 
HETATM   33  N   UNL     1      -5.389   0.301 -32.773  1.00  0.00    -0.221 NA
HETATM   34  C   UNL     1      -4.374  -1.766 -33.809  1.00  0.00     0.035 A 
HETATM   35  C   UNL     1      -4.713  -2.958 -34.469  1.00  0.00     0.009 A 
HETATM   36  C   UNL     1      -6.051  -3.286 -34.759  1.00  0.00    -0.059 A 
HETATM   37  C   UNL     1      -6.367  -4.589 -35.439  1.00  0.00     0.048 C 
ENDBRANCH  23  28
ENDBRANCH   1  20
TORSDOF 10
ENDMDL
MODEL 6
REMARK VINA RESULT:      -8.3      3.012      4.101
REMARK  10 active torsions:
REMARK  status: ('A' for Active; 'I' for Inactive)
REMARK    1  A    between atoms: C_2  and  C_3 
REMARK    2  A    between atoms: C_3  and  C_4 
REMARK    3  A    between atoms: C_4  and  O_5 
REMARK    4  A    between atoms: O_5  and  C_6 
REMARK    5  A    between atoms: C_9  and  C_10 
REMARK       I    between atoms: C_10  and  N_11 
REMARK    6  A    between atoms: N_11  and  C_12 
REMARK    7  A    between atoms: C_12  and  N_13 
REMARK    8  A    between atoms: N_13  and  C_14 
REMARK    9  A    between atoms: C_16  and  O_17 
REMARK   10  A    between atoms: C_18  and  C_19 
ROOT
HETATM    1  N   UNL     1      -8.770   5.146 -29.921  1.00  0.00    -0.333 N 
HETATM    2  H   UNL     1      -9.109   4.878 -29.004  1.00  0.00     0.168 HD
ENDROOT
BRANCH   1   3
HETATM    3  C   UNL     1      -8.504   6.467 -30.021  1.00  0.00     0.179 C 
HETATM    4  S   UNL     1      -9.682   7.484 -30.641  1.00  0.00    -0.040 SA
BRANCH   3   5
HETATM    5  N   UNL     1      -7.308   7.014 -29.679  1.00  0.00    -0.299 N 
HETATM    6  C   UNL     1      -6.389   6.533 -28.749  1.00  0.00     0.257 C 
HETATM    7  O   UNL     1      -6.626   5.727 -27.857  1.00  0.00    -0.267 OA
HETATM    8  H   UNL     1      -6.932   7.573 -30.429  1.00  0.00     0.171 HD
BRANCH   6   9
HETATM    9  C   UNL     1      -5.011   7.105 -28.852  1.00  0.00     0.032 A 
HETATM   10  C   UNL     1      -4.620   8.057 -27.900  1.00  0.00     0.020 A 
HETATM   11  C   UNL     1      -3.354   8.647 -27.964  1.00  0.00     0.038 A 
HETATM   12  C   UNL     1      -2.466   8.271 -28.970  1.00  0.00     0.068 A 
HETATM   13  C   UNL     1      -2.842   7.323 -29.918  1.00  0.00     0.038 A 
HETATM   14  C   UNL     1      -4.105   6.724 -29.851  1.00  0.00     0.020 A 
BRANCH  12  15
HETATM   15  O   UNL     1      -1.247   8.864 -29.139  1.00  0.00    -0.351 OA
BRANCH  15  16
HETATM   16  C   UNL     1      -0.417   8.793 -27.975  1.00  0.00     0.175 C 
BRANCH  16  17
HETATM   17  C   UNL     1       0.847   8.009 -28.326  1.00  0.00     0.026 C 
BRANCH  17  18
HETATM   18  C   UNL     1       0.725   6.530 -27.949  1.00  0.00    -0.002 C 
HETATM   19  C   UNL     1       0.458   5.662 -29.169  1.00  0.00     0.005 C 
ENDBRANCH  17  18
ENDBRANCH  16  17
ENDBRANCH  15  16
ENDBRANCH  12  15
ENDBRANCH   6   9
ENDBRANCH   3   5
ENDBRANCH   1   3
BRANCH   1  20
HETATM   20  C   UNL     1      -8.280   4.069 -30.696  1.00  0.00     0.036 A 
HETATM   21  C   UNL     1      -8.981   2.860 -30.617  1.00  0.00     0.067 A 
HETATM   22  C   UNL     1      -8.503   1.709 -31.259  1.00  0.00     0.082 A 
HETATM   23  C   UNL     1      -7.313   1.733 -31.999  1.00  0.00     0.050 A 
HETATM   24  C   UNL     1      -6.626   2.957 -32.077  1.00  0.00     0.021 A 
HETATM   25  C   UNL     1      -7.098   4.110 -31.432  1.00  0.00     0.030 A 
BRANCH  22  26
HETATM   26  O   UNL     1      -9.208   0.542 -31.112  1.00  0.00    -0.360 OA
HETATM   27  H   UNL     1      -9.991   0.556 -31.685  1.00  0.00     0.217 HD
ENDBRANCH  22  26
BRANCH  23  28
HETATM   28  C   UNL     1      -6.718   0.565 -32.654  1.00  0.00     0.183 A 
HETATM   29  O   UNL     1      -7.566  -0.341 -33.242  1.00  0.00    -0.289 OA
HETATM   30  C   UNL     1      -6.739  -1.307 -33.730  1.00  0.00     0.107 A 
HETATM   31  C   UNL     1      -5.439  -0.939 -33.435  1.00  0.00     0.093 A 
HETATM   32  C   UNL     1      -7.105  -2.469 -34.400  1.00  0.00     0.046 A 
HETATM   33  N   UNL     1      -5.434   0.259 -32.766  1.00  0.00    -0.221 NA
HETATM   34  C   UNL     1      -4.393  -1.784 -33.824  1.00  0.00     0.035 A 
HETATM   35  C   UNL     1      -4.717  -2.972 -34.500  1.00  0.00     0.009 A 
HETATM   36  C   UNL     1      -6.051  -3.310 -34.799  1.00  0.00    -0.059 A 
HETATM   37  C   UNL     1      -6.351  -4.608 -35.495  1.00  0.00     0.048 C 
ENDBRANCH  23  28
ENDBRANCH   1  20
TORSDOF 10
ENDMDL
MODEL 7
REMARK VINA RESULT:      -8.2      5.740      9.907
REMARK  10 active torsions:
REMARK  status: ('A' for Active; 'I' for Inactive)
REMARK    1  A    between atoms: C_2  and  C_3 
REMARK    2  A    between atoms: C_3  and  C_4 
REMARK    3  A    between atoms: C_4  and  O_5 
REMARK    4  A    between atoms: O_5  and  C_6 
REMARK    5  A    between atoms: C_9  and  C_10 
REMARK       I    between atoms: C_10  and  N_11 
REMARK    6  A    between atoms: N_11  and  C_12 
REMARK    7  A    between atoms: C_12  and  N_13 
REMARK    8  A    between atoms: N_13  and  C_14 
REMARK    9  A    between atoms: C_16  and  O_17 
REMARK   10  A    between atoms: C_18  and  C_19 
ROOT
HETATM    1  N   UNL     1      -5.158   5.782 -32.155  1.00  0.00    -0.333 N 
HETATM    2  H   UNL     1      -5.176   6.557 -31.501  1.00  0.00     0.168 HD
ENDROOT
BRANCH   1   3
HETATM    3  C   UNL     1      -3.930   5.235 -32.294  1.00  0.00     0.179 C 
HETATM    4  S   UNL     1      -2.623   6.243 -32.574  1.00  0.00    -0.040 SA
BRANCH   3   5
HETATM    5  N   UNL     1      -3.704   3.896 -32.259  1.00  0.00    -0.299 N 
HETATM    6  C   UNL     1      -4.223   2.970 -31.356  1.00  0.00     0.257 C 
HETATM    7  O   UNL     1      -4.709   3.229 -30.262  1.00  0.00    -0.267 OA
HETATM    8  H   UNL     1      -3.459   3.541 -33.171  1.00  0.00     0.171 HD
BRANCH   6   9
HETATM    9  C   UNL     1      -4.124   1.538 -31.776  1.00  0.00     0.032 A 
HETATM   10  C   UNL     1      -4.928   1.106 -32.840  1.00  0.00     0.020 A 
HETATM   11  C   UNL     1      -4.899  -0.228 -33.257  1.00  0.00     0.038 A 
HETATM   12  C   UNL     1      -4.046  -1.132 -32.625  1.00  0.00     0.068 A 
HETATM   13  C   UNL     1      -3.239  -0.712 -31.571  1.00  0.00     0.038 A 
HETATM   14  C   UNL     1      -3.260   0.624 -31.156  1.00  0.00     0.020 A 
BRANCH  12  15
HETATM   15  O   UNL     1      -4.025  -2.464 -32.927  1.00  0.00    -0.351 OA
BRANCH  15  16
HETATM   16  C   UNL     1      -4.354  -2.739 -34.293  1.00  0.00     0.175 C 
BRANCH  16  17
HETATM   17  C   UNL     1      -4.770  -4.206 -34.407  1.00  0.00     0.026 C 
BRANCH  17  18
HETATM   18  C   UNL     1      -6.221  -4.353 -34.871  1.00  0.00    -0.002 C 
HETATM   19  C   UNL     1      -7.009  -3.069 -34.662  1.00  0.00     0.005 C 
ENDBRANCH  17  18
ENDBRANCH  16  17
ENDBRANCH  15  16
ENDBRANCH  12  15
ENDBRANCH   6   9
ENDBRANCH   3   5
ENDBRANCH   1   3
BRANCH   1  20
HETATM   20  C   UNL     1      -6.429   5.220 -32.422  1.00  0.00     0.036 A 
HETATM   21  C   UNL     1      -7.318   5.123 -31.345  1.00  0.00     0.067 A 
HETATM   22  C   UNL     1      -8.554   4.476 -31.489  1.00  0.00     0.082 A 
HETATM   23  C   UNL     1      -8.936   3.911 -32.713  1.00  0.00     0.050 A 
HETATM   24  C   UNL     1      -8.036   4.025 -33.787  1.00  0.00     0.021 A 
HETATM   25  C   UNL     1      -6.798   4.667 -33.645  1.00  0.00     0.030 A 
BRANCH  22  26
HETATM   26  O   UNL     1      -9.366   4.373 -30.390  1.00  0.00    -0.360 OA
HETATM   27  H   UNL     1      -8.867   4.604 -29.589  1.00  0.00     0.217 HD
ENDBRANCH  22  26
BRANCH  23  28
HETATM   28  C   UNL     1     -10.183   3.173 -32.933  1.00  0.00     0.183 A 
HETATM   29  O   UNL     1     -11.359   3.777 -32.564  1.00  0.00    -0.289 OA
HETATM   30  C   UNL     1     -12.318   2.856 -32.858  1.00  0.00     0.107 A 
HETATM   31  C   UNL     1     -11.689   1.752 -33.406  1.00  0.00     0.093 A 
HETATM   32  C   UNL     1     -13.688   2.969 -32.652  1.00  0.00     0.046 A 
HETATM   33  N   UNL     1     -10.335   1.968 -33.465  1.00  0.00    -0.221 NA
HETATM   34  C   UNL     1     -12.466   0.651 -33.783  1.00  0.00     0.035 A 
HETATM   35  C   UNL     1     -13.855   0.721 -33.589  1.00  0.00     0.009 A 
HETATM   36  C   UNL     1     -14.466   1.865 -33.043  1.00  0.00    -0.059 A 
HETATM   37  C   UNL     1     -15.953   1.881 -32.822  1.00  0.00     0.048 C 
ENDBRANCH  23  28
ENDBRANCH   1  20
TORSDOF 10
ENDMDL
MODEL 8
REMARK VINA RESULT:      -8.1      4.772     11.203
REMARK  10 active torsions:
REMARK  status: ('A' for Active; 'I' for Inactive)
REMARK    1  A    between atoms: C_2  and  C_3 
REMARK    2  A    between atoms: C_3  and  C_4 
REMARK    3  A    between atoms: C_4  and  O_5 
REMARK    4  A    between atoms: O_5  and  C_6 
REMARK    5  A    between atoms: C_9  and  C_10 
REMARK       I    between atoms: C_10  and  N_11 
REMARK    6  A    between atoms: N_11  and  C_12 
REMARK    7  A    between atoms: C_12  and  N_13 
REMARK    8  A    between atoms: N_13  and  C_14 
REMARK    9  A    between atoms: C_16  and  O_17 
REMARK   10  A    between atoms: C_18  and  C_19 
ROOT
HETATM    1  N   UNL     1     -10.151   4.675 -30.974  1.00  0.00    -0.333 N 
HETATM    2  H   UNL     1     -10.783   5.388 -30.627  1.00  0.00     0.168 HD
ENDROOT
BRANCH   1   3
HETATM    3  C   UNL     1     -10.779   3.710 -31.682  1.00  0.00     0.179 C 
HETATM    4  S   UNL     1     -12.423   3.856 -31.964  1.00  0.00    -0.040 SA
BRANCH   3   5
HETATM    5  N   UNL     1     -10.151   2.599 -32.146  1.00  0.00    -0.299 N 
HETATM    6  C   UNL     1      -9.594   2.402 -33.408  1.00  0.00     0.257 C 
HETATM    7  O   UNL     1      -9.844   3.057 -34.413  1.00  0.00    -0.267 OA
HETATM    8  H   UNL     1      -9.748   2.063 -31.393  1.00  0.00     0.171 HD
BRANCH   6   9
HETATM    9  C   UNL     1      -8.641   1.255 -33.519  1.00  0.00     0.032 A 
HETATM   10  C   UNL     1      -8.446   0.680 -34.782  1.00  0.00     0.020 A 
HETATM   11  C   UNL     1      -7.589  -0.414 -34.940  1.00  0.00     0.038 A 
HETATM   12  C   UNL     1      -6.906  -0.923 -33.836  1.00  0.00     0.068 A 
HETATM   13  C   UNL     1      -7.089  -0.356 -32.578  1.00  0.00     0.038 A 
HETATM   14  C   UNL     1      -7.939   0.743 -32.418  1.00  0.00     0.020 A 
BRANCH  12  15
HETATM   15  O   UNL     1      -6.118  -2.037 -33.904  1.00  0.00    -0.351 OA
BRANCH  15  16
HETATM   16  C   UNL     1      -6.727  -3.117 -34.620  1.00  0.00     0.175 C 
BRANCH  16  17
HETATM   17  C   UNL     1      -5.663  -4.183 -34.887  1.00  0.00     0.026 C 
BRANCH  17  18
HETATM   18  C   UNL     1      -4.306  -3.796 -34.295  1.00  0.00    -0.002 C 
HETATM   19  C   UNL     1      -3.696  -4.940 -33.499  1.00  0.00     0.005 C 
ENDBRANCH  17  18
ENDBRANCH  16  17
ENDBRANCH  15  16
ENDBRANCH  12  15
ENDBRANCH   6   9
ENDBRANCH   3   5
ENDBRANCH   1   3
BRANCH   1  20
HETATM   20  C   UNL     1      -8.792   5.067 -30.998  1.00  0.00     0.036 A 
HETATM   21  C   UNL     1      -8.313   5.621 -32.191  1.00  0.00     0.067 A 
HETATM   22  C   UNL     1      -6.954   5.932 -32.345  1.00  0.00     0.082 A 
HETATM   23  C   UNL     1      -6.037   5.699 -31.311  1.00  0.00     0.050 A 
HETATM   24  C   UNL     1      -6.536   5.152 -30.116  1.00  0.00     0.021 A 
HETATM   25  C   UNL     1      -7.893   4.835 -29.960  1.00  0.00     0.030 A 
BRANCH  22  26
HETATM   26  O   UNL     1      -6.534   6.432 -33.550  1.00  0.00    -0.360 OA
HETATM   27  H   UNL     1      -5.693   6.018 -33.804  1.00  0.00     0.217 HD
ENDBRANCH  22  26
BRANCH  23  28
HETATM   28  C   UNL     1      -4.595   5.945 -31.409  1.00  0.00     0.183 A 
HETATM   29  O   UNL     1      -3.747   4.923 -31.060  1.00  0.00    -0.289 OA
HETATM   30  C   UNL     1      -2.501   5.450 -31.224  1.00  0.00     0.107 A 
HETATM   31  C   UNL     1      -2.648   6.748 -31.679  1.00  0.00     0.093 A 
HETATM   32  C   UNL     1      -1.284   4.826 -30.980  1.00  0.00     0.046 A 
HETATM   33  N   UNL     1      -3.981   7.048 -31.809  1.00  0.00    -0.221 NA
HETATM   34  C   UNL     1      -1.501   7.515 -31.914  1.00  0.00     0.035 A 
HETATM   35  C   UNL     1      -0.249   6.925 -31.677  1.00  0.00     0.009 A 
HETATM   36  C   UNL     1      -0.133   5.596 -31.228  1.00  0.00    -0.059 A 
HETATM   37  C   UNL     1       1.228   5.018 -30.956  1.00  0.00     0.048 C 
ENDBRANCH  23  28
ENDBRANCH   1  20
TORSDOF 10
ENDMDL
MODEL 9
REMARK VINA RESULT:      -7.9      6.461     10.524
REMARK  10 active torsions:
REMARK  status: ('A' for Active; 'I' for Inactive)
REMARK    1  A    between atoms: C_2  and  C_3 
REMARK    2  A    between atoms: C_3  and  C_4 
REMARK    3  A    between atoms: C_4  and  O_5 
REMARK    4  A    between atoms: O_5  and  C_6 
REMARK    5  A    between atoms: C_9  and  C_10 
REMARK       I    between atoms: C_10  and  N_11 
REMARK    6  A    between atoms: N_11  and  C_12 
REMARK    7  A    between atoms: C_12  and  N_13 
REMARK    8  A    between atoms: N_13  and  C_14 
REMARK    9  A    between atoms: C_16  and  O_17 
REMARK   10  A    between atoms: C_18  and  C_19 
ROOT
HETATM    1  N   UNL     1      -7.274   5.935 -30.520  1.00  0.00    -0.333 N 
HETATM    2  H   UNL     1      -6.621   6.383 -29.887  1.00  0.00     0.168 HD
ENDROOT
BRANCH   1   3
HETATM    3  C   UNL     1      -8.131   6.805 -31.101  1.00  0.00     0.179 C 
HETATM    4  S   UNL     1      -7.648   8.394 -31.310  1.00  0.00    -0.040 SA
BRANCH   3   5
HETATM    5  N   UNL     1      -9.387   6.465 -31.490  1.00  0.00    -0.299 N 
HETATM    6  C   UNL     1      -9.762   5.781 -32.645  1.00  0.00     0.257 C 
HETATM    7  O   UNL     1      -9.080   5.647 -33.653  1.00  0.00    -0.267 OA
HETATM    8  H   UNL     1     -10.006   6.377 -30.699  1.00  0.00     0.171 HD
BRANCH   6   9
HETATM    9  C   UNL     1     -11.144   5.209 -32.632  1.00  0.00     0.032 A 
HETATM   10  C   UNL     1     -11.544   4.480 -31.504  1.00  0.00     0.020 A 
HETATM   11  C   UNL     1     -12.814   3.897 -31.448  1.00  0.00     0.038 A 
HETATM   12  C   UNL     1     -13.698   4.061 -32.514  1.00  0.00     0.068 A 
HETATM   13  C   UNL     1     -13.312   4.788 -33.637  1.00  0.00     0.038 A 
HETATM   14  C   UNL     1     -12.045   5.379 -33.693  1.00  0.00     0.020 A 
BRANCH  12  15
HETATM   15  O   UNL     1     -14.921   3.454 -32.560  1.00  0.00    -0.351 OA
BRANCH  15  16
HETATM   16  C   UNL     1     -14.856   2.037 -32.372  1.00  0.00     0.175 C 
BRANCH  16  17
HETATM   17  C   UNL     1     -14.674   1.373 -33.737  1.00  0.00     0.026 C 
BRANCH  17  18
HETATM   18  C   UNL     1     -13.564   0.319 -33.717  1.00  0.00    -0.002 C 
HETATM   19  C   UNL     1     -12.185   0.956 -33.801  1.00  0.00     0.005 C 
ENDBRANCH  17  18
ENDBRANCH  16  17
ENDBRANCH  15  16
ENDBRANCH  12  15
ENDBRANCH   6   9
ENDBRANCH   3   5
ENDBRANCH   1   3
BRANCH   1  20
HETATM   20  C   UNL     1      -6.877   4.645 -30.946  1.00  0.00     0.036 A 
HETATM   21  C   UNL     1      -5.822   4.577 -31.863  1.00  0.00     0.067 A 
HETATM   22  C   UNL     1      -5.437   3.352 -32.426  1.00  0.00     0.082 A 
HETATM   23  C   UNL     1      -6.095   2.161 -32.087  1.00  0.00     0.050 A 
HETATM   24  C   UNL     1      -7.145   2.245 -31.158  1.00  0.00     0.021 A 
HETATM   25  C   UNL     1      -7.536   3.469 -30.596  1.00  0.00     0.030 A 
BRANCH  22  26
HETATM   26  O   UNL     1      -4.426   3.351 -33.351  1.00  0.00    -0.360 OA
HETATM   27  H   UNL     1      -4.433   2.516 -33.847  1.00  0.00     0.217 HD
ENDBRANCH  22  26
BRANCH  23  28
HETATM   28  C   UNL     1      -5.791   0.851 -32.669  1.00  0.00     0.183 A 
HETATM   29  O   UNL     1      -6.819   0.161 -33.264  1.00  0.00    -0.289 OA
HETATM   30  C   UNL     1      -6.247  -1.005 -33.676  1.00  0.00     0.107 A 
HETATM   31  C   UNL     1      -4.907  -0.963 -33.333  1.00  0.00     0.093 A 
HETATM   32  C   UNL     1      -6.870  -2.068 -34.319  1.00  0.00     0.046 A 
HETATM   33  N   UNL     1      -4.623   0.226 -32.709  1.00  0.00    -0.221 NA
HETATM   34  C   UNL     1      -4.097  -2.061 -33.640  1.00  0.00     0.035 A 
HETATM   35  C   UNL     1      -4.686  -3.160 -34.287  1.00  0.00     0.009 A 
HETATM   36  C   UNL     1      -6.049  -3.165 -34.636  1.00  0.00    -0.059 A 
HETATM   37  C   UNL     1      -6.643  -4.378 -35.298  1.00  0.00     0.048 C 
ENDBRANCH  23  28
ENDBRANCH   1  20
TORSDOF 10
ENDMDL
MODEL 10
REMARK VINA RESULT:      -7.9      6.889      9.498
REMARK  10 active torsions:
REMARK  status: ('A' for Active; 'I' for Inactive)
REMARK    1  A    between atoms: C_2  and  C_3 
REMARK    2  A    between atoms: C_3  and  C_4 
REMARK    3  A    between atoms: C_4  and  O_5 
REMARK    4  A    between atoms: O_5  and  C_6 
REMARK    5  A    between atoms: C_9  and  C_10 
REMARK       I    between atoms: C_10  and  N_11 
REMARK    6  A    between atoms: N_11  and  C_12 
REMARK    7  A    between atoms: C_12  and  N_13 
REMARK    8  A    between atoms: N_13  and  C_14 
REMARK    9  A    between atoms: C_16  and  O_17 
REMARK   10  A    between atoms: C_18  and  C_19 
ROOT
HETATM    1  N   UNL     1      -7.792   6.081 -28.841  1.00  0.00    -0.333 N 
HETATM    2  H   UNL     1      -7.003   6.618 -28.498  1.00  0.00     0.168 HD
ENDROOT
BRANCH   1   3
HETATM    3  C   UNL     1      -8.918   6.817 -28.966  1.00  0.00     0.179 C 
HETATM    4  S   UNL     1      -9.278   7.496 -30.454  1.00  0.00    -0.040 SA
BRANCH   3   5
HETATM    5  N   UNL     1      -9.760   7.072 -27.931  1.00  0.00    -0.299 N 
HETATM    6  C   UNL     1      -9.641   8.067 -26.962  1.00  0.00     0.257 C 
HETATM    7  O   UNL     1      -8.615   8.675 -26.682  1.00  0.00    -0.267 OA
HETATM    8  H   UNL     1     -10.697   6.758 -28.133  1.00  0.00     0.171 HD
BRANCH   6   9
HETATM    9  C   UNL     1     -10.885   8.363 -26.188  1.00  0.00     0.032 A 
HETATM   10  C   UNL     1     -11.006   7.818 -24.902  1.00  0.00     0.020 A 
HETATM   11  C   UNL     1     -12.160   8.037 -24.143  1.00  0.00     0.038 A 
HETATM   12  C   UNL     1     -13.189   8.822 -24.661  1.00  0.00     0.068 A 
HETATM   13  C   UNL     1     -13.077   9.372 -25.935  1.00  0.00     0.038 A 
HETATM   14  C   UNL     1     -11.921   9.162 -26.693  1.00  0.00     0.020 A 
BRANCH  12  15
HETATM   15  O   UNL     1     -14.375   9.010 -24.008  1.00  0.00    -0.351 OA
BRANCH  15  16
HETATM   16  C   UNL     1     -14.847   7.833 -23.343  1.00  0.00     0.175 C 
BRANCH  16  17
HETATM   17  C   UNL     1     -15.817   7.105 -24.274  1.00  0.00     0.026 C 
BRANCH  17  18
HETATM   18  C   UNL     1     -15.219   5.805 -24.819  1.00  0.00    -0.002 C 
HETATM   19  C   UNL     1     -14.775   5.957 -26.266  1.00  0.00     0.005 C 
ENDBRANCH  17  18
ENDBRANCH  16  17
ENDBRANCH  15  16
ENDBRANCH  12  15
ENDBRANCH   6   9
ENDBRANCH   3   5
ENDBRANCH   1   3
BRANCH   1  20
HETATM   20  C   UNL     1      -7.436   4.867 -29.475  1.00  0.00     0.036 A 
HETATM   21  C   UNL     1      -6.068   4.605 -29.620  1.00  0.00     0.067 A 
HETATM   22  C   UNL     1      -5.623   3.485 -30.336  1.00  0.00     0.082 A 
HETATM   23  C   UNL     1      -6.531   2.595 -30.925  1.00  0.00     0.050 A 
HETATM   24  C   UNL     1      -7.901   2.867 -30.762  1.00  0.00     0.021 A 
HETATM   25  C   UNL     1      -8.350   3.989 -30.051  1.00  0.00     0.030 A 
BRANCH  22  26
HETATM   26  O   UNL     1      -4.273   3.302 -30.483  1.00  0.00    -0.360 OA
HETATM   27  H   UNL     1      -4.017   2.436 -30.124  1.00  0.00     0.217 HD
ENDBRANCH  22  26
BRANCH  23  28
HETATM   28  C   UNL     1      -6.150   1.434 -31.734  1.00  0.00     0.183 A 
HETATM   29  O   UNL     1      -7.156   0.675 -32.280  1.00  0.00    -0.289 OA
HETATM   30  C   UNL     1      -6.505  -0.325 -32.937  1.00  0.00     0.107 A 
HETATM   31  C   UNL     1      -5.146  -0.120 -32.777  1.00  0.00     0.093 A 
HETATM   32  C   UNL     1      -7.073  -1.379 -33.642  1.00  0.00     0.046 A 
HETATM   33  N   UNL     1      -4.930   1.008 -32.026  1.00  0.00    -0.221 NA
HETATM   34  C   UNL     1      -4.254  -1.031 -33.353  1.00  0.00     0.035 A 
HETATM   35  C   UNL     1      -4.784  -2.115 -34.072  1.00  0.00     0.009 A 
HETATM   36  C   UNL     1      -6.172  -2.286 -34.229  1.00  0.00    -0.059 A 
HETATM   37  C   UNL     1      -6.694  -3.480 -34.979  1.00  0.00     0.048 C 
ENDBRANCH  23  28
ENDBRANCH   1  20
TORSDOF 10
ENDMDL
