MODEL 1
REMARK VINA RESULT:     -11.2      0.000      0.000
REMARK  6 active torsions:
REMARK  status: ('A' for Active; 'I' for Inactive)
REMARK    1  A    between atoms: C_2  and  N_3 
REMARK    2  A    between atoms: C_2  and  C_32 
REMARK       I    between atoms: N_3  and  C_4 
REMARK    3  A    between atoms: C_4  and  C_5 
REMARK    4  A    between atoms: C_6  and  N_7 
REMARK       I    between atoms: N_7  and  C_8 
REMARK    5  A    between atoms: C_8  and  C_9 
REMARK    6  A    between atoms: C_9  and  N_10 
ROOT
HETATM    1  N   UNL     1      -4.485   3.698 -32.313  1.00  0.00    -0.325 N 
HETATM    2  C   UNL     1      -4.223   4.315 -33.519  1.00  0.00     0.240 C 
HETATM    3  O   UNL     1      -5.087   4.706 -34.305  1.00  0.00    -0.271 OA
HETATM    4  H   UNL     1      -3.755   3.708 -31.599  1.00  0.00     0.169 HD
ENDROOT
BRANCH   1   5
HETATM    5  C   UNL     1      -5.698   3.065 -31.935  1.00  0.00     0.050 A 
HETATM    6  C   UNL     1      -5.816   1.662 -32.004  1.00  0.00     0.058 A 
HETATM    7  C   UNL     1      -7.047   1.040 -31.722  1.00  0.00     0.019 A 
HETATM    8  C   UNL     1      -8.149   1.799 -31.335  1.00  0.00     0.001 A 
HETATM    9  C   UNL     1      -8.031   3.179 -31.236  1.00  0.00     0.002 A 
HETATM   10  C   UNL     1      -6.819   3.807 -31.539  1.00  0.00     0.030 A 
BRANCH   6  11
HETATM   11  C   UNL     1      -4.640   0.815 -32.358  1.00  0.00     0.254 C 
HETATM   12  N   UNL     1      -4.913  -0.519 -32.559  1.00  0.00    -0.349 N 
HETATM   13  H   UNL     1      -5.854  -0.863 -32.429  1.00  0.00     0.163 HD
HETATM   14  O   UNL     1      -3.519   1.311 -32.417  1.00  0.00    -0.268 OA
BRANCH  12  15
HETATM   15  C   UNL     1      -3.940  -1.467 -33.075  1.00  0.00     0.114 C 
HETATM   16  C   UNL     1      -3.040  -1.964 -31.943  1.00  0.00     0.037 C 
BRANCH  15  17
HETATM   17  C   UNL     1      -4.693  -2.568 -33.804  1.00  0.00    -0.036 A 
HETATM   18  C   UNL     1      -5.977  -2.295 -34.307  1.00  0.00     0.009 A 
HETATM   19  C   UNL     1      -6.728  -3.288 -34.937  1.00  0.00     0.001 A 
HETATM   20  C   UNL     1      -6.213  -4.575 -35.064  1.00  0.00     0.000 A 
HETATM   21  C   UNL     1      -4.948  -4.869 -34.559  1.00  0.00     0.001 A 
HETATM   22  C   UNL     1      -4.195  -3.875 -33.928  1.00  0.00     0.009 A 
ENDBRANCH  15  17
ENDBRANCH  12  15
ENDBRANCH   6  11
ENDBRANCH   1   5
BRANCH   2  23
HETATM   23  C   UNL     1      -2.758   4.669 -33.766  1.00  0.00     0.240 C 
BRANCH  23  24
HETATM   24  N   UNL     1      -2.248   5.748 -32.946  1.00  0.00    -0.259 N 
HETATM   25  C   UNL     1      -1.874   6.949 -33.463  1.00  0.00     0.326 C 
HETATM   26  O   UNL     1      -2.096   7.378 -34.582  1.00  0.00    -0.247 OA
HETATM   27  N   UNL     1      -1.102   7.604 -32.535  1.00  0.00    -0.324 N 
HETATM   28  C   UNL     1      -0.980   6.872 -31.285  1.00  0.00     0.120 C 
HETATM   29  H   UNL     1      -0.746   8.533 -32.719  1.00  0.00     0.165 HD
HETATM   30  C   UNL     1      -1.869   7.525 -30.219  1.00  0.00     0.080 C 
HETATM   31  C   UNL     1       0.474   6.742 -30.846  1.00  0.00     0.046 C 
HETATM   32  C   UNL     1      -1.579   5.535 -31.769  1.00  0.00     0.257 C 
HETATM   33  C   UNL     1      -1.540   7.143 -28.799  1.00  0.00    -0.049 A 
HETATM   34  C   UNL     1      -0.362   6.456 -28.465  1.00  0.00    -0.052 A 
HETATM   35  C   UNL     1      -2.425   7.532 -27.780  1.00  0.00     0.007 A 
HETATM   36  C   UNL     1       0.615   5.999 -29.518  1.00  0.00     0.042 C 
HETATM   37  C   UNL     1      -0.116   6.130 -27.122  1.00  0.00     0.007 A 
HETATM   38  C   UNL     1      -1.008   6.513 -26.121  1.00  0.00     0.001 A 
HETATM   39  C   UNL     1      -2.160   7.219 -26.449  1.00  0.00     0.001 A 
HETATM   40  O   UNL     1      -1.491   4.459 -31.196  1.00  0.00    -0.270 OA
ENDBRANCH  23  24
ENDBRANCH   2  23
TORSDOF 6
ENDMDL
MODEL 2
REMARK VINA RESULT:     -10.8      3.555      7.084
REMARK  6 active torsions:
REMARK  status: ('A' for Active; 'I' for Inactive)
REMARK    1  A    between atoms: C_2  and  N_3 
REMARK    2  A    between atoms: C_2  and  C_32 
REMARK       I    between atoms: N_3  and  C_4 
REMARK    3  A    between atoms: C_4  and  C_5 
REMARK    4  A    between atoms: C_6  and  N_7 
REMARK       I    between atoms: N_7  and  C_8 
REMARK    5  A    between atoms: C_8  and  C_9 
REMARK    6  A    between atoms: C_9  and  N_10 
ROOT
HETATM    1  N   UNL     1      -7.659  -0.750 -34.027  1.00  0.00    -0.325 N 
HETATM    2  C   UNL     1      -7.798   0.446 -34.702  1.00  0.00     0.240 C 
HETATM    3  O   UNL     1      -7.196   0.739 -35.736  1.00  0.00    -0.271 OA
HETATM    4  H   UNL     1      -8.409  -1.035 -33.395  1.00  0.00     0.169 HD
ENDROOT
BRANCH   1   5
HETATM    5  C   UNL     1      -6.579  -1.662 -34.142  1.00  0.00     0.050 A 
HETATM    6  C   UNL     1      -5.407  -1.474 -33.380  1.00  0.00     0.058 A 
HETATM    7  C   UNL     1      -4.299  -2.322 -33.564  1.00  0.00     0.019 A 
HETATM    8  C   UNL     1      -4.360  -3.378 -34.470  1.00  0.00     0.001 A 
HETATM    9  C   UNL     1      -5.522  -3.587 -35.203  1.00  0.00     0.002 A 
HETATM   10  C   UNL     1      -6.618  -2.733 -35.046  1.00  0.00     0.030 A 
BRANCH   6  11
HETATM   11  C   UNL     1      -5.330  -0.390 -32.359  1.00  0.00     0.254 C 
HETATM   12  N   UNL     1      -4.503   0.663 -32.678  1.00  0.00    -0.349 N 
HETATM   13  H   UNL     1      -3.976   0.644 -33.540  1.00  0.00     0.163 HD
HETATM   14  O   UNL     1      -5.950  -0.491 -31.304  1.00  0.00    -0.268 OA
BRANCH  12  15
HETATM   15  C   UNL     1      -4.427   1.887 -31.898  1.00  0.00     0.114 C 
HETATM   16  C   UNL     1      -3.341   1.761 -30.828  1.00  0.00     0.037 C 
BRANCH  15  17
HETATM   17  C   UNL     1      -4.226   3.048 -32.859  1.00  0.00    -0.036 A 
HETATM   18  C   UNL     1      -2.962   3.658 -32.932  1.00  0.00     0.009 A 
HETATM   19  C   UNL     1      -2.743   4.760 -33.760  1.00  0.00     0.001 A 
HETATM   20  C   UNL     1      -3.788   5.278 -34.521  1.00  0.00     0.000 A 
HETATM   21  C   UNL     1      -5.052   4.696 -34.451  1.00  0.00     0.001 A 
HETATM   22  C   UNL     1      -5.272   3.592 -33.622  1.00  0.00     0.009 A 
ENDBRANCH  15  17
ENDBRANCH  12  15
ENDBRANCH   6  11
ENDBRANCH   1   5
BRANCH   2  23
HETATM   23  C   UNL     1      -8.911   1.358 -34.189  1.00  0.00     0.240 C 
BRANCH  23  24
HETATM   24  N   UNL     1      -8.736   1.824 -32.829  1.00  0.00    -0.259 N 
HETATM   25  C   UNL     1      -9.189   1.129 -31.752  1.00  0.00     0.326 C 
HETATM   26  O   UNL     1      -9.586  -0.023 -31.722  1.00  0.00    -0.247 OA
HETATM   27  N   UNL     1      -9.218   1.972 -30.667  1.00  0.00    -0.324 N 
HETATM   28  C   UNL     1      -8.702   3.297 -30.970  1.00  0.00     0.120 C 
HETATM   29  H   UNL     1      -9.501   1.637 -29.756  1.00  0.00     0.165 HD
HETATM   30  C   UNL     1      -7.296   3.448 -30.375  1.00  0.00     0.080 C 
HETATM   31  C   UNL     1      -9.659   4.394 -30.516  1.00  0.00     0.046 C 
HETATM   32  C   UNL     1      -8.646   3.153 -32.505  1.00  0.00     0.257 C 
HETATM   33  C   UNL     1      -6.812   4.870 -30.248  1.00  0.00    -0.049 A 
HETATM   34  C   UNL     1      -7.670   5.969 -30.416  1.00  0.00    -0.052 A 
HETATM   35  C   UNL     1      -5.468   5.090 -29.905  1.00  0.00     0.007 A 
HETATM   36  C   UNL     1      -9.117   5.794 -30.801  1.00  0.00     0.042 C 
HETATM   37  C   UNL     1      -7.155   7.267 -30.284  1.00  0.00     0.007 A 
HETATM   38  C   UNL     1      -5.815   7.473 -29.954  1.00  0.00     0.001 A 
HETATM   39  C   UNL     1      -4.972   6.383 -29.758  1.00  0.00     0.001 A 
HETATM   40  O   UNL     1      -8.525   4.066 -33.309  1.00  0.00    -0.270 OA
ENDBRANCH  23  24
ENDBRANCH   2  23
TORSDOF 6
ENDMDL
MODEL 3
REMARK VINA RESULT:     -10.8      2.103      9.806
REMARK  6 active torsions:
REMARK  status: ('A' for Active; 'I' for Inactive)
REMARK    1  A    between atoms: C_2  and  N_3 
REMARK    2  A    between atoms: C_2  and  C_32 
REMARK       I    between atoms: N_3  and  C_4 
REMARK    3  A    between atoms: C_4  and  C_5 
REMARK    4  A    between atoms: C_6  and  N_7 
REMARK       I    between atoms: N_7  and  C_8 
REMARK    5  A    between atoms: C_8  and  C_9 
REMARK    6  A    between atoms: C_9  and  N_10 
ROOT
HETATM    1  N   UNL     1      -4.455   5.602 -32.864  1.00  0.00    -0.325 N 
HETATM    2  C   UNL     1      -4.809   5.002 -31.673  1.00  0.00     0.240 C 
HETATM    3  O   UNL     1      -4.065   4.898 -30.696  1.00  0.00    -0.271 OA
HETATM    4  H   UNL     1      -5.204   5.931 -33.476  1.00  0.00     0.169 HD
ENDROOT
BRANCH   1   5
HETATM    5  C   UNL     1      -3.137   5.846 -33.328  1.00  0.00     0.050 A 
HETATM    6  C   UNL     1      -2.386   6.914 -32.798  1.00  0.00     0.058 A 
HETATM    7  C   UNL     1      -1.115   7.217 -33.324  1.00  0.00     0.019 A 
HETATM    8  C   UNL     1      -0.572   6.441 -34.346  1.00  0.00     0.001 A 
HETATM    9  C   UNL     1      -1.295   5.369 -34.853  1.00  0.00     0.002 A 
HETATM   10  C   UNL     1      -2.568   5.078 -34.354  1.00  0.00     0.030 A 
BRANCH   6  11
HETATM   11  C   UNL     1      -2.913   7.727 -31.664  1.00  0.00     0.254 C 
HETATM   12  N   UNL     1      -2.330   7.480 -30.442  1.00  0.00    -0.349 N 
HETATM   13  H   UNL     1      -1.622   6.765 -30.358  1.00  0.00     0.163 HD
HETATM   14  O   UNL     1      -3.831   8.520 -31.849  1.00  0.00    -0.268 OA
BRANCH  12  15
HETATM   15  C   UNL     1      -2.583   8.284 -29.257  1.00  0.00     0.114 C 
HETATM   16  C   UNL     1      -3.572   7.566 -28.337  1.00  0.00     0.037 C 
BRANCH  15  17
HETATM   17  C   UNL     1      -1.246   8.604 -28.609  1.00  0.00    -0.036 A 
HETATM   18  C   UNL     1      -0.143   7.777 -28.883  1.00  0.00     0.009 A 
HETATM   19  C   UNL     1       1.092   8.001 -28.271  1.00  0.00     0.001 A 
HETATM   20  C   UNL     1       1.241   9.048 -27.365  1.00  0.00     0.000 A 
HETATM   21  C   UNL     1       0.155   9.869 -27.070  1.00  0.00     0.001 A 
HETATM   22  C   UNL     1      -1.082   9.647 -27.682  1.00  0.00     0.009 A 
ENDBRANCH  15  17
ENDBRANCH  12  15
ENDBRANCH   6  11
ENDBRANCH   1   5
BRANCH   2  23
HETATM   23  C   UNL     1      -6.281   4.615 -31.548  1.00  0.00     0.240 C 
BRANCH  23  24
HETATM   24  N   UNL     1      -6.519   3.214 -31.269  1.00  0.00    -0.259 N 
HETATM   25  C   UNL     1      -7.080   2.781 -30.109  1.00  0.00     0.326 C 
HETATM   26  O   UNL     1      -7.646   3.450 -29.262  1.00  0.00    -0.247 OA
HETATM   27  N   UNL     1      -6.832   1.436 -29.977  1.00  0.00    -0.324 N 
HETATM   28  C   UNL     1      -6.129   0.879 -31.120  1.00  0.00     0.120 C 
HETATM   29  H   UNL     1      -7.193   0.917 -29.188  1.00  0.00     0.165 HD
HETATM   30  C   UNL     1      -7.108   0.071 -31.981  1.00  0.00     0.080 C 
HETATM   31  C   UNL     1      -4.908   0.070 -30.694  1.00  0.00     0.046 C 
HETATM   32  C   UNL     1      -5.753   2.210 -31.803  1.00  0.00     0.257 C 
HETATM   33  C   UNL     1      -6.460  -0.888 -32.947  1.00  0.00    -0.049 A 
HETATM   34  C   UNL     1      -5.093  -1.202 -32.883  1.00  0.00    -0.052 A 
HETATM   35  C   UNL     1      -7.268  -1.516 -33.909  1.00  0.00     0.007 A 
HETATM   36  C   UNL     1      -4.175  -0.547 -31.884  1.00  0.00     0.042 C 
HETATM   37  C   UNL     1      -4.552  -2.103 -33.814  1.00  0.00     0.007 A 
HETATM   38  C   UNL     1      -5.364  -2.711 -34.771  1.00  0.00     0.001 A 
HETATM   39  C   UNL     1      -6.724  -2.422 -34.816  1.00  0.00     0.001 A 
HETATM   40  O   UNL     1      -4.921   2.355 -32.687  1.00  0.00    -0.270 OA
ENDBRANCH  23  24
ENDBRANCH   2  23
TORSDOF 6
ENDMDL
MODEL 4
REMARK VINA RESULT:     -10.7      2.363      9.186
REMARK  6 active torsions:
REMARK  status: ('A' for Active; 'I' for Inactive)
REMARK    1  A    between atoms: C_2  and  N_3 
REMARK    2  A    between atoms: C_2  and  C_32 
REMARK       I    between atoms: N_3  and  C_4 
REMARK    3  A    between atoms: C_4  and  C_5 
REMARK    4  A    between atoms: C_6  and  N_7 
REMARK       I    between atoms: N_7  and  C_8 
REMARK    5  A    between atoms: C_8  and  C_9 
REMARK    6  A    between atoms: C_9  and  N_10 
ROOT
HETATM    1  N   UNL     1      -5.902   3.855 -29.557  1.00  0.00    -0.325 N 
HETATM    2  C   UNL     1      -6.563   2.693 -29.898  1.00  0.00     0.240 C 
HETATM    3  O   UNL     1      -7.702   2.650 -30.366  1.00  0.00    -0.271 OA
HETATM    4  H   UNL     1      -4.882   3.826 -29.495  1.00  0.00     0.169 HD
ENDROOT
BRANCH   1   5
HETATM    5  C   UNL     1      -6.492   5.121 -29.309  1.00  0.00     0.050 A 
HETATM    6  C   UNL     1      -6.006   6.270 -29.963  1.00  0.00     0.058 A 
HETATM    7  C   UNL     1      -6.526   7.540 -29.647  1.00  0.00     0.019 A 
HETATM    8  C   UNL     1      -7.552   7.669 -28.713  1.00  0.00     0.001 A 
HETATM    9  C   UNL     1      -8.056   6.537 -28.086  1.00  0.00     0.002 A 
HETATM   10  C   UNL     1      -7.527   5.276 -28.376  1.00  0.00     0.030 A 
BRANCH   6  11
HETATM   11  C   UNL     1      -4.950   6.160 -31.011  1.00  0.00     0.254 C 
HETATM   12  N   UNL     1      -3.740   6.732 -30.690  1.00  0.00    -0.349 N 
HETATM   13  H   UNL     1      -3.630   7.214 -29.810  1.00  0.00     0.163 HD
HETATM   14  O   UNL     1      -5.201   5.621 -32.085  1.00  0.00    -0.268 OA
BRANCH  12  15
HETATM   15  C   UNL     1      -2.543   6.581 -31.500  1.00  0.00     0.114 C 
HETATM   16  C   UNL     1      -2.281   7.862 -32.295  1.00  0.00     0.037 C 
BRANCH  15  17
HETATM   17  C   UNL     1      -1.401   6.170 -30.585  1.00  0.00    -0.036 A 
HETATM   18  C   UNL     1      -1.319   6.742 -29.304  1.00  0.00     0.009 A 
HETATM   19  C   UNL     1      -0.260   6.435 -28.447  1.00  0.00     0.001 A 
HETATM   20  C   UNL     1       0.741   5.560 -28.862  1.00  0.00     0.000 A 
HETATM   21  C   UNL     1       0.684   4.995 -30.134  1.00  0.00     0.001 A 
HETATM   22  C   UNL     1      -0.376   5.301 -30.993  1.00  0.00     0.009 A 
ENDBRANCH  15  17
ENDBRANCH  12  15
ENDBRANCH   6  11
ENDBRANCH   1   5
BRANCH   2  23
HETATM   23  C   UNL     1      -5.721   1.420 -29.837  1.00  0.00     0.240 C 
BRANCH  23  24
HETATM   24  N   UNL     1      -5.207   0.971 -31.114  1.00  0.00    -0.259 N 
HETATM   25  C   UNL     1      -4.382   1.731 -31.881  1.00  0.00     0.326 C 
HETATM   26  O   UNL     1      -3.791   2.747 -31.558  1.00  0.00    -0.247 OA
HETATM   27  N   UNL     1      -4.373   1.219 -33.156  1.00  0.00    -0.324 N 
HETATM   28  C   UNL     1      -5.169   0.009 -33.282  1.00  0.00     0.120 C 
HETATM   29  H   UNL     1      -3.794   1.629 -33.877  1.00  0.00     0.165 HD
HETATM   30  C   UNL     1      -4.240  -1.210 -33.360  1.00  0.00     0.080 C 
HETATM   31  C   UNL     1      -6.140   0.090 -34.455  1.00  0.00     0.046 C 
HETATM   32  C   UNL     1      -5.878   0.083 -31.914  1.00  0.00     0.257 C 
HETATM   33  C   UNL     1      -4.883  -2.463 -33.898  1.00  0.00    -0.049 A 
HETATM   34  C   UNL     1      -6.144  -2.448 -34.515  1.00  0.00    -0.052 A 
HETATM   35  C   UNL     1      -4.168  -3.669 -33.815  1.00  0.00     0.007 A 
HETATM   36  C   UNL     1      -6.963  -1.187 -34.617  1.00  0.00     0.042 C 
HETATM   37  C   UNL     1      -6.686  -3.651 -34.995  1.00  0.00     0.007 A 
HETATM   38  C   UNL     1      -5.971  -4.844 -34.896  1.00  0.00     0.001 A 
HETATM   39  C   UNL     1      -4.709  -4.853 -34.312  1.00  0.00     0.001 A 
HETATM   40  O   UNL     1      -6.868  -0.553 -31.582  1.00  0.00    -0.270 OA
ENDBRANCH  23  24
ENDBRANCH   2  23
TORSDOF 6
ENDMDL
MODEL 5
REMARK VINA RESULT:     -10.6      2.183      3.385
REMARK  6 active torsions:
REMARK  status: ('A' for Active; 'I' for Inactive)
REMARK    1  A    between atoms: C_2  and  N_3 
REMARK    2  A    between atoms: C_2  and  C_32 
REMARK       I    between atoms: N_3  and  C_4 
REMARK    3  A    between atoms: C_4  and  C_5 
REMARK    4  A    between atoms: C_6  and  N_7 
REMARK       I    between atoms: N_7  and  C_8 
REMARK    5  A    between atoms: C_8  and  C_9 
REMARK    6  A    between atoms: C_9  and  N_10 
ROOT
HETATM    1  N   UNL     1      -6.780   2.938 -33.591  1.00  0.00    -0.325 N 
HETATM    2  C   UNL     1      -6.035   3.240 -32.469  1.00  0.00     0.240 C 
HETATM    3  O   UNL     1      -6.500   3.370 -31.336  1.00  0.00    -0.271 OA
HETATM    4  H   UNL     1      -6.296   2.534 -34.394  1.00  0.00     0.169 HD
ENDROOT
BRANCH   1   5
HETATM    5  C   UNL     1      -8.181   3.101 -33.742  1.00  0.00     0.050 A 
HETATM    6  C   UNL     1      -9.051   2.020 -33.497  1.00  0.00     0.058 A 
HETATM    7  C   UNL     1     -10.431   2.152 -33.739  1.00  0.00     0.019 A 
HETATM    8  C   UNL     1     -10.957   3.362 -34.186  1.00  0.00     0.001 A 
HETATM    9  C   UNL     1     -10.109   4.441 -34.402  1.00  0.00     0.002 A 
HETATM   10  C   UNL     1      -8.733   4.310 -34.189  1.00  0.00     0.030 A 
BRANCH   6  11
HETATM   11  C   UNL     1      -8.529   0.729 -32.961  1.00  0.00     0.254 C 
HETATM   12  N   UNL     1      -7.689   0.038 -33.805  1.00  0.00    -0.349 N 
HETATM   13  H   UNL     1      -7.497   0.400 -34.728  1.00  0.00     0.163 HD
HETATM   14  O   UNL     1      -8.881   0.334 -31.854  1.00  0.00    -0.268 OA
BRANCH  12  15
HETATM   15  C   UNL     1      -6.947  -1.145 -33.403  1.00  0.00     0.114 C 
HETATM   16  C   UNL     1      -6.750  -2.074 -34.603  1.00  0.00     0.037 C 
BRANCH  15  17
HETATM   17  C   UNL     1      -5.653  -0.691 -32.747  1.00  0.00    -0.036 A 
HETATM   18  C   UNL     1      -4.469  -0.698 -33.503  1.00  0.00     0.009 A 
HETATM   19  C   UNL     1      -3.248  -0.340 -32.929  1.00  0.00     0.001 A 
HETATM   20  C   UNL     1      -3.189   0.021 -31.586  1.00  0.00     0.000 A 
HETATM   21  C   UNL     1      -4.350   0.021 -30.816  1.00  0.00     0.001 A 
HETATM   22  C   UNL     1      -5.574  -0.338 -31.390  1.00  0.00     0.009 A 
ENDBRANCH  15  17
ENDBRANCH  12  15
ENDBRANCH   6  11
ENDBRANCH   1   5
BRANCH   2  23
HETATM   23  C   UNL     1      -4.521   3.228 -32.669  1.00  0.00     0.240 C 
BRANCH  23  24
HETATM   24  N   UNL     1      -3.905   4.538 -32.719  1.00  0.00    -0.259 N 
HETATM   25  C   UNL     1      -4.069   5.387 -33.768  1.00  0.00     0.326 C 
HETATM   26  O   UNL     1      -4.880   5.302 -34.674  1.00  0.00    -0.247 OA
HETATM   27  N   UNL     1      -3.093   6.352 -33.708  1.00  0.00    -0.324 N 
HETATM   28  C   UNL     1      -2.245   6.224 -32.534  1.00  0.00     0.120 C 
HETATM   29  H   UNL     1      -3.060   7.100 -34.388  1.00  0.00     0.165 HD
HETATM   30  C   UNL     1      -2.624   7.300 -31.508  1.00  0.00     0.080 C 
HETATM   31  C   UNL     1      -0.766   6.247 -32.900  1.00  0.00     0.046 C 
HETATM   32  C   UNL     1      -2.726   4.829 -32.083  1.00  0.00     0.257 C 
HETATM   33  C   UNL     1      -1.586   7.554 -30.445  1.00  0.00    -0.049 A 
HETATM   34  C   UNL     1      -0.283   7.039 -30.536  1.00  0.00    -0.052 A 
HETATM   35  C   UNL     1      -1.931   8.371 -29.356  1.00  0.00     0.007 A 
HETATM   36  C   UNL     1       0.138   6.142 -31.672  1.00  0.00     0.042 C 
HETATM   37  C   UNL     1       0.636   7.313 -29.511  1.00  0.00     0.007 A 
HETATM   38  C   UNL     1       0.278   8.117 -28.429  1.00  0.00     0.001 A 
HETATM   39  C   UNL     1      -1.004   8.652 -28.354  1.00  0.00     0.001 A 
HETATM   40  O   UNL     1      -2.164   4.100 -31.277  1.00  0.00    -0.270 OA
ENDBRANCH  23  24
ENDBRANCH   2  23
TORSDOF 6
ENDMDL
MODEL 6
REMARK VINA RESULT:     -10.6      4.611      8.761
REMARK  6 active torsions:
REMARK  status: ('A' for Active; 'I' for Inactive)
REMARK    1  A    between atoms: C_2  and  N_3 
REMARK    2  A    between atoms: C_2  and  C_32 
REMARK       I    between atoms: N_3  and  C_4 
REMARK    3  A    between atoms: C_4  and  C_5 
REMARK    4  A    between atoms: C_6  and  N_7 
REMARK       I    between atoms: N_7  and  C_8 
REMARK    5  A    between atoms: C_8  and  C_9 
REMARK    6  A    between atoms: C_9  and  N_10 
ROOT
HETATM    1  N   UNL     1      -7.905   4.307 -30.929  1.00  0.00    -0.325 N 
HETATM    2  C   UNL     1      -8.078   3.017 -30.472  1.00  0.00     0.240 C 
HETATM    3  O   UNL     1      -9.169   2.459 -30.352  1.00  0.00    -0.271 OA
HETATM    4  H   UNL     1      -6.989   4.566 -31.302  1.00  0.00     0.169 HD
ENDROOT
BRANCH   1   5
HETATM    5  C   UNL     1      -8.890   5.327 -30.970  1.00  0.00     0.050 A 
HETATM    6  C   UNL     1      -9.834   5.360 -32.017  1.00  0.00     0.058 A 
HETATM    7  C   UNL     1     -10.750   6.424 -32.113  1.00  0.00     0.019 A 
HETATM    8  C   UNL     1     -10.761   7.434 -31.154  1.00  0.00     0.001 A 
HETATM    9  C   UNL     1      -9.853   7.393 -30.103  1.00  0.00     0.002 A 
HETATM   10  C   UNL     1      -8.922   6.354 -30.016  1.00  0.00     0.030 A 
BRANCH   6  11
HETATM   11  C   UNL     1      -9.888   4.262 -33.026  1.00  0.00     0.254 C 
HETATM   12  N   UNL     1     -10.877   3.326 -32.825  1.00  0.00    -0.349 N 
HETATM   13  H   UNL     1     -11.477   3.396 -32.016  1.00  0.00     0.163 HD
HETATM   14  O   UNL     1      -9.064   4.218 -33.935  1.00  0.00    -0.268 OA
BRANCH  12  15
HETATM   15  C   UNL     1     -11.201   2.284 -33.785  1.00  0.00     0.114 C 
HETATM   16  C   UNL     1     -10.306   1.064 -33.559  1.00  0.00     0.037 C 
BRANCH  15  17
HETATM   17  C   UNL     1     -12.690   1.995 -33.684  1.00  0.00    -0.036 A 
HETATM   18  C   UNL     1     -13.455   2.697 -32.737  1.00  0.00     0.009 A 
HETATM   19  C   UNL     1     -14.815   2.428 -32.571  1.00  0.00     0.001 A 
HETATM   20  C   UNL     1     -15.429   1.444 -33.341  1.00  0.00     0.000 A 
HETATM   21  C   UNL     1     -14.684   0.728 -34.275  1.00  0.00     0.001 A 
HETATM   22  C   UNL     1     -13.322   0.996 -34.442  1.00  0.00     0.009 A 
ENDBRANCH  15  17
ENDBRANCH  12  15
ENDBRANCH   6  11
ENDBRANCH   1   5
BRANCH   2  23
HETATM   23  C   UNL     1      -6.792   2.214 -30.283  1.00  0.00     0.240 C 
BRANCH  23  24
HETATM   24  N   UNL     1      -6.174   1.760 -31.511  1.00  0.00    -0.259 N 
HETATM   25  C   UNL     1      -5.482   2.590 -32.336  1.00  0.00     0.326 C 
HETATM   26  O   UNL     1      -5.094   3.720 -32.098  1.00  0.00    -0.247 OA
HETATM   27  N   UNL     1      -5.351   1.982 -33.561  1.00  0.00    -0.324 N 
HETATM   28  C   UNL     1      -5.910   0.640 -33.586  1.00  0.00     0.120 C 
HETATM   29  H   UNL     1      -4.838   2.428 -34.310  1.00  0.00     0.165 HD
HETATM   30  C   UNL     1      -4.775  -0.390 -33.550  1.00  0.00     0.080 C 
HETATM   31  C   UNL     1      -6.852   0.443 -34.769  1.00  0.00     0.046 C 
HETATM   32  C   UNL     1      -6.654   0.700 -32.236  1.00  0.00     0.257 C 
HETATM   33  C   UNL     1      -5.166  -1.780 -33.981  1.00  0.00    -0.049 A 
HETATM   34  C   UNL     1      -6.394  -2.049 -34.607  1.00  0.00    -0.052 A 
HETATM   35  C   UNL     1      -4.247  -2.824 -33.786  1.00  0.00     0.007 A 
HETATM   36  C   UNL     1      -7.426  -0.972 -34.826  1.00  0.00     0.042 C 
HETATM   37  C   UNL     1      -6.697  -3.366 -34.984  1.00  0.00     0.007 A 
HETATM   38  C   UNL     1      -5.780  -4.397 -34.775  1.00  0.00     0.001 A 
HETATM   39  C   UNL     1      -4.552  -4.125 -34.182  1.00  0.00     0.001 A 
HETATM   40  O   UNL     1      -7.520  -0.076 -31.857  1.00  0.00    -0.270 OA
ENDBRANCH  23  24
ENDBRANCH   2  23
TORSDOF 6
ENDMDL
MODEL 7
REMARK VINA RESULT:     -10.6      2.489      8.714
REMARK  6 active torsions:
REMARK  status: ('A' for Active; 'I' for Inactive)
REMARK    1  A    between atoms: C_2  and  N_3 
REMARK    2  A    between atoms: C_2  and  C_32 
REMARK       I    between atoms: N_3  and  C_4 
REMARK    3  A    between atoms: C_4  and  C_5 
REMARK    4  A    between atoms: C_6  and  N_7 
REMARK       I    between atoms: N_7  and  C_8 
REMARK    5  A    between atoms: C_8  and  C_9 
REMARK    6  A    between atoms: C_9  and  N_10 
ROOT
HETATM    1  N   UNL     1      -7.653   4.634 -31.442  1.00  0.00    -0.325 N 
HETATM    2  C   UNL     1      -7.406   4.826 -32.786  1.00  0.00     0.240 C 
HETATM    3  O   UNL     1      -6.538   5.575 -33.236  1.00  0.00    -0.271 OA
HETATM    4  H   UNL     1      -8.141   3.782 -31.161  1.00  0.00     0.169 HD
ENDROOT
BRANCH   1   5
HETATM    5  C   UNL     1      -7.268   5.495 -30.382  1.00  0.00     0.050 A 
HETATM    6  C   UNL     1      -5.996   5.363 -29.789  1.00  0.00     0.058 A 
HETATM    7  C   UNL     1      -5.648   6.150 -28.675  1.00  0.00     0.019 A 
HETATM    8  C   UNL     1      -6.540   7.093 -28.171  1.00  0.00     0.001 A 
HETATM    9  C   UNL     1      -7.785   7.249 -28.769  1.00  0.00     0.002 A 
HETATM   10  C   UNL     1      -8.148   6.453 -29.859  1.00  0.00     0.030 A 
BRANCH   6  11
HETATM   11  C   UNL     1      -4.994   4.404 -30.341  1.00  0.00     0.254 C 
HETATM   12  N   UNL     1      -4.007   4.967 -31.118  1.00  0.00    -0.349 N 
HETATM   13  H   UNL     1      -4.019   5.960 -31.304  1.00  0.00     0.163 HD
HETATM   14  O   UNL     1      -5.107   3.202 -30.123  1.00  0.00    -0.268 OA
BRANCH  12  15
HETATM   15  C   UNL     1      -2.850   4.230 -31.600  1.00  0.00     0.114 C 
HETATM   16  C   UNL     1      -3.131   3.666 -32.994  1.00  0.00     0.037 C 
BRANCH  15  17
HETATM   17  C   UNL     1      -1.642   5.149 -31.531  1.00  0.00    -0.036 A 
HETATM   18  C   UNL     1      -0.674   4.925 -30.536  1.00  0.00     0.009 A 
HETATM   19  C   UNL     1       0.425   5.774 -30.400  1.00  0.00     0.001 A 
HETATM   20  C   UNL     1       0.570   6.868 -31.249  1.00  0.00     0.000 A 
HETATM   21  C   UNL     1      -0.385   7.115 -32.232  1.00  0.00     0.001 A 
HETATM   22  C   UNL     1      -1.487   6.265 -32.369  1.00  0.00     0.009 A 
ENDBRANCH  15  17
ENDBRANCH  12  15
ENDBRANCH   6  11
ENDBRANCH   1   5
BRANCH   2  23
HETATM   23  C   UNL     1      -8.166   3.895 -33.729  1.00  0.00     0.240 C 
BRANCH  23  24
HETATM   24  N   UNL     1      -8.236   2.516 -33.294  1.00  0.00    -0.259 N 
HETATM   25  C   UNL     1      -9.208   2.057 -32.461  1.00  0.00     0.326 C 
HETATM   26  O   UNL     1     -10.240   2.621 -32.141  1.00  0.00    -0.247 OA
HETATM   27  N   UNL     1      -8.806   0.851 -31.941  1.00  0.00    -0.324 N 
HETATM   28  C   UNL     1      -7.531   0.403 -32.476  1.00  0.00     0.120 C 
HETATM   29  H   UNL     1      -9.406   0.329 -31.316  1.00  0.00     0.165 HD
HETATM   30  C   UNL     1      -7.768  -0.721 -33.493  1.00  0.00     0.080 C 
HETATM   31  C   UNL     1      -6.560   0.007 -31.370  1.00  0.00     0.046 C 
HETATM   32  C   UNL     1      -7.129   1.716 -33.180  1.00  0.00     0.257 C 
HETATM   33  C   UNL     1      -6.552  -1.551 -33.815  1.00  0.00    -0.049 A 
HETATM   34  C   UNL     1      -5.371  -1.468 -33.060  1.00  0.00    -0.052 A 
HETATM   35  C   UNL     1      -6.629  -2.465 -34.879  1.00  0.00     0.007 A 
HETATM   36  C   UNL     1      -5.225  -0.494 -31.919  1.00  0.00     0.042 C 
HETATM   37  C   UNL     1      -4.274  -2.269 -33.414  1.00  0.00     0.007 A 
HETATM   38  C   UNL     1      -4.360  -3.165 -34.479  1.00  0.00     0.001 A 
HETATM   39  C   UNL     1      -5.540  -3.268 -35.208  1.00  0.00     0.001 A 
HETATM   40  O   UNL     1      -6.012   2.000 -33.588  1.00  0.00    -0.270 OA
ENDBRANCH  23  24
ENDBRANCH   2  23
TORSDOF 6
ENDMDL
MODEL 8
REMARK VINA RESULT:     -10.5      2.458      3.820
REMARK  6 active torsions:
REMARK  status: ('A' for Active; 'I' for Inactive)
REMARK    1  A    between atoms: C_2  and  N_3 
REMARK    2  A    between atoms: C_2  and  C_32 
REMARK       I    between atoms: N_3  and  C_4 
REMARK    3  A    between atoms: C_4  and  C_5 
REMARK    4  A    between atoms: C_6  and  N_7 
REMARK       I    between atoms: N_7  and  C_8 
REMARK    5  A    between atoms: C_8  and  C_9 
REMARK    6  A    between atoms: C_9  and  N_10 
ROOT
HETATM    1  N   UNL     1      -8.567   3.876 -32.061  1.00  0.00    -0.325 N 
HETATM    2  C   UNL     1      -8.015   3.746 -30.803  1.00  0.00     0.240 C 
HETATM    3  O   UNL     1      -7.894   2.678 -30.201  1.00  0.00    -0.271 OA
HETATM    4  H   UNL     1      -8.334   4.710 -32.603  1.00  0.00     0.169 HD
ENDROOT
BRANCH   1   5
HETATM    5  C   UNL     1      -9.416   2.943 -32.711  1.00  0.00     0.050 A 
HETATM    6  C   UNL     1      -8.865   1.927 -33.519  1.00  0.00     0.058 A 
HETATM    7  C   UNL     1      -9.707   1.061 -34.241  1.00  0.00     0.019 A 
HETATM    8  C   UNL     1     -11.092   1.173 -34.135  1.00  0.00     0.001 A 
HETATM    9  C   UNL     1     -11.641   2.153 -33.318  1.00  0.00     0.002 A 
HETATM   10  C   UNL     1     -10.812   3.034 -32.618  1.00  0.00     0.030 A 
BRANCH   6  11
HETATM   11  C   UNL     1      -7.387   1.742 -33.607  1.00  0.00     0.254 C 
HETATM   12  N   UNL     1      -6.908   0.568 -33.071  1.00  0.00    -0.349 N 
HETATM   13  H   UNL     1      -7.544  -0.078 -32.627  1.00  0.00     0.163 HD
HETATM   14  O   UNL     1      -6.685   2.621 -34.097  1.00  0.00    -0.268 OA
BRANCH  12  15
HETATM   15  C   UNL     1      -5.530   0.128 -33.212  1.00  0.00     0.114 C 
HETATM   16  C   UNL     1      -4.807   0.227 -31.868  1.00  0.00     0.037 C 
BRANCH  15  17
HETATM   17  C   UNL     1      -5.539  -1.267 -33.815  1.00  0.00    -0.036 A 
HETATM   18  C   UNL     1      -6.767  -1.833 -34.199  1.00  0.00     0.009 A 
HETATM   19  C   UNL     1      -6.831  -3.131 -34.709  1.00  0.00     0.001 A 
HETATM   20  C   UNL     1      -5.670  -3.889 -34.833  1.00  0.00     0.000 A 
HETATM   21  C   UNL     1      -4.445  -3.350 -34.445  1.00  0.00     0.001 A 
HETATM   22  C   UNL     1      -4.379  -2.051 -33.934  1.00  0.00     0.009 A 
ENDBRANCH  15  17
ENDBRANCH  12  15
ENDBRANCH   6  11
ENDBRANCH   1   5
BRANCH   2  23
HETATM   23  C   UNL     1      -7.371   5.010 -30.239  1.00  0.00     0.240 C 
BRANCH  23  24
HETATM   24  N   UNL     1      -6.357   5.604 -31.084  1.00  0.00    -0.259 N 
HETATM   25  C   UNL     1      -6.656   6.291 -32.219  1.00  0.00     0.326 C 
HETATM   26  O   UNL     1      -7.749   6.695 -32.577  1.00  0.00    -0.247 OA
HETATM   27  N   UNL     1      -5.518   6.396 -32.981  1.00  0.00    -0.324 N 
HETATM   28  C   UNL     1      -4.351   5.823 -32.333  1.00  0.00     0.120 C 
HETATM   29  H   UNL     1      -5.525   6.901 -33.858  1.00  0.00     0.165 HD
HETATM   30  C   UNL     1      -3.455   6.948 -31.799  1.00  0.00     0.080 C 
HETATM   31  C   UNL     1      -3.608   4.860 -33.253  1.00  0.00     0.046 C 
HETATM   32  C   UNL     1      -5.085   5.101 -31.184  1.00  0.00     0.257 C 
HETATM   33  C   UNL     1      -2.041   6.535 -31.480  1.00  0.00    -0.049 A 
HETATM   34  C   UNL     1      -1.518   5.295 -31.879  1.00  0.00    -0.052 A 
HETATM   35  C   UNL     1      -1.216   7.446 -30.801  1.00  0.00     0.007 A 
HETATM   36  C   UNL     1      -2.362   4.271 -32.594  1.00  0.00     0.042 C 
HETATM   37  C   UNL     1      -0.193   4.972 -31.549  1.00  0.00     0.007 A 
HETATM   38  C   UNL     1       0.613   5.881 -30.865  1.00  0.00     0.001 A 
HETATM   39  C   UNL     1       0.104   7.122 -30.495  1.00  0.00     0.001 A 
HETATM   40  O   UNL     1      -4.614   4.234 -30.462  1.00  0.00    -0.270 OA
ENDBRANCH  23  24
ENDBRANCH   2  23
TORSDOF 6
ENDMDL
MODEL 9
REMARK VINA RESULT:     -10.3      2.889      4.931
REMARK  6 active torsions:
REMARK  status: ('A' for Active; 'I' for Inactive)
REMARK    1  A    between atoms: C_2  and  N_3 
REMARK    2  A    between atoms: C_2  and  C_32 
REMARK       I    between atoms: N_3  and  C_4 
REMARK    3  A    between atoms: C_4  and  C_5 
REMARK    4  A    between atoms: C_6  and  N_7 
REMARK       I    between atoms: N_7  and  C_8 
REMARK    5  A    between atoms: C_8  and  C_9 
REMARK    6  A    between atoms: C_9  and  N_10 
ROOT
HETATM    1  N   UNL     1      -9.716   3.896 -31.678  1.00  0.00    -0.325 N 
HETATM    2  C   UNL     1      -9.243   5.133 -32.067  1.00  0.00     0.240 C 
HETATM    3  O   UNL     1      -9.607   5.732 -33.080  1.00  0.00    -0.271 OA
HETATM    4  H   UNL     1      -9.619   3.632 -30.696  1.00  0.00     0.169 HD
ENDROOT
BRANCH   1   5
HETATM    5  C   UNL     1     -10.368   2.944 -32.504  1.00  0.00     0.050 A 
HETATM    6  C   UNL     1      -9.617   1.961 -33.180  1.00  0.00     0.058 A 
HETATM    7  C   UNL     1     -10.250   1.077 -34.075  1.00  0.00     0.019 A 
HETATM    8  C   UNL     1     -11.628   1.138 -34.271  1.00  0.00     0.001 A 
HETATM    9  C   UNL     1     -12.378   2.085 -33.585  1.00  0.00     0.002 A 
HETATM   10  C   UNL     1     -11.753   2.984 -32.715  1.00  0.00     0.030 A 
BRANCH   6  11
HETATM   11  C   UNL     1      -8.150   1.830 -32.947  1.00  0.00     0.254 C 
HETATM   12  N   UNL     1      -7.750   0.654 -32.355  1.00  0.00    -0.349 N 
HETATM   13  H   UNL     1      -8.441  -0.030 -32.080  1.00  0.00     0.163 HD
HETATM   14  O   UNL     1      -7.394   2.750 -33.245  1.00  0.00    -0.268 OA
BRANCH  12  15
HETATM   15  C   UNL     1      -6.358   0.266 -32.203  1.00  0.00     0.114 C 
HETATM   16  C   UNL     1      -6.038   0.024 -30.726  1.00  0.00     0.037 C 
BRANCH  15  17
HETATM   17  C   UNL     1      -6.100  -0.932 -33.102  1.00  0.00    -0.036 A 
HETATM   18  C   UNL     1      -4.780  -1.390 -33.261  1.00  0.00     0.009 A 
HETATM   19  C   UNL     1      -4.488  -2.453 -34.117  1.00  0.00     0.001 A 
HETATM   20  C   UNL     1      -5.508  -3.068 -34.837  1.00  0.00     0.000 A 
HETATM   21  C   UNL     1      -6.820  -2.619 -34.704  1.00  0.00     0.001 A 
HETATM   22  C   UNL     1      -7.115  -1.554 -33.847  1.00  0.00     0.009 A 
ENDBRANCH  15  17
ENDBRANCH  12  15
ENDBRANCH   6  11
ENDBRANCH   1   5
BRANCH   2  23
HETATM   23  C   UNL     1      -8.344   5.836 -31.052  1.00  0.00     0.240 C 
BRANCH  23  24
HETATM   24  N   UNL     1      -7.012   5.281 -30.934  1.00  0.00    -0.259 N 
HETATM   25  C   UNL     1      -6.694   4.320 -30.027  1.00  0.00     0.326 C 
HETATM   26  O   UNL     1      -7.459   3.644 -29.361  1.00  0.00    -0.247 OA
HETATM   27  N   UNL     1      -5.327   4.274 -29.897  1.00  0.00    -0.324 N 
HETATM   28  C   UNL     1      -4.645   5.189 -30.796  1.00  0.00     0.120 C 
HETATM   29  H   UNL     1      -4.886   3.599 -29.285  1.00  0.00     0.165 HD
HETATM   30  C   UNL     1      -4.026   4.401 -31.958  1.00  0.00     0.080 C 
HETATM   31  C   UNL     1      -3.629   6.054 -30.059  1.00  0.00     0.046 C 
HETATM   32  C   UNL     1      -5.882   5.986 -31.259  1.00  0.00     0.257 C 
HETATM   33  C   UNL     1      -2.961   5.138 -32.728  1.00  0.00    -0.049 A 
HETATM   34  C   UNL     1      -2.402   6.340 -32.264  1.00  0.00    -0.052 A 
HETATM   35  C   UNL     1      -2.487   4.573 -33.923  1.00  0.00     0.007 A 
HETATM   36  C   UNL     1      -2.882   7.002 -30.997  1.00  0.00     0.042 C 
HETATM   37  C   UNL     1      -1.413   6.977 -33.029  1.00  0.00     0.007 A 
HETATM   38  C   UNL     1      -0.959   6.411 -34.220  1.00  0.00     0.001 A 
HETATM   39  C   UNL     1      -1.492   5.205 -34.665  1.00  0.00     0.001 A 
HETATM   40  O   UNL     1      -5.868   7.064 -31.837  1.00  0.00    -0.270 OA
ENDBRANCH  23  24
ENDBRANCH   2  23
TORSDOF 6
ENDMDL
MODEL 10
REMARK VINA RESULT:     -10.1      3.136      8.948
REMARK  6 active torsions:
REMARK  status: ('A' for Active; 'I' for Inactive)
REMARK    1  A    between atoms: C_2  and  N_3 
REMARK    2  A    between atoms: C_2  and  C_32 
REMARK       I    between atoms: N_3  and  C_4 
REMARK    3  A    between atoms: C_4  and  C_5 
REMARK    4  A    between atoms: C_6  and  N_7 
REMARK       I    between atoms: N_7  and  C_8 
REMARK    5  A    between atoms: C_8  and  C_9 
REMARK    6  A    between atoms: C_9  and  N_10 
ROOT
HETATM    1  N   UNL     1      -8.545   5.519 -33.457  1.00  0.00    -0.325 N 
HETATM    2  C   UNL     1      -9.801   4.982 -33.652  1.00  0.00     0.240 C 
HETATM    3  O   UNL     1     -10.846   5.479 -33.231  1.00  0.00    -0.271 OA
HETATM    4  H   UNL     1      -7.798   5.239 -34.096  1.00  0.00     0.169 HD
ENDROOT
BRANCH   1   5
HETATM    5  C   UNL     1      -8.176   6.463 -32.465  1.00  0.00     0.050 A 
HETATM    6  C   UNL     1      -6.902   6.399 -31.863  1.00  0.00     0.058 A 
HETATM    7  C   UNL     1      -6.570   7.274 -30.812  1.00  0.00     0.019 A 
HETATM    8  C   UNL     1      -7.480   8.237 -30.380  1.00  0.00     0.001 A 
HETATM    9  C   UNL     1      -8.726   8.325 -30.988  1.00  0.00     0.002 A 
HETATM   10  C   UNL     1      -9.073   7.443 -32.015  1.00  0.00     0.030 A 
BRANCH   6  11
HETATM   11  C   UNL     1      -5.884   5.420 -32.342  1.00  0.00     0.254 C 
HETATM   12  N   UNL     1      -4.998   5.902 -33.279  1.00  0.00    -0.349 N 
HETATM   13  H   UNL     1      -5.092   6.849 -33.618  1.00  0.00     0.163 HD
HETATM   14  O   UNL     1      -5.897   4.265 -31.928  1.00  0.00    -0.268 OA
BRANCH  12  15
HETATM   15  C   UNL     1      -3.835   5.161 -33.737  1.00  0.00     0.114 C 
HETATM   16  C   UNL     1      -3.740   5.224 -35.263  1.00  0.00     0.037 C 
BRANCH  15  17
HETATM   17  C   UNL     1      -2.614   5.703 -33.012  1.00  0.00    -0.036 A 
HETATM   18  C   UNL     1      -2.392   7.091 -33.000  1.00  0.00     0.009 A 
HETATM   19  C   UNL     1      -1.258   7.631 -32.392  1.00  0.00     0.001 A 
HETATM   20  C   UNL     1      -0.320   6.791 -31.796  1.00  0.00     0.000 A 
HETATM   21  C   UNL     1      -0.515   5.412 -31.811  1.00  0.00     0.001 A 
HETATM   22  C   UNL     1      -1.651   4.870 -32.419  1.00  0.00     0.009 A 
ENDBRANCH  15  17
ENDBRANCH  12  15
ENDBRANCH   6  11
ENDBRANCH   1   5
BRANCH   2  23
HETATM   23  C   UNL     1      -9.860   3.790 -34.605  1.00  0.00     0.240 C 
BRANCH  23  24
HETATM   24  N   UNL     1      -9.670   2.500 -33.976  1.00  0.00    -0.259 N 
HETATM   25  C   UNL     1     -10.613   1.922 -33.185  1.00  0.00     0.326 C 
HETATM   26  O   UNL     1     -11.780   2.250 -33.059  1.00  0.00    -0.247 OA
HETATM   27  N   UNL     1     -10.019   0.925 -32.450  1.00  0.00    -0.324 N 
HETATM   28  C   UNL     1      -8.616   0.741 -32.781  1.00  0.00     0.120 C 
HETATM   29  H   UNL     1     -10.562   0.353 -31.817  1.00  0.00     0.165 HD
HETATM   30  C   UNL     1      -8.451  -0.523 -33.634  1.00  0.00     0.080 C 
HETATM   31  C   UNL     1      -7.737   0.734 -31.535  1.00  0.00     0.046 C 
HETATM   32  C   UNL     1      -8.434   2.016 -33.631  1.00  0.00     0.257 C 
HETATM   33  C   UNL     1      -7.045  -1.062 -33.703  1.00  0.00    -0.049 A 
HETATM   34  C   UNL     1      -6.027  -0.600 -32.854  1.00  0.00    -0.052 A 
HETATM   35  C   UNL     1      -6.768  -2.091 -34.618  1.00  0.00     0.007 A 
HETATM   36  C   UNL     1      -6.262   0.513 -31.865  1.00  0.00     0.042 C 
HETATM   37  C   UNL     1      -4.739  -1.145 -32.970  1.00  0.00     0.007 A 
HETATM   38  C   UNL     1      -4.473  -2.159 -33.891  1.00  0.00     0.001 A 
HETATM   39  C   UNL     1      -5.490  -2.636 -34.711  1.00  0.00     0.001 A 
HETATM   40  O   UNL     1      -7.367   2.513 -33.962  1.00  0.00    -0.270 OA
ENDBRANCH  23  24
ENDBRANCH   2  23
TORSDOF 6
ENDMDL
