MODEL 1
REMARK VINA RESULT:      -9.6      0.000      0.000
REMARK  6 active torsions:
REMARK  status: ('A' for Active; 'I' for Inactive)
REMARK    1  A    between atoms: C_5  and  C_6 
REMARK    2  A    between atoms: C_12  and  C_13 
REMARK       I    between atoms: C_13  and  N_14 
REMARK    3  A    between atoms: N_14  and  C_15 
REMARK    4  A    between atoms: C_18  and  C_19 
REMARK    5  A    between atoms: C_19  and  O_20 
REMARK    6  A    between atoms: C_25  and  C_26 
ROOT
HETATM    1  C   UNL     1      -5.574   0.844 -33.830  1.00  0.00     0.097 C 
HETATM    2  N   UNL     1      -6.901   1.461 -33.626  1.00  0.00    -0.268 NA
HETATM    3  C   UNL     1      -6.906   2.816 -33.437  1.00  0.00     0.118 C 
HETATM    4  N   UNL     1      -5.764   3.464 -33.017  1.00  0.00    -0.245 N 
HETATM    5  N   UNL     1      -5.870   4.799 -33.022  1.00  0.00    -0.182 NA
HETATM    6  C   UNL     1      -7.158   5.001 -33.305  1.00  0.00     0.159 C 
HETATM    7  C   UNL     1      -7.871   3.799 -33.557  1.00  0.00     0.091 C 
HETATM    8  C   UNL     1      -4.513   2.813 -32.669  1.00  0.00     0.221 C 
HETATM    9  C   UNL     1      -4.669   1.279 -32.674  1.00  0.00     0.061 C 
HETATM   10  H   UNL     1      -7.470   0.903 -32.984  1.00  0.00     0.130 HD
ENDROOT
BRANCH   7  11
HETATM   11  C   UNL     1      -9.287   3.727 -33.884  1.00  0.00     0.261 C 
HETATM   12  N   UNL     1      -9.964   2.696 -33.264  1.00  0.00    -0.323 N 
HETATM   13  H   UNL     1      -9.383   2.032 -32.766  1.00  0.00     0.169 HD
HETATM   14  O   UNL     1      -9.783   4.563 -34.631  1.00  0.00    -0.267 OA
BRANCH  12  15
HETATM   15  C   UNL     1     -11.362   2.523 -33.184  1.00  0.00     0.035 A 
HETATM   16  C   UNL     1     -12.219   3.402 -32.522  1.00  0.00     0.030 A 
HETATM   17  C   UNL     1     -13.589   3.128 -32.410  1.00  0.00     0.012 A 
HETATM   18  C   UNL     1     -14.135   1.961 -32.951  1.00  0.00    -0.030 A 
HETATM   19  C   UNL     1     -13.275   1.096 -33.646  1.00  0.00     0.012 A 
HETATM   20  C   UNL     1     -11.907   1.374 -33.765  1.00  0.00     0.030 A 
BRANCH  18  21
HETATM   21  C   UNL     1     -15.601   1.592 -32.828  1.00  0.00     0.147 C 
HETATM   22  C   UNL     1     -16.518   2.651 -32.223  1.00  0.00     0.044 C 
BRANCH  21  23
HETATM   23  O   UNL     1     -16.116   1.262 -34.119  1.00  0.00    -0.391 OA
HETATM   24  H   UNL     1     -15.567   1.723 -34.776  1.00  0.00     0.210 HD
ENDBRANCH  21  23
ENDBRANCH  18  21
ENDBRANCH  12  15
ENDBRANCH   7  11
BRANCH   1  25
HETATM   25  C   UNL     1      -5.721  -0.651 -34.045  1.00  0.00    -0.040 A 
HETATM   26  C   UNL     1      -6.984  -1.155 -34.404  1.00  0.00     0.009 A 
HETATM   27  C   UNL     1      -7.163  -2.506 -34.712  1.00  0.00     0.007 A 
HETATM   28  C   UNL     1      -6.085  -3.393 -34.654  1.00  0.00    -0.062 A 
HETATM   29  C   UNL     1      -6.257  -4.826 -35.063  1.00  0.00     0.048 C 
HETATM   30  C   UNL     1      -4.829  -2.906 -34.282  1.00  0.00     0.007 A 
HETATM   31  C   UNL     1      -4.650  -1.553 -33.972  1.00  0.00     0.009 A 
ENDBRANCH   1  25
BRANCH   8  32
HETATM   32  C   UNL     1      -4.022   3.260 -31.308  1.00  0.00     0.409 C 
HETATM   33  F   UNL     1      -5.021   3.304 -30.396  1.00  0.00    -0.169 F 
HETATM   34  F   UNL     1      -3.113   2.362 -30.838  1.00  0.00    -0.169 F 
HETATM   35  F   UNL     1      -3.400   4.455 -31.317  1.00  0.00    -0.169 F 
ENDBRANCH   8  32
TORSDOF 6
ENDMDL
MODEL 2
REMARK VINA RESULT:      -9.2      3.805      8.036
REMARK  6 active torsions:
REMARK  status: ('A' for Active; 'I' for Inactive)
REMARK    1  A    between atoms: C_5  and  C_6 
REMARK    2  A    between atoms: C_12  and  C_13 
REMARK       I    between atoms: C_13  and  N_14 
REMARK    3  A    between atoms: N_14  and  C_15 
REMARK    4  A    between atoms: C_18  and  C_19 
REMARK    5  A    between atoms: C_19  and  O_20 
REMARK    6  A    between atoms: C_25  and  C_26 
ROOT
HETATM    1  C   UNL     1      -7.857   0.401 -32.881  1.00  0.00     0.097 C 
HETATM    2  N   UNL     1      -7.277   1.749 -33.047  1.00  0.00    -0.268 NA
HETATM    3  C   UNL     1      -8.056   2.790 -32.621  1.00  0.00     0.118 C 
HETATM    4  N   UNL     1      -9.419   2.630 -32.485  1.00  0.00    -0.245 N 
HETATM    5  N   UNL     1     -10.031   3.677 -31.918  1.00  0.00    -0.182 NA
HETATM    6  C   UNL     1      -9.059   4.586 -31.830  1.00  0.00     0.159 C 
HETATM    7  C   UNL     1      -7.799   4.104 -32.272  1.00  0.00     0.091 C 
HETATM    8  C   UNL     1     -10.158   1.429 -32.834  1.00  0.00     0.221 C 
HETATM    9  C   UNL     1      -9.244   0.400 -33.530  1.00  0.00     0.061 C 
HETATM   10  H   UNL     1      -6.836   1.848 -33.965  1.00  0.00     0.130 HD
ENDROOT
BRANCH   7  11
HETATM   11  C   UNL     1      -6.571   4.884 -32.292  1.00  0.00     0.261 C 
HETATM   12  N   UNL     1      -5.500   4.281 -31.664  1.00  0.00    -0.323 N 
HETATM   13  H   UNL     1      -5.718   3.436 -31.148  1.00  0.00     0.169 HD
HETATM   14  O   UNL     1      -6.548   5.968 -32.864  1.00  0.00    -0.267 OA
BRANCH  12  15
HETATM   15  C   UNL     1      -4.145   4.666 -31.734  1.00  0.00     0.035 A 
HETATM   16  C   UNL     1      -3.236   4.150 -32.659  1.00  0.00     0.030 A 
HETATM   17  C   UNL     1      -1.884   4.513 -32.622  1.00  0.00     0.012 A 
HETATM   18  C   UNL     1      -1.403   5.398 -31.652  1.00  0.00    -0.030 A 
HETATM   19  C   UNL     1      -2.328   5.941 -30.746  1.00  0.00     0.012 A 
HETATM   20  C   UNL     1      -3.682   5.583 -30.787  1.00  0.00     0.030 A 
BRANCH  18  21
HETATM   21  C   UNL     1       0.055   5.798 -31.539  1.00  0.00     0.147 C 
HETATM   22  C   UNL     1       0.368   6.962 -30.602  1.00  0.00     0.044 C 
BRANCH  21  23
HETATM   23  O   UNL     1       0.821   4.675 -31.103  1.00  0.00    -0.391 OA
HETATM   24  H   UNL     1       0.475   4.407 -30.235  1.00  0.00     0.210 HD
ENDBRANCH  21  23
ENDBRANCH  18  21
ENDBRANCH  12  15
ENDBRANCH   7  11
BRANCH   1  25
HETATM   25  C   UNL     1      -6.882  -0.651 -33.374  1.00  0.00    -0.040 A 
HETATM   26  C   UNL     1      -5.573  -0.646 -32.858  1.00  0.00     0.009 A 
HETATM   27  C   UNL     1      -4.658  -1.645 -33.197  1.00  0.00     0.007 A 
HETATM   28  C   UNL     1      -5.022  -2.670 -34.074  1.00  0.00    -0.062 A 
HETATM   29  C   UNL     1      -4.069  -3.789 -34.374  1.00  0.00     0.048 C 
HETATM   30  C   UNL     1      -6.315  -2.676 -34.605  1.00  0.00     0.007 A 
HETATM   31  C   UNL     1      -7.231  -1.674 -34.267  1.00  0.00     0.009 A 
ENDBRANCH   1  25
BRANCH   8  32
HETATM   32  C   UNL     1     -11.330   1.748 -33.738  1.00  0.00     0.409 C 
HETATM   33  F   UNL     1     -10.974   2.553 -34.767  1.00  0.00    -0.169 F 
HETATM   34  F   UNL     1     -11.797   0.597 -34.295  1.00  0.00    -0.169 F 
HETATM   35  F   UNL     1     -12.375   2.308 -33.101  1.00  0.00    -0.169 F 
ENDBRANCH   8  32
TORSDOF 6
ENDMDL
MODEL 3
REMARK VINA RESULT:      -9.1      1.470      2.165
REMARK  6 active torsions:
REMARK  status: ('A' for Active; 'I' for Inactive)
REMARK    1  A    between atoms: C_5  and  C_6 
REMARK    2  A    between atoms: C_12  and  C_13 
REMARK       I    between atoms: C_13  and  N_14 
REMARK    3  A    between atoms: N_14  and  C_15 
REMARK    4  A    between atoms: C_18  and  C_19 
REMARK    5  A    between atoms: C_19  and  O_20 
REMARK    6  A    between atoms: C_25  and  C_26 
ROOT
HETATM    1  C   UNL     1      -6.488   0.759 -34.196  1.00  0.00     0.097 C 
HETATM    2  N   UNL     1      -7.841   0.947 -33.635  1.00  0.00    -0.268 NA
HETATM    3  C   UNL     1      -8.305   2.234 -33.614  1.00  0.00     0.118 C 
HETATM    4  N   UNL     1      -7.425   3.293 -33.678  1.00  0.00    -0.245 N 
HETATM    5  N   UNL     1      -8.022   4.484 -33.803  1.00  0.00    -0.182 NA
HETATM    6  C   UNL     1      -9.316   4.191 -33.662  1.00  0.00     0.159 C 
HETATM    7  C   UNL     1      -9.563   2.801 -33.520  1.00  0.00     0.091 C 
HETATM    8  C   UNL     1      -5.977   3.176 -33.693  1.00  0.00     0.221 C 
HETATM    9  C   UNL     1      -5.538   1.715 -33.468  1.00  0.00     0.061 C 
HETATM   10  H   UNL     1      -7.963   0.398 -32.779  1.00  0.00     0.130 HD
ENDROOT
BRANCH   7  11
HETATM   11  C   UNL     1     -10.879   2.204 -33.344  1.00  0.00     0.261 C 
HETATM   12  N   UNL     1     -11.767   2.980 -32.626  1.00  0.00    -0.323 N 
HETATM   13  H   UNL     1     -11.370   3.804 -32.190  1.00  0.00     0.169 HD
HETATM   14  O   UNL     1     -11.124   1.112 -33.845  1.00  0.00    -0.267 OA
BRANCH  12  15
HETATM   15  C   UNL     1     -13.160   2.791 -32.508  1.00  0.00     0.035 A 
HETATM   16  C   UNL     1     -13.851   1.722 -33.079  1.00  0.00     0.030 A 
HETATM   17  C   UNL     1     -15.247   1.637 -32.994  1.00  0.00     0.012 A 
HETATM   18  C   UNL     1     -15.989   2.626 -32.340  1.00  0.00    -0.030 A 
HETATM   19  C   UNL     1     -15.286   3.681 -31.737  1.00  0.00     0.012 A 
HETATM   20  C   UNL     1     -13.890   3.762 -31.816  1.00  0.00     0.030 A 
BRANCH  18  21
HETATM   21  C   UNL     1     -17.502   2.608 -32.249  1.00  0.00     0.147 C 
HETATM   22  C   UNL     1     -18.156   3.812 -31.576  1.00  0.00     0.044 C 
BRANCH  21  23
HETATM   23  O   UNL     1     -18.054   2.495 -33.561  1.00  0.00    -0.391 OA
HETATM   24  H   UNL     1     -17.588   1.770 -34.010  1.00  0.00     0.210 HD
ENDBRANCH  21  23
ENDBRANCH  18  21
ENDBRANCH  12  15
ENDBRANCH   7  11
BRANCH   1  25
HETATM   25  C   UNL     1      -6.113  -0.711 -34.174  1.00  0.00    -0.040 A 
HETATM   26  C   UNL     1      -7.070  -1.653 -34.592  1.00  0.00     0.009 A 
HETATM   27  C   UNL     1      -6.754  -3.010 -34.688  1.00  0.00     0.007 A 
HETATM   28  C   UNL     1      -5.476  -3.465 -34.354  1.00  0.00    -0.062 A 
HETATM   29  C   UNL     1      -5.111  -4.909 -34.535  1.00  0.00     0.048 C 
HETATM   30  C   UNL     1      -4.523  -2.540 -33.921  1.00  0.00     0.007 A 
HETATM   31  C   UNL     1      -4.839  -1.180 -33.823  1.00  0.00     0.009 A 
ENDBRANCH   1  25
BRANCH   8  32
HETATM   32  C   UNL     1      -5.343   4.056 -32.637  1.00  0.00     0.409 C 
HETATM   33  F   UNL     1      -4.113   3.618 -32.281  1.00  0.00    -0.169 F 
HETATM   34  F   UNL     1      -5.173   5.311 -33.137  1.00  0.00    -0.169 F 
HETATM   35  F   UNL     1      -6.086   4.193 -31.522  1.00  0.00    -0.169 F 
ENDBRANCH   8  32
TORSDOF 6
ENDMDL
MODEL 4
REMARK VINA RESULT:      -8.5      3.920      7.741
REMARK  6 active torsions:
REMARK  status: ('A' for Active; 'I' for Inactive)
REMARK    1  A    between atoms: C_5  and  C_6 
REMARK    2  A    between atoms: C_12  and  C_13 
REMARK       I    between atoms: C_13  and  N_14 
REMARK    3  A    between atoms: N_14  and  C_15 
REMARK    4  A    between atoms: C_18  and  C_19 
REMARK    5  A    between atoms: C_19  and  O_20 
REMARK    6  A    between atoms: C_25  and  C_26 
ROOT
HETATM    1  C   UNL     1      -8.493   0.530 -32.729  1.00  0.00     0.097 C 
HETATM    2  N   UNL     1      -7.948   1.867 -32.413  1.00  0.00    -0.268 NA
HETATM    3  C   UNL     1      -8.866   2.814 -32.049  1.00  0.00     0.118 C 
HETATM    4  N   UNL     1     -10.193   2.666 -32.390  1.00  0.00    -0.245 N 
HETATM    5  N   UNL     1     -10.997   3.584 -31.840  1.00  0.00    -0.182 NA
HETATM    6  C   UNL     1     -10.142   4.427 -31.257  1.00  0.00     0.159 C 
HETATM    7  C   UNL     1      -8.788   4.015 -31.367  1.00  0.00     0.091 C 
HETATM    8  C   UNL     1     -10.732   1.587 -33.200  1.00  0.00     0.221 C 
HETATM    9  C   UNL     1      -9.602   0.706 -33.770  1.00  0.00     0.061 C 
HETATM   10  H   UNL     1      -7.244   2.147 -33.101  1.00  0.00     0.130 HD
ENDROOT
BRANCH   7  11
HETATM   11  C   UNL     1      -7.651   4.748 -30.830  1.00  0.00     0.261 C 
HETATM   12  N   UNL     1      -6.535   4.746 -31.642  1.00  0.00    -0.323 N 
HETATM   13  H   UNL     1      -6.583   4.130 -32.446  1.00  0.00     0.169 HD
HETATM   14  O   UNL     1      -7.752   5.323 -29.753  1.00  0.00    -0.267 OA
BRANCH  12  15
HETATM   15  C   UNL     1      -5.389   5.559 -31.515  1.00  0.00     0.035 A 
HETATM   16  C   UNL     1      -5.417   6.953 -31.550  1.00  0.00     0.030 A 
HETATM   17  C   UNL     1      -4.232   7.700 -31.502  1.00  0.00     0.012 A 
HETATM   18  C   UNL     1      -2.987   7.069 -31.425  1.00  0.00    -0.030 A 
HETATM   19  C   UNL     1      -2.966   5.667 -31.355  1.00  0.00     0.012 A 
HETATM   20  C   UNL     1      -4.151   4.920 -31.396  1.00  0.00     0.030 A 
BRANCH  18  21
HETATM   21  C   UNL     1      -1.671   7.822 -31.408  1.00  0.00     0.147 C 
HETATM   22  C   UNL     1      -0.406   6.982 -31.557  1.00  0.00     0.044 C 
BRANCH  21  23
HETATM   23  O   UNL     1      -1.669   8.794 -32.454  1.00  0.00    -0.391 OA
HETATM   24  H   UNL     1      -2.278   9.505 -32.192  1.00  0.00     0.210 HD
ENDBRANCH  21  23
ENDBRANCH  18  21
ENDBRANCH  12  15
ENDBRANCH   7  11
BRANCH   1  25
HETATM   25  C   UNL     1      -7.368  -0.419 -33.096  1.00  0.00    -0.040 A 
HETATM   26  C   UNL     1      -7.570  -1.317 -34.159  1.00  0.00     0.009 A 
HETATM   27  C   UNL     1      -6.540  -2.147 -34.610  1.00  0.00     0.007 A 
HETATM   28  C   UNL     1      -5.284  -2.112 -33.999  1.00  0.00    -0.062 A 
HETATM   29  C   UNL     1      -4.155  -2.942 -34.533  1.00  0.00     0.048 C 
HETATM   30  C   UNL     1      -5.079  -1.235 -32.930  1.00  0.00     0.007 A 
HETATM   31  C   UNL     1      -6.110  -0.405 -32.477  1.00  0.00     0.009 A 
ENDBRANCH   1  25
BRANCH   8  32
HETATM   32  C   UNL     1     -11.571   2.124 -34.341  1.00  0.00     0.409 C 
HETATM   33  F   UNL     1     -12.760   2.608 -33.914  1.00  0.00    -0.169 F 
HETATM   34  F   UNL     1     -10.921   3.167 -34.928  1.00  0.00    -0.169 F 
HETATM   35  F   UNL     1     -11.802   1.228 -35.319  1.00  0.00    -0.169 F 
ENDBRANCH   8  32
TORSDOF 6
ENDMDL
MODEL 5
REMARK VINA RESULT:      -8.4      1.757      2.116
REMARK  6 active torsions:
REMARK  status: ('A' for Active; 'I' for Inactive)
REMARK    1  A    between atoms: C_5  and  C_6 
REMARK    2  A    between atoms: C_12  and  C_13 
REMARK       I    between atoms: C_13  and  N_14 
REMARK    3  A    between atoms: N_14  and  C_15 
REMARK    4  A    between atoms: C_18  and  C_19 
REMARK    5  A    between atoms: C_19  and  O_20 
REMARK    6  A    between atoms: C_25  and  C_26 
ROOT
HETATM    1  C   UNL     1      -5.748   0.653 -33.532  1.00  0.00     0.097 C 
HETATM    2  N   UNL     1      -7.027   1.062 -32.917  1.00  0.00    -0.268 NA
HETATM    3  C   UNL     1      -7.128   2.382 -32.571  1.00  0.00     0.118 C 
HETATM    4  N   UNL     1      -5.992   3.142 -32.388  1.00  0.00    -0.245 N 
HETATM    5  N   UNL     1      -6.239   4.445 -32.204  1.00  0.00    -0.182 NA
HETATM    6  C   UNL     1      -7.570   4.492 -32.116  1.00  0.00     0.159 C 
HETATM    7  C   UNL     1      -8.189   3.231 -32.316  1.00  0.00     0.091 C 
HETATM    8  C   UNL     1      -4.630   2.641 -32.459  1.00  0.00     0.221 C 
HETATM    9  C   UNL     1      -4.613   1.106 -32.609  1.00  0.00     0.061 C 
HETATM   10  H   UNL     1      -7.334   0.377 -32.220  1.00  0.00     0.130 HD
ENDROOT
BRANCH   7  11
HETATM   11  C   UNL     1      -9.624   2.993 -32.268  1.00  0.00     0.261 C 
HETATM   12  N   UNL     1     -10.358   4.031 -31.730  1.00  0.00    -0.323 N 
HETATM   13  H   UNL     1      -9.814   4.775 -31.309  1.00  0.00     0.169 HD
HETATM   14  O   UNL     1     -10.083   1.947 -32.714  1.00  0.00    -0.267 OA
BRANCH  12  15
HETATM   15  C   UNL     1     -11.757   4.199 -31.779  1.00  0.00     0.035 A 
HETATM   16  C   UNL     1     -12.480   4.366 -32.961  1.00  0.00     0.030 A 
HETATM   17  C   UNL     1     -13.859   4.611 -32.935  1.00  0.00     0.012 A 
HETATM   18  C   UNL     1     -14.551   4.702 -31.723  1.00  0.00    -0.030 A 
HETATM   19  C   UNL     1     -13.826   4.498 -30.539  1.00  0.00     0.012 A 
HETATM   20  C   UNL     1     -12.448   4.246 -30.565  1.00  0.00     0.030 A 
BRANCH  18  21
HETATM   21  C   UNL     1     -16.034   5.003 -31.631  1.00  0.00     0.147 C 
HETATM   22  C   UNL     1     -16.437   6.161 -30.722  1.00  0.00     0.044 C 
BRANCH  21  23
HETATM   23  O   UNL     1     -16.542   5.282 -32.936  1.00  0.00    -0.391 OA
HETATM   24  H   UNL     1     -15.781   5.331 -33.539  1.00  0.00     0.210 HD
ENDBRANCH  21  23
ENDBRANCH  18  21
ENDBRANCH  12  15
ENDBRANCH   7  11
BRANCH   1  25
HETATM   25  C   UNL     1      -5.784  -0.823 -33.880  1.00  0.00    -0.040 A 
HETATM   26  C   UNL     1      -7.028  -1.412 -34.170  1.00  0.00     0.009 A 
HETATM   27  C   UNL     1      -7.118  -2.741 -34.592  1.00  0.00     0.007 A 
HETATM   28  C   UNL     1      -5.966  -3.521 -34.722  1.00  0.00    -0.062 A 
HETATM   29  C   UNL     1      -6.053  -4.922 -35.254  1.00  0.00     0.048 C 
HETATM   30  C   UNL     1      -4.727  -2.951 -34.420  1.00  0.00     0.007 A 
HETATM   31  C   UNL     1      -4.637  -1.621 -33.995  1.00  0.00     0.009 A 
ENDBRANCH   1  25
BRANCH   8  32
HETATM   32  C   UNL     1      -3.837   3.032 -31.230  1.00  0.00     0.409 C 
HETATM   33  F   UNL     1      -3.336   4.286 -31.325  1.00  0.00    -0.169 F 
HETATM   34  F   UNL     1      -4.656   3.028 -30.142  1.00  0.00    -0.169 F 
HETATM   35  F   UNL     1      -2.826   2.190 -30.941  1.00  0.00    -0.169 F 
ENDBRANCH   8  32
TORSDOF 6
ENDMDL
MODEL 6
REMARK VINA RESULT:      -8.4      4.561      7.923
REMARK  6 active torsions:
REMARK  status: ('A' for Active; 'I' for Inactive)
REMARK    1  A    between atoms: C_5  and  C_6 
REMARK    2  A    between atoms: C_12  and  C_13 
REMARK       I    between atoms: C_13  and  N_14 
REMARK    3  A    between atoms: N_14  and  C_15 
REMARK    4  A    between atoms: C_18  and  C_19 
REMARK    5  A    between atoms: C_19  and  O_20 
REMARK    6  A    between atoms: C_25  and  C_26 
ROOT
HETATM    1  C   UNL     1      -7.703   0.029 -32.625  1.00  0.00     0.097 C 
HETATM    2  N   UNL     1      -7.008   1.242 -32.146  1.00  0.00    -0.268 NA
HETATM    3  C   UNL     1      -7.803   2.201 -31.581  1.00  0.00     0.118 C 
HETATM    4  N   UNL     1      -9.154   2.234 -31.853  1.00  0.00    -0.245 N 
HETATM    5  N   UNL     1      -9.830   3.125 -31.117  1.00  0.00    -0.182 NA
HETATM    6  C   UNL     1      -8.865   3.780 -30.469  1.00  0.00     0.159 C 
HETATM    7  C   UNL     1      -7.568   3.266 -30.730  1.00  0.00     0.091 C 
HETATM    8  C   UNL     1      -9.842   1.354 -32.781  1.00  0.00     0.221 C 
HETATM    9  C   UNL     1      -8.839   0.472 -33.552  1.00  0.00     0.061 C 
HETATM   10  H   UNL     1      -6.314   1.560 -32.828  1.00  0.00     0.130 HD
ENDROOT
BRANCH   7  11
HETATM   11  C   UNL     1      -6.336   3.794 -30.163  1.00  0.00     0.261 C 
HETATM   12  N   UNL     1      -6.405   5.117 -29.778  1.00  0.00    -0.323 N 
HETATM   13  H   UNL     1      -7.248   5.607 -30.053  1.00  0.00     0.169 HD
HETATM   14  O   UNL     1      -5.361   3.060 -30.038  1.00  0.00    -0.267 OA
BRANCH  12  15
HETATM   15  C   UNL     1      -5.476   5.822 -28.984  1.00  0.00     0.035 A 
HETATM   16  C   UNL     1      -4.410   6.559 -29.501  1.00  0.00     0.030 A 
HETATM   17  C   UNL     1      -3.475   7.167 -28.654  1.00  0.00     0.012 A 
HETATM   18  C   UNL     1      -3.578   7.048 -27.265  1.00  0.00    -0.030 A 
HETATM   19  C   UNL     1      -4.671   6.334 -26.748  1.00  0.00     0.012 A 
HETATM   20  C   UNL     1      -5.611   5.732 -27.595  1.00  0.00     0.030 A 
BRANCH  18  21
HETATM   21  C   UNL     1      -2.576   7.652 -26.300  1.00  0.00     0.147 C 
HETATM   22  C   UNL     1      -3.145   8.248 -25.016  1.00  0.00     0.044 C 
BRANCH  21  23
HETATM   23  O   UNL     1      -1.620   6.659 -25.928  1.00  0.00    -0.391 OA
HETATM   24  H   UNL     1      -0.959   7.091 -25.361  1.00  0.00     0.210 HD
ENDBRANCH  21  23
ENDBRANCH  18  21
ENDBRANCH  12  15
ENDBRANCH   7  11
BRANCH   1  25
HETATM   25  C   UNL     1      -6.702  -0.951 -33.207  1.00  0.00    -0.040 A 
HETATM   26  C   UNL     1      -5.382  -0.928 -32.721  1.00  0.00     0.009 A 
HETATM   27  C   UNL     1      -4.439  -1.867 -33.144  1.00  0.00     0.007 A 
HETATM   28  C   UNL     1      -4.787  -2.848 -34.077  1.00  0.00    -0.062 A 
HETATM   29  C   UNL     1      -3.800  -3.907 -34.470  1.00  0.00     0.048 C 
HETATM   30  C   UNL     1      -6.091  -2.869 -34.579  1.00  0.00     0.007 A 
HETATM   31  C   UNL     1      -7.035  -1.927 -34.157  1.00  0.00     0.009 A 
ENDBRANCH   1  25
BRANCH   8  32
HETATM   32  C   UNL     1     -10.676   2.142 -33.769  1.00  0.00     0.409 C 
HETATM   33  F   UNL     1     -10.025   3.237 -34.226  1.00  0.00    -0.169 F 
HETATM   34  F   UNL     1     -10.937   1.368 -34.859  1.00  0.00    -0.169 F 
HETATM   35  F   UNL     1     -11.873   2.528 -33.288  1.00  0.00    -0.169 F 
ENDBRANCH   8  32
TORSDOF 6
ENDMDL
MODEL 7
REMARK VINA RESULT:      -8.4      1.776      2.105
REMARK  6 active torsions:
REMARK  status: ('A' for Active; 'I' for Inactive)
REMARK    1  A    between atoms: C_5  and  C_6 
REMARK    2  A    between atoms: C_12  and  C_13 
REMARK       I    between atoms: C_13  and  N_14 
REMARK    3  A    between atoms: N_14  and  C_15 
REMARK    4  A    between atoms: C_18  and  C_19 
REMARK    5  A    between atoms: C_19  and  O_20 
REMARK    6  A    between atoms: C_25  and  C_26 
ROOT
HETATM    1  C   UNL     1      -4.497   1.480 -32.826  1.00  0.00     0.097 C 
HETATM    2  N   UNL     1      -5.788   1.812 -32.189  1.00  0.00    -0.268 NA
HETATM    3  C   UNL     1      -6.150   3.131 -32.226  1.00  0.00     0.118 C 
HETATM    4  N   UNL     1      -5.198   4.109 -32.423  1.00  0.00    -0.245 N 
HETATM    5  N   UNL     1      -5.710   5.334 -32.589  1.00  0.00    -0.182 NA
HETATM    6  C   UNL     1      -7.009   5.157 -32.342  1.00  0.00     0.159 C 
HETATM    7  C   UNL     1      -7.350   3.803 -32.087  1.00  0.00     0.091 C 
HETATM    8  C   UNL     1      -3.768   3.874 -32.528  1.00  0.00     0.221 C 
HETATM    9  C   UNL     1      -3.427   2.400 -32.231  1.00  0.00     0.061 C 
HETATM   10  H   UNL     1      -5.888   1.331 -31.290  1.00  0.00     0.130 HD
ENDROOT
BRANCH   7  11
HETATM   11  C   UNL     1      -8.692   3.327 -31.781  1.00  0.00     0.261 C 
HETATM   12  N   UNL     1      -9.704   4.053 -32.375  1.00  0.00    -0.323 N 
HETATM   13  H   UNL     1      -9.413   4.906 -32.840  1.00  0.00     0.169 HD
HETATM   14  O   UNL     1      -8.840   2.338 -31.072  1.00  0.00    -0.267 OA
BRANCH  12  15
HETATM   15  C   UNL     1     -11.065   3.694 -32.472  1.00  0.00     0.035 A 
HETATM   16  C   UNL     1     -12.046   4.115 -31.573  1.00  0.00     0.030 A 
HETATM   17  C   UNL     1     -13.365   3.655 -31.678  1.00  0.00     0.012 A 
HETATM   18  C   UNL     1     -13.736   2.755 -32.681  1.00  0.00    -0.030 A 
HETATM   19  C   UNL     1     -12.753   2.361 -33.603  1.00  0.00     0.012 A 
HETATM   20  C   UNL     1     -11.435   2.827 -33.504  1.00  0.00     0.030 A 
BRANCH  18  21
HETATM   21  C   UNL     1     -15.137   2.193 -32.821  1.00  0.00     0.147 C 
HETATM   22  C   UNL     1     -15.319   1.067 -33.835  1.00  0.00     0.044 C 
BRANCH  21  23
HETATM   23  O   UNL     1     -15.582   1.709 -31.553  1.00  0.00    -0.391 OA
HETATM   24  H   UNL     1     -14.887   1.915 -30.905  1.00  0.00     0.210 HD
ENDBRANCH  21  23
ENDBRANCH  18  21
ENDBRANCH  12  15
ENDBRANCH   7  11
BRANCH   1  25
HETATM   25  C   UNL     1      -4.235  -0.011 -32.727  1.00  0.00    -0.040 A 
HETATM   26  C   UNL     1      -4.893  -0.868 -33.627  1.00  0.00     0.009 A 
HETATM   27  C   UNL     1      -4.620  -2.238 -33.652  1.00  0.00     0.007 A 
HETATM   28  C   UNL     1      -3.691  -2.791 -32.767  1.00  0.00    -0.062 A 
HETATM   29  C   UNL     1      -3.337  -4.246 -32.848  1.00  0.00     0.048 C 
HETATM   30  C   UNL     1      -3.044  -1.950 -31.857  1.00  0.00     0.007 A 
HETATM   31  C   UNL     1      -3.318  -0.579 -31.831  1.00  0.00     0.009 A 
ENDBRANCH   1  25
BRANCH   8  32
HETATM   32  C   UNL     1      -2.994   4.766 -31.580  1.00  0.00     0.409 C 
HETATM   33  F   UNL     1      -3.699   5.051 -30.460  1.00  0.00    -0.169 F 
HETATM   34  F   UNL     1      -1.868   4.121 -31.170  1.00  0.00    -0.169 F 
HETATM   35  F   UNL     1      -2.583   5.924 -32.131  1.00  0.00    -0.169 F 
ENDBRANCH   8  32
TORSDOF 6
ENDMDL
MODEL 8
REMARK VINA RESULT:      -8.4      4.197      8.159
REMARK  6 active torsions:
REMARK  status: ('A' for Active; 'I' for Inactive)
REMARK    1  A    between atoms: C_5  and  C_6 
REMARK    2  A    between atoms: C_12  and  C_13 
REMARK       I    between atoms: C_13  and  N_14 
REMARK    3  A    between atoms: N_14  and  C_15 
REMARK    4  A    between atoms: C_18  and  C_19 
REMARK    5  A    between atoms: C_19  and  O_20 
REMARK    6  A    between atoms: C_25  and  C_26 
ROOT
HETATM    1  C   UNL     1      -7.314  -0.006 -32.856  1.00  0.00     0.097 C 
HETATM    2  N   UNL     1      -6.505   1.219 -32.687  1.00  0.00    -0.268 NA
HETATM    3  C   UNL     1      -7.166   2.307 -32.187  1.00  0.00     0.118 C 
HETATM    4  N   UNL     1      -8.541   2.385 -32.270  1.00  0.00    -0.245 N 
HETATM    5  N   UNL     1      -9.062   3.425 -31.607  1.00  0.00    -0.182 NA
HETATM    6  C   UNL     1      -7.985   4.110 -31.220  1.00  0.00     0.159 C 
HETATM    7  C   UNL     1      -6.763   3.476 -31.568  1.00  0.00     0.091 C 
HETATM    8  C   UNL     1      -9.395   1.416 -32.934  1.00  0.00     0.221 C 
HETATM    9  C   UNL     1      -8.555   0.357 -33.677  1.00  0.00     0.061 C 
HETATM   10  H   UNL     1      -5.906   1.378 -33.503  1.00  0.00     0.130 HD
ENDROOT
BRANCH   7  11
HETATM   11  C   UNL     1      -5.440   4.005 -31.274  1.00  0.00     0.261 C 
HETATM   12  N   UNL     1      -5.415   5.353 -30.979  1.00  0.00    -0.323 N 
HETATM   13  H   UNL     1      -6.287   5.847 -31.131  1.00  0.00     0.169 HD
HETATM   14  O   UNL     1      -4.471   3.253 -31.275  1.00  0.00    -0.267 OA
BRANCH  12  15
HETATM   15  C   UNL     1      -4.345   6.082 -30.420  1.00  0.00     0.035 A 
HETATM   16  C   UNL     1      -3.127   6.296 -31.066  1.00  0.00     0.030 A 
HETATM   17  C   UNL     1      -2.075   6.959 -30.422  1.00  0.00     0.012 A 
HETATM   18  C   UNL     1      -2.212   7.420 -29.109  1.00  0.00    -0.030 A 
HETATM   19  C   UNL     1      -3.451   7.233 -28.475  1.00  0.00     0.012 A 
HETATM   20  C   UNL     1      -4.506   6.577 -29.122  1.00  0.00     0.030 A 
BRANCH  18  21
HETATM   21  C   UNL     1      -1.097   8.109 -28.347  1.00  0.00     0.147 C 
HETATM   22  C   UNL     1       0.329   7.746 -28.754  1.00  0.00     0.044 C 
BRANCH  21  23
HETATM   23  O   UNL     1      -1.236   9.524 -28.483  1.00  0.00    -0.391 OA
HETATM   24  H   UNL     1      -2.186   9.726 -28.451  1.00  0.00     0.210 HD
ENDBRANCH  21  23
ENDBRANCH  18  21
ENDBRANCH  12  15
ENDBRANCH   7  11
BRANCH   1  25
HETATM   25  C   UNL     1      -6.453  -1.130 -33.398  1.00  0.00    -0.040 A 
HETATM   26  C   UNL     1      -5.107  -1.198 -32.994  1.00  0.00     0.009 A 
HETATM   27  C   UNL     1      -4.289  -2.263 -33.379  1.00  0.00     0.007 A 
HETATM   28  C   UNL     1      -4.790  -3.282 -34.192  1.00  0.00    -0.062 A 
HETATM   29  C   UNL     1      -3.938  -4.467 -34.538  1.00  0.00     0.048 C 
HETATM   30  C   UNL     1      -6.121  -3.216 -34.613  1.00  0.00     0.007 A 
HETATM   31  C   UNL     1      -6.941  -2.149 -34.229  1.00  0.00     0.009 A 
ENDBRANCH   1  25
BRANCH   8  32
HETATM   32  C   UNL     1     -10.332   2.089 -33.914  1.00  0.00     0.409 C 
HETATM   33  F   UNL     1      -9.705   3.040 -34.646  1.00  0.00    -0.169 F 
HETATM   34  F   UNL     1     -10.796   1.167 -34.802  1.00  0.00    -0.169 F 
HETATM   35  F   UNL     1     -11.419   2.639 -33.342  1.00  0.00    -0.169 F 
ENDBRANCH   8  32
TORSDOF 6
ENDMDL
MODEL 9
REMARK VINA RESULT:      -8.2      4.432      7.607
REMARK  6 active torsions:
REMARK  status: ('A' for Active; 'I' for Inactive)
REMARK    1  A    between atoms: C_5  and  C_6 
REMARK    2  A    between atoms: C_12  and  C_13 
REMARK       I    between atoms: C_13  and  N_14 
REMARK    3  A    between atoms: N_14  and  C_15 
REMARK    4  A    between atoms: C_18  and  C_19 
REMARK    5  A    between atoms: C_19  and  O_20 
REMARK    6  A    between atoms: C_25  and  C_26 
ROOT
HETATM    1  C   UNL     1      -9.567   1.017 -33.073  1.00  0.00     0.097 C 
HETATM    2  N   UNL     1      -9.344   2.395 -32.588  1.00  0.00    -0.268 NA
HETATM    3  C   UNL     1     -10.470   3.112 -32.287  1.00  0.00     0.118 C 
HETATM    4  N   UNL     1     -11.689   2.749 -32.821  1.00  0.00    -0.245 N 
HETATM    5  N   UNL     1     -12.721   3.440 -32.323  1.00  0.00    -0.182 NA
HETATM    6  C   UNL     1     -12.131   4.368 -31.567  1.00  0.00     0.159 C 
HETATM    7  C   UNL     1     -10.719   4.232 -31.516  1.00  0.00     0.091 C 
HETATM    8  C   UNL     1     -11.897   1.674 -33.775  1.00  0.00     0.221 C 
HETATM    9  C   UNL     1     -10.552   1.083 -34.244  1.00  0.00     0.061 C 
HETATM   10  H   UNL     1      -8.630   2.870 -33.148  1.00  0.00     0.130 HD
ENDROOT
BRANCH   7  11
HETATM   11  C   UNL     1      -9.826   5.110 -30.773  1.00  0.00     0.261 C 
HETATM   12  N   UNL     1      -8.682   4.497 -30.304  1.00  0.00    -0.323 N 
HETATM   13  H   UNL     1      -8.655   3.489 -30.409  1.00  0.00     0.169 HD
HETATM   14  O   UNL     1     -10.112   6.294 -30.637  1.00  0.00    -0.267 OA
BRANCH  12  15
HETATM   15  C   UNL     1      -7.534   5.126 -29.780  1.00  0.00     0.035 A 
HETATM   16  C   UNL     1      -6.413   5.459 -30.542  1.00  0.00     0.030 A 
HETATM   17  C   UNL     1      -5.271   6.007 -29.943  1.00  0.00     0.012 A 
HETATM   18  C   UNL     1      -5.218   6.231 -28.564  1.00  0.00    -0.030 A 
HETATM   19  C   UNL     1      -6.361   5.926 -27.808  1.00  0.00     0.012 A 
HETATM   20  C   UNL     1      -7.506   5.384 -28.407  1.00  0.00     0.030 A 
BRANCH  18  21
HETATM   21  C   UNL     1      -3.998   6.785 -27.856  1.00  0.00     0.147 C 
HETATM   22  C   UNL     1      -4.012   8.281 -27.550  1.00  0.00     0.044 C 
BRANCH  21  23
HETATM   23  O   UNL     1      -3.812   6.094 -26.620  1.00  0.00    -0.391 OA
HETATM   24  H   UNL     1      -3.160   5.390 -26.777  1.00  0.00     0.210 HD
ENDBRANCH  21  23
ENDBRANCH  18  21
ENDBRANCH  12  15
ENDBRANCH   7  11
BRANCH   1  25
HETATM   25  C   UNL     1      -8.238   0.339 -33.347  1.00  0.00    -0.040 A 
HETATM   26  C   UNL     1      -7.380   0.083 -32.263  1.00  0.00     0.009 A 
HETATM   27  C   UNL     1      -6.189  -0.626 -32.435  1.00  0.00     0.007 A 
HETATM   28  C   UNL     1      -5.815  -1.085 -33.701  1.00  0.00    -0.062 A 
HETATM   29  C   UNL     1      -4.578  -1.915 -33.874  1.00  0.00     0.048 C 
HETATM   30  C   UNL     1      -6.652  -0.820 -34.788  1.00  0.00     0.007 A 
HETATM   31  C   UNL     1      -7.845  -0.109 -34.616  1.00  0.00     0.009 A 
ENDBRANCH   1  25
BRANCH   8  32
HETATM   32  C   UNL     1     -12.679   2.153 -34.980  1.00  0.00     0.409 C 
HETATM   33  F   UNL     1     -12.325   1.497 -36.110  1.00  0.00    -0.169 F 
HETATM   34  F   UNL     1     -14.003   1.901 -34.789  1.00  0.00    -0.169 F 
HETATM   35  F   UNL     1     -12.578   3.476 -35.207  1.00  0.00    -0.169 F 
ENDBRANCH   8  32
TORSDOF 6
ENDMDL
MODEL 10
REMARK VINA RESULT:      -8.2      1.693      2.682
REMARK  6 active torsions:
REMARK  status: ('A' for Active; 'I' for Inactive)
REMARK    1  A    between atoms: C_5  and  C_6 
REMARK    2  A    between atoms: C_12  and  C_13 
REMARK       I    between atoms: C_13  and  N_14 
REMARK    3  A    between atoms: N_14  and  C_15 
REMARK    4  A    between atoms: C_18  and  C_19 
REMARK    5  A    between atoms: C_19  and  O_20 
REMARK    6  A    between atoms: C_25  and  C_26 
ROOT
HETATM    1  C   UNL     1      -6.904   2.360 -33.472  1.00  0.00     0.097 C 
HETATM    2  N   UNL     1      -8.352   2.497 -33.211  1.00  0.00    -0.268 NA
HETATM    3  C   UNL     1      -8.773   3.739 -32.821  1.00  0.00     0.118 C 
HETATM    4  N   UNL     1      -7.879   4.639 -32.280  1.00  0.00    -0.245 N 
HETATM    5  N   UNL     1      -8.394   5.859 -32.087  1.00  0.00    -0.182 NA
HETATM    6  C   UNL     1      -9.688   5.693 -32.369  1.00  0.00     0.159 C 
HETATM    7  C   UNL     1      -9.998   4.381 -32.817  1.00  0.00     0.091 C 
HETATM    8  C   UNL     1      -6.481   4.363 -32.001  1.00  0.00     0.221 C 
HETATM    9  C   UNL     1      -6.152   2.876 -32.241  1.00  0.00     0.061 C 
HETATM   10  H   UNL     1      -8.705   1.700 -32.675  1.00  0.00     0.130 HD
ENDROOT
BRANCH   7  11
HETATM   11  C   UNL     1     -11.329   3.923 -33.186  1.00  0.00     0.261 C 
HETATM   12  N   UNL     1     -12.107   3.512 -32.123  1.00  0.00    -0.323 N 
HETATM   13  H   UNL     1     -11.628   3.447 -31.232  1.00  0.00     0.169 HD
HETATM   14  O   UNL     1     -11.678   3.953 -34.361  1.00  0.00    -0.267 OA
BRANCH  12  15
HETATM   15  C   UNL     1     -13.495   3.259 -32.132  1.00  0.00     0.035 A 
HETATM   16  C   UNL     1     -14.073   2.111 -32.674  1.00  0.00     0.030 A 
HETATM   17  C   UNL     1     -15.464   1.958 -32.726  1.00  0.00     0.012 A 
HETATM   18  C   UNL     1     -16.316   2.957 -32.242  1.00  0.00    -0.030 A 
HETATM   19  C   UNL     1     -15.729   4.095 -31.666  1.00  0.00     0.012 A 
HETATM   20  C   UNL     1     -14.337   4.244 -31.608  1.00  0.00     0.030 A 
BRANCH  18  21
HETATM   21  C   UNL     1     -17.828   2.865 -32.305  1.00  0.00     0.147 C 
HETATM   22  C   UNL     1     -18.598   4.157 -32.042  1.00  0.00     0.044 C 
BRANCH  21  23
HETATM   23  O   UNL     1     -18.219   2.385 -33.592  1.00  0.00    -0.391 OA
HETATM   24  H   UNL     1     -19.178   2.527 -33.675  1.00  0.00     0.210 HD
ENDBRANCH  21  23
ENDBRANCH  18  21
ENDBRANCH  12  15
ENDBRANCH   7  11
BRANCH   1  25
HETATM   25  C   UNL     1      -6.584   0.944 -33.912  1.00  0.00    -0.040 A 
HETATM   26  C   UNL     1      -5.536   0.263 -33.268  1.00  0.00     0.009 A 
HETATM   27  C   UNL     1      -5.257  -1.075 -33.560  1.00  0.00     0.007 A 
HETATM   28  C   UNL     1      -6.009  -1.763 -34.514  1.00  0.00    -0.062 A 
HETATM   29  C   UNL     1      -5.765  -3.221 -34.768  1.00  0.00     0.048 C 
HETATM   30  C   UNL     1      -7.042  -1.090 -35.172  1.00  0.00     0.007 A 
HETATM   31  C   UNL     1      -7.321   0.250 -34.882  1.00  0.00     0.009 A 
ENDBRANCH   1  25
BRANCH   8  32
HETATM   32  C   UNL     1      -6.121   4.731 -30.577  1.00  0.00     0.409 C 
HETATM   33  F   UNL     1      -5.891   6.058 -30.437  1.00  0.00    -0.169 F 
HETATM   34  F   UNL     1      -7.166   4.435 -29.756  1.00  0.00    -0.169 F 
HETATM   35  F   UNL     1      -5.060   4.061 -30.091  1.00  0.00    -0.169 F 
ENDBRANCH   8  32
TORSDOF 6
ENDMDL
