MODEL 1
REMARK VINA RESULT:      -8.4      0.000      0.000
REMARK  9 active torsions:
REMARK  status: ('A' for Active; 'I' for Inactive)
REMARK    1  A    between atoms: C_6  and  C_7 
REMARK    2  A    between atoms: C_7  and  C_8 
REMARK       I    between atoms: C_8  and  N_9 
REMARK    3  A    between atoms: N_9  and  C_10 
REMARK    4  A    between atoms: C_10  and  C_11 
REMARK    5  A    between atoms: C_11  and  N_12 
REMARK    6  A    between atoms: C_20  and  C_21 
REMARK    7  A    between atoms: C_24  and  C_25 
REMARK    8  A    between atoms: C_32  and  C_33 
REMARK    9  A    between atoms: C_33  and  O_34 
ROOT
HETATM    1  C   UNL     1      -5.853   0.427 -29.229  1.00  0.00     0.071 C 
HETATM    2  C   UNL     1      -6.228   0.677 -30.668  1.00  0.00     0.048 C 
HETATM    3  N   UNL     1      -7.435   0.089 -31.035  1.00  0.00    -0.229 NA
HETATM    4  C   UNL     1      -7.984   0.514 -32.122  1.00  0.00     0.170 C 
HETATM    5  N   UNL     1      -7.325   1.594 -33.013  1.00  0.00    -0.319 N 
HETATM    6  C   UNL     1      -8.226   2.379 -33.495  1.00  0.00     0.011 C 
HETATM    7  C   UNL     1      -5.851   1.450 -33.007  1.00  0.00     0.166 C 
HETATM    8  S   UNL     1      -9.610   0.208 -32.604  1.00  0.00    -0.086 SA
HETATM    9  C   UNL     1      -9.629   1.787 -33.524  1.00  0.00     0.135 C 
HETATM   10  C   UNL     1      -5.472   1.382 -31.547  1.00  0.00     0.069 C 
ENDROOT
BRANCH   6  11
HETATM   11  C   UNL     1      -7.909   3.795 -33.889  1.00  0.00     0.156 C 
BRANCH  11  12
HETATM   12  C   UNL     1      -7.769   4.639 -32.629  1.00  0.00     0.223 C 
HETATM   13  N   UNL     1      -7.086   5.820 -32.746  1.00  0.00    -0.359 N 
HETATM   14  H   UNL     1      -6.914   6.209 -33.670  1.00  0.00     0.162 HD
HETATM   15  O   UNL     1      -8.106   4.191 -31.536  1.00  0.00    -0.273 OA
BRANCH  13  16
HETATM   16  C   UNL     1      -6.408   6.503 -31.630  1.00  0.00     0.150 C 
BRANCH  16  17
HETATM   17  C   UNL     1      -5.039   7.179 -31.905  1.00  0.00     0.254 C 
BRANCH  17  18
HETATM   18  N   UNL     1      -3.914   6.187 -32.117  1.00  0.00    -0.070 N 
HETATM   19  H   UNL     1      -4.273   5.277 -31.765  1.00  0.00     0.279 HD
HETATM   20  C   UNL     1      -3.519   5.972 -33.560  1.00  0.00     0.235 C 
HETATM   21  C   UNL     1      -2.566   4.786 -33.644  1.00  0.00     0.028 C 
HETATM   22  C   UNL     1      -1.342   4.980 -32.755  1.00  0.00     0.003 C 
HETATM   23  C   UNL     1      -1.739   5.323 -31.324  1.00  0.00     0.028 C 
HETATM   24  C   UNL     1      -2.703   6.500 -31.265  1.00  0.00     0.235 C 
ENDBRANCH  17  18
ENDBRANCH  16  17
ENDBRANCH  13  16
ENDBRANCH  11  12
ENDBRANCH   6  11
BRANCH   7  25
HETATM   25  C   UNL     1      -5.529   0.164 -33.803  1.00  0.00    -0.030 C 
HETATM   26  C   UNL     1      -6.449  -0.341 -34.744  1.00  0.00     0.010 C 
HETATM   27  C   UNL     1      -6.386  -1.676 -35.155  1.00  0.00     0.008 C 
HETATM   28  C   UNL     1      -5.378  -2.524 -34.681  1.00  0.00    -0.055 C 
HETATM   29  C   UNL     1      -4.355  -1.968 -33.909  1.00  0.00     0.008 C 
HETATM   30  C   UNL     1      -4.419  -0.638 -33.489  1.00  0.00     0.010 C 
BRANCH  28  31
HETATM   31  C   UNL     1      -5.454  -4.021 -34.935  1.00  0.00     0.010 C 
HETATM   32  C   UNL     1      -4.526  -4.827 -34.029  1.00  0.00     0.015 C 
HETATM   33  C   UNL     1      -6.905  -4.506 -34.792  1.00  0.00     0.015 C 
ENDBRANCH  28  31
ENDBRANCH   7  25
BRANCH  10  34
HETATM   34  C   UNL     1      -4.258   2.159 -31.228  1.00  0.00     0.293 C 
HETATM   35  O   UNL     1      -3.144   1.669 -31.285  1.00  0.00    -0.259 OA
BRANCH  34  36
HETATM   36  O   UNL     1      -4.560   3.472 -31.116  1.00  0.00    -0.323 OA
HETATM   37  C   UNL     1      -5.081   3.849 -29.835  1.00  0.00     0.213 C 
ENDBRANCH  34  36
ENDBRANCH  10  34
TORSDOF 9
ENDMDL
MODEL 2
REMARK VINA RESULT:      -8.3      1.579      2.373
REMARK  9 active torsions:
REMARK  status: ('A' for Active; 'I' for Inactive)
REMARK    1  A    between atoms: C_6  and  C_7 
REMARK    2  A    between atoms: C_7  and  C_8 
REMARK       I    between atoms: C_8  and  N_9 
REMARK    3  A    between atoms: N_9  and  C_10 
REMARK    4  A    between atoms: C_10  and  C_11 
REMARK    5  A    between atoms: C_11  and  N_12 
REMARK    6  A    between atoms: C_20  and  C_21 
REMARK    7  A    between atoms: C_24  and  C_25 
REMARK    8  A    between atoms: C_32  and  C_33 
REMARK    9  A    between atoms: C_33  and  O_34 
ROOT
HETATM    1  C   UNL     1      -5.560   0.617 -29.246  1.00  0.00     0.071 C 
HETATM    2  C   UNL     1      -5.973   0.798 -30.684  1.00  0.00     0.048 C 
HETATM    3  N   UNL     1      -7.261   0.345 -30.951  1.00  0.00    -0.229 NA
HETATM    4  C   UNL     1      -7.807   0.750 -32.048  1.00  0.00     0.170 C 
HETATM    5  N   UNL     1      -7.063   1.662 -33.053  1.00  0.00    -0.319 N 
HETATM    6  C   UNL     1      -7.881   2.516 -33.562  1.00  0.00     0.011 C 
HETATM    7  C   UNL     1      -5.621   1.328 -33.094  1.00  0.00     0.166 C 
HETATM    8  S   UNL     1      -9.481   0.620 -32.436  1.00  0.00    -0.086 SA
HETATM    9  C   UNL     1      -9.347   2.111 -33.485  1.00  0.00     0.135 C 
HETATM   10  C   UNL     1      -5.179   1.328 -31.650  1.00  0.00     0.069 C 
ENDROOT
BRANCH   6  11
HETATM   11  C   UNL     1      -7.410   3.843 -34.088  1.00  0.00     0.156 C 
BRANCH  11  12
HETATM   12  C   UNL     1      -7.489   4.875 -32.970  1.00  0.00     0.223 C 
HETATM   13  N   UNL     1      -6.497   4.846 -32.028  1.00  0.00    -0.359 N 
HETATM   14  H   UNL     1      -5.639   4.333 -32.219  1.00  0.00     0.162 HD
HETATM   15  O   UNL     1      -8.489   5.576 -32.836  1.00  0.00    -0.273 OA
BRANCH  13  16
HETATM   16  C   UNL     1      -6.638   5.360 -30.654  1.00  0.00     0.150 C 
BRANCH  16  17
HETATM   17  C   UNL     1      -5.895   4.620 -29.511  1.00  0.00     0.254 C 
BRANCH  17  18
HETATM   18  N   UNL     1      -4.880   5.488 -28.796  1.00  0.00    -0.070 N 
HETATM   19  H   UNL     1      -4.090   4.855 -28.558  1.00  0.00     0.279 HD
HETATM   20  C   UNL     1      -4.305   6.610 -29.628  1.00  0.00     0.235 C 
HETATM   21  C   UNL     1      -3.135   7.236 -28.880  1.00  0.00     0.028 C 
HETATM   22  C   UNL     1      -3.546   7.724 -27.495  1.00  0.00     0.003 C 
HETATM   23  C   UNL     1      -4.242   6.627 -26.698  1.00  0.00     0.028 C 
HETATM   24  C   UNL     1      -5.397   6.005 -27.472  1.00  0.00     0.235 C 
ENDBRANCH  17  18
ENDBRANCH  16  17
ENDBRANCH  13  16
ENDBRANCH  11  12
ENDBRANCH   6  11
BRANCH   7  25
HETATM   25  C   UNL     1      -5.504  -0.047 -33.790  1.00  0.00    -0.030 C 
HETATM   26  C   UNL     1      -6.555  -0.529 -34.598  1.00  0.00     0.010 C 
HETATM   27  C   UNL     1      -6.663  -1.893 -34.886  1.00  0.00     0.008 C 
HETATM   28  C   UNL     1      -5.704  -2.800 -34.422  1.00  0.00    -0.055 C 
HETATM   29  C   UNL     1      -4.562  -2.294 -33.795  1.00  0.00     0.008 C 
HETATM   30  C   UNL     1      -4.454  -0.934 -33.498  1.00  0.00     0.010 C 
BRANCH  28  31
HETATM   31  C   UNL     1      -5.951  -4.297 -34.526  1.00  0.00     0.010 C 
HETATM   32  C   UNL     1      -6.597  -4.705 -35.849  1.00  0.00     0.015 C 
HETATM   33  C   UNL     1      -4.638  -5.063 -34.306  1.00  0.00     0.015 C 
ENDBRANCH  28  31
ENDBRANCH   7  25
BRANCH  10  34
HETATM   34  C   UNL     1      -3.863   1.964 -31.447  1.00  0.00     0.293 C 
HETATM   35  O   UNL     1      -2.886   1.327 -31.095  1.00  0.00    -0.259 OA
BRANCH  34  36
HETATM   36  O   UNL     1      -3.875   3.227 -31.927  1.00  0.00    -0.323 OA
HETATM   37  C   UNL     1      -2.688   3.978 -31.639  1.00  0.00     0.213 C 
ENDBRANCH  34  36
ENDBRANCH  10  34
TORSDOF 9
ENDMDL
MODEL 3
REMARK VINA RESULT:      -8.2      2.932      4.445
REMARK  9 active torsions:
REMARK  status: ('A' for Active; 'I' for Inactive)
REMARK    1  A    between atoms: C_6  and  C_7 
REMARK    2  A    between atoms: C_7  and  C_8 
REMARK       I    between atoms: C_8  and  N_9 
REMARK    3  A    between atoms: N_9  and  C_10 
REMARK    4  A    between atoms: C_10  and  C_11 
REMARK    5  A    between atoms: C_11  and  N_12 
REMARK    6  A    between atoms: C_20  and  C_21 
REMARK    7  A    between atoms: C_24  and  C_25 
REMARK    8  A    between atoms: C_32  and  C_33 
REMARK    9  A    between atoms: C_33  and  O_34 
ROOT
HETATM    1  C   UNL     1      -9.415   4.162 -34.530  1.00  0.00     0.071 C 
HETATM    2  C   UNL     1      -8.249   3.525 -33.818  1.00  0.00     0.048 C 
HETATM    3  N   UNL     1      -7.013   4.006 -34.242  1.00  0.00    -0.229 NA
HETATM    4  C   UNL     1      -6.001   3.767 -33.478  1.00  0.00     0.170 C 
HETATM    5  N   UNL     1      -6.128   2.949 -32.171  1.00  0.00    -0.319 N 
HETATM    6  C   UNL     1      -5.360   3.445 -31.263  1.00  0.00     0.011 C 
HETATM    7  C   UNL     1      -7.134   1.873 -32.322  1.00  0.00     0.166 C 
HETATM    8  S   UNL     1      -4.461   4.532 -33.594  1.00  0.00    -0.086 SA
HETATM    9  C   UNL     1      -4.211   4.288 -31.800  1.00  0.00     0.135 C 
HETATM   10  C   UNL     1      -8.362   2.561 -32.869  1.00  0.00     0.069 C 
ENDROOT
BRANCH   6  11
HETATM   11  C   UNL     1      -5.657   3.276 -29.799  1.00  0.00     0.156 C 
BRANCH  11  12
HETATM   12  C   UNL     1      -5.841   4.652 -29.171  1.00  0.00     0.223 C 
HETATM   13  N   UNL     1      -5.007   4.978 -28.136  1.00  0.00    -0.359 N 
HETATM   14  H   UNL     1      -4.163   4.430 -27.981  1.00  0.00     0.162 HD
HETATM   15  O   UNL     1      -6.804   5.353 -29.472  1.00  0.00    -0.273 OA
BRANCH  13  16
HETATM   16  C   UNL     1      -5.322   5.970 -27.093  1.00  0.00     0.150 C 
BRANCH  16  17
HETATM   17  C   UNL     1      -4.325   7.137 -26.863  1.00  0.00     0.254 C 
BRANCH  17  18
HETATM   18  N   UNL     1      -2.884   6.754 -27.131  1.00  0.00    -0.070 N 
HETATM   19  H   UNL     1      -2.920   5.797 -27.536  1.00  0.00     0.279 HD
HETATM   20  C   UNL     1      -2.170   7.628 -28.136  1.00  0.00     0.235 C 
HETATM   21  C   UNL     1      -0.833   6.989 -28.490  1.00  0.00     0.028 C 
HETATM   22  C   UNL     1       0.025   6.750 -27.253  1.00  0.00     0.003 C 
HETATM   23  C   UNL     1      -0.739   5.976 -26.183  1.00  0.00     0.028 C 
HETATM   24  C   UNL     1      -2.078   6.624 -25.858  1.00  0.00     0.235 C 
ENDBRANCH  17  18
ENDBRANCH  16  17
ENDBRANCH  13  16
ENDBRANCH  11  12
ENDBRANCH   6  11
BRANCH   7  25
HETATM   25  C   UNL     1      -6.521   0.823 -33.277  1.00  0.00    -0.030 C 
HETATM   26  C   UNL     1      -7.285   0.287 -34.333  1.00  0.00     0.010 C 
HETATM   27  C   UNL     1      -6.924  -0.924 -34.930  1.00  0.00     0.008 C 
HETATM   28  C   UNL     1      -5.769  -1.604 -34.527  1.00  0.00    -0.055 C 
HETATM   29  C   UNL     1      -4.910  -0.972 -33.623  1.00  0.00     0.008 C 
HETATM   30  C   UNL     1      -5.272   0.233 -33.018  1.00  0.00     0.010 C 
BRANCH  28  31
HETATM   31  C   UNL     1      -5.512  -3.026 -34.999  1.00  0.00     0.010 C 
HETATM   32  C   UNL     1      -4.365  -3.705 -34.253  1.00  0.00     0.015 C 
HETATM   33  C   UNL     1      -6.798  -3.858 -34.888  1.00  0.00     0.015 C 
ENDBRANCH  28  31
ENDBRANCH   7  25
BRANCH  10  34
HETATM   34  C   UNL     1      -9.615   2.087 -32.251  1.00  0.00     0.293 C 
HETATM   35  O   UNL     1     -10.381   1.341 -32.835  1.00  0.00    -0.259 OA
BRANCH  34  36
HETATM   36  O   UNL     1      -9.635   2.400 -30.936  1.00  0.00    -0.323 OA
HETATM   37  C   UNL     1     -10.172   3.698 -30.648  1.00  0.00     0.213 C 
ENDBRANCH  34  36
ENDBRANCH  10  34
TORSDOF 9
ENDMDL
MODEL 4
REMARK VINA RESULT:      -8.1      2.498      5.456
REMARK  9 active torsions:
REMARK  status: ('A' for Active; 'I' for Inactive)
REMARK    1  A    between atoms: C_6  and  C_7 
REMARK    2  A    between atoms: C_7  and  C_8 
REMARK       I    between atoms: C_8  and  N_9 
REMARK    3  A    between atoms: N_9  and  C_10 
REMARK    4  A    between atoms: C_10  and  C_11 
REMARK    5  A    between atoms: C_11  and  N_12 
REMARK    6  A    between atoms: C_20  and  C_21 
REMARK    7  A    between atoms: C_24  and  C_25 
REMARK    8  A    between atoms: C_32  and  C_33 
REMARK    9  A    between atoms: C_33  and  O_34 
ROOT
HETATM    1  C   UNL     1      -5.947   0.573 -29.301  1.00  0.00     0.071 C 
HETATM    2  C   UNL     1      -6.340   0.750 -30.745  1.00  0.00     0.048 C 
HETATM    3  N   UNL     1      -7.507   0.072 -31.087  1.00  0.00    -0.229 NA
HETATM    4  C   UNL     1      -8.085   0.424 -32.186  1.00  0.00     0.170 C 
HETATM    5  N   UNL     1      -7.500   1.514 -33.115  1.00  0.00    -0.319 N 
HETATM    6  C   UNL     1      -8.451   2.222 -33.618  1.00  0.00     0.011 C 
HETATM    7  C   UNL     1      -6.019   1.467 -33.110  1.00  0.00     0.166 C 
HETATM    8  S   UNL     1      -9.688  -0.004 -32.651  1.00  0.00    -0.086 SA
HETATM    9  C   UNL     1      -9.812   1.539 -33.622  1.00  0.00     0.135 C 
HETATM   10  C   UNL     1      -5.633   1.473 -31.650  1.00  0.00     0.069 C 
ENDROOT
BRANCH   6  11
HETATM   11  C   UNL     1      -8.229   3.642 -34.061  1.00  0.00     0.156 C 
BRANCH  11  12
HETATM   12  C   UNL     1      -9.581   4.324 -34.227  1.00  0.00     0.223 C 
HETATM   13  N   UNL     1     -10.265   4.631 -33.082  1.00  0.00    -0.359 N 
HETATM   14  H   UNL     1      -9.776   4.629 -32.190  1.00  0.00     0.162 HD
HETATM   15  O   UNL     1     -10.095   4.431 -35.338  1.00  0.00    -0.273 OA
BRANCH  13  16
HETATM   16  C   UNL     1     -11.727   4.799 -33.007  1.00  0.00     0.150 C 
BRANCH  16  17
HETATM   17  C   UNL     1     -12.513   3.949 -31.974  1.00  0.00     0.254 C 
BRANCH  17  18
HETATM   18  N   UNL     1     -13.218   2.759 -32.591  1.00  0.00    -0.070 N 
HETATM   19  H   UNL     1     -12.755   1.920 -32.188  1.00  0.00     0.279 HD
HETATM   20  C   UNL     1     -14.688   2.648 -32.260  1.00  0.00     0.235 C 
HETATM   21  C   UNL     1     -15.204   1.294 -32.732  1.00  0.00     0.028 C 
HETATM   22  C   UNL     1     -14.951   1.080 -34.220  1.00  0.00     0.003 C 
HETATM   23  C   UNL     1     -13.489   1.317 -34.580  1.00  0.00     0.028 C 
HETATM   24  C   UNL     1     -12.991   2.668 -34.084  1.00  0.00     0.235 C 
ENDBRANCH  17  18
ENDBRANCH  16  17
ENDBRANCH  13  16
ENDBRANCH  11  12
ENDBRANCH   6  11
BRANCH   7  25
HETATM   25  C   UNL     1      -5.615   0.180 -33.865  1.00  0.00    -0.030 C 
HETATM   26  C   UNL     1      -6.459  -0.360 -34.856  1.00  0.00     0.010 C 
HETATM   27  C   UNL     1      -6.338  -1.698 -35.243  1.00  0.00     0.008 C 
HETATM   28  C   UNL     1      -5.344  -2.515 -34.692  1.00  0.00    -0.055 C 
HETATM   29  C   UNL     1      -4.387  -1.924 -33.862  1.00  0.00     0.008 C 
HETATM   30  C   UNL     1      -4.510  -0.591 -33.467  1.00  0.00     0.010 C 
BRANCH  28  31
HETATM   31  C   UNL     1      -5.367  -4.017 -34.928  1.00  0.00     0.010 C 
HETATM   32  C   UNL     1      -4.434  -4.782 -33.993  1.00  0.00     0.015 C 
HETATM   33  C   UNL     1      -6.804  -4.545 -34.810  1.00  0.00     0.015 C 
ENDBRANCH  28  31
ENDBRANCH   7  25
BRANCH  10  34
HETATM   34  C   UNL     1      -4.473   2.339 -31.362  1.00  0.00     0.293 C 
HETATM   35  O   UNL     1      -3.349   1.888 -31.232  1.00  0.00    -0.259 OA
BRANCH  34  36
HETATM   36  O   UNL     1      -4.812   3.639 -31.508  1.00  0.00    -0.323 OA
HETATM   37  C   UNL     1      -5.543   4.184 -30.403  1.00  0.00     0.213 C 
ENDBRANCH  34  36
ENDBRANCH  10  34
TORSDOF 9
ENDMDL
MODEL 5
REMARK VINA RESULT:      -8.1      2.618      4.995
REMARK  9 active torsions:
REMARK  status: ('A' for Active; 'I' for Inactive)
REMARK    1  A    between atoms: C_6  and  C_7 
REMARK    2  A    between atoms: C_7  and  C_8 
REMARK       I    between atoms: C_8  and  N_9 
REMARK    3  A    between atoms: N_9  and  C_10 
REMARK    4  A    between atoms: C_10  and  C_11 
REMARK    5  A    between atoms: C_11  and  N_12 
REMARK    6  A    between atoms: C_20  and  C_21 
REMARK    7  A    between atoms: C_24  and  C_25 
REMARK    8  A    between atoms: C_32  and  C_33 
REMARK    9  A    between atoms: C_33  and  O_34 
ROOT
HETATM    1  C   UNL     1      -5.722   0.204 -30.127  1.00  0.00     0.071 C 
HETATM    2  C   UNL     1      -6.265   1.183 -31.135  1.00  0.00     0.048 C 
HETATM    3  N   UNL     1      -6.740   2.360 -30.563  1.00  0.00    -0.229 NA
HETATM    4  C   UNL     1      -6.913   3.365 -31.354  1.00  0.00     0.170 C 
HETATM    5  N   UNL     1      -6.653   3.272 -32.877  1.00  0.00    -0.319 N 
HETATM    6  C   UNL     1      -6.135   4.371 -33.304  1.00  0.00     0.011 C 
HETATM    7  C   UNL     1      -7.020   1.931 -33.390  1.00  0.00     0.166 C 
HETATM    8  S   UNL     1      -7.153   4.997 -30.856  1.00  0.00    -0.086 SA
HETATM    9  C   UNL     1      -6.389   5.578 -32.412  1.00  0.00     0.135 C 
HETATM   10  C   UNL     1      -6.319   0.958 -32.473  1.00  0.00     0.069 C 
ENDROOT
BRANCH   6  11
HETATM   11  C   UNL     1      -5.266   4.408 -34.531  1.00  0.00     0.156 C 
BRANCH  11  12
HETATM   12  C   UNL     1      -3.893   4.947 -34.147  1.00  0.00     0.223 C 
HETATM   13  N   UNL     1      -3.192   4.243 -33.205  1.00  0.00    -0.359 N 
HETATM   14  H   UNL     1      -3.474   3.293 -32.977  1.00  0.00     0.162 HD
HETATM   15  O   UNL     1      -3.521   6.049 -34.542  1.00  0.00    -0.273 OA
BRANCH  13  16
HETATM   16  C   UNL     1      -2.145   4.821 -32.343  1.00  0.00     0.150 C 
BRANCH  16  17
HETATM   17  C   UNL     1      -2.582   5.722 -31.158  1.00  0.00     0.254 C 
BRANCH  17  18
HETATM   18  N   UNL     1      -1.564   5.771 -30.037  1.00  0.00    -0.070 N 
HETATM   19  H   UNL     1      -1.877   5.063 -29.344  1.00  0.00     0.279 HD
HETATM   20  C   UNL     1      -0.156   5.397 -30.440  1.00  0.00     0.235 C 
HETATM   21  C   UNL     1       0.697   5.249 -29.186  1.00  0.00     0.028 C 
HETATM   22  C   UNL     1       0.679   6.516 -28.337  1.00  0.00     0.003 C 
HETATM   23  C   UNL     1      -0.745   6.968 -28.036  1.00  0.00     0.028 C 
HETATM   24  C   UNL     1      -1.584   7.093 -29.301  1.00  0.00     0.235 C 
ENDBRANCH  17  18
ENDBRANCH  16  17
ENDBRANCH  13  16
ENDBRANCH  11  12
ENDBRANCH   6  11
BRANCH   7  25
HETATM   25  C   UNL     1      -8.563   1.845 -33.341  1.00  0.00    -0.030 C 
HETATM   26  C   UNL     1      -9.197   0.693 -32.831  1.00  0.00     0.010 C 
HETATM   27  C   UNL     1     -10.528   0.414 -33.151  1.00  0.00     0.008 C 
HETATM   28  C   UNL     1     -11.275   1.295 -33.941  1.00  0.00    -0.055 C 
HETATM   29  C   UNL     1     -10.706   2.527 -34.276  1.00  0.00     0.008 C 
HETATM   30  C   UNL     1      -9.374   2.807 -33.966  1.00  0.00     0.010 C 
BRANCH  28  31
HETATM   31  C   UNL     1     -12.631   0.875 -34.486  1.00  0.00     0.010 C 
HETATM   32  C   UNL     1     -13.283  -0.239 -33.671  1.00  0.00     0.015 C 
HETATM   33  C   UNL     1     -13.561   2.095 -34.577  1.00  0.00     0.015 C 
ENDBRANCH  28  31
ENDBRANCH   7  25
BRANCH  10  34
HETATM   34  C   UNL     1      -5.719  -0.184 -33.190  1.00  0.00     0.293 C 
HETATM   35  O   UNL     1      -4.535  -0.215 -33.478  1.00  0.00    -0.259 OA
BRANCH  34  36
HETATM   36  O   UNL     1      -6.592  -1.214 -33.242  1.00  0.00    -0.323 OA
HETATM   37  C   UNL     1      -6.691  -1.837 -34.530  1.00  0.00     0.213 C 
ENDBRANCH  34  36
ENDBRANCH  10  34
TORSDOF 9
ENDMDL
MODEL 6
REMARK VINA RESULT:      -8.1      3.841      9.483
REMARK  9 active torsions:
REMARK  status: ('A' for Active; 'I' for Inactive)
REMARK    1  A    between atoms: C_6  and  C_7 
REMARK    2  A    between atoms: C_7  and  C_8 
REMARK       I    between atoms: C_8  and  N_9 
REMARK    3  A    between atoms: N_9  and  C_10 
REMARK    4  A    between atoms: C_10  and  C_11 
REMARK    5  A    between atoms: C_11  and  N_12 
REMARK    6  A    between atoms: C_20  and  C_21 
REMARK    7  A    between atoms: C_24  and  C_25 
REMARK    8  A    between atoms: C_32  and  C_33 
REMARK    9  A    between atoms: C_33  and  O_34 
ROOT
HETATM    1  C   UNL     1      -1.386   7.092 -33.804  1.00  0.00     0.071 C 
HETATM    2  C   UNL     1      -1.880   7.254 -32.389  1.00  0.00     0.048 C 
HETATM    3  N   UNL     1      -2.595   8.431 -32.185  1.00  0.00    -0.229 NA
HETATM    4  C   UNL     1      -3.319   8.497 -31.120  1.00  0.00     0.170 C 
HETATM    5  N   UNL     1      -3.369   7.349 -30.083  1.00  0.00    -0.319 N 
HETATM    6  C   UNL     1      -4.564   7.224 -29.619  1.00  0.00     0.011 C 
HETATM    7  C   UNL     1      -2.047   6.690 -29.968  1.00  0.00     0.166 C 
HETATM    8  S   UNL     1      -4.542   9.672 -30.815  1.00  0.00    -0.086 SA
HETATM    9  C   UNL     1      -5.431   8.467 -29.768  1.00  0.00     0.135 C 
HETATM   10  C   UNL     1      -1.646   6.369 -31.388  1.00  0.00     0.069 C 
ENDROOT
BRANCH   6  11
HETATM   11  C   UNL     1      -5.067   5.916 -29.077  1.00  0.00     0.156 C 
BRANCH  11  12
HETATM   12  C   UNL     1      -5.454   5.014 -30.242  1.00  0.00     0.223 C 
HETATM   13  N   UNL     1      -5.713   3.701 -29.952  1.00  0.00    -0.359 N 
HETATM   14  H   UNL     1      -5.879   3.425 -28.987  1.00  0.00     0.162 HD
HETATM   15  O   UNL     1      -5.366   5.416 -31.400  1.00  0.00    -0.273 OA
BRANCH  13  16
HETATM   16  C   UNL     1      -5.595   2.596 -30.919  1.00  0.00     0.150 C 
BRANCH  16  17
HETATM   17  C   UNL     1      -6.885   2.084 -31.612  1.00  0.00     0.254 C 
BRANCH  17  18
HETATM   18  N   UNL     1      -6.611   1.160 -32.781  1.00  0.00    -0.070 N 
HETATM   19  H   UNL     1      -5.717   1.492 -33.195  1.00  0.00     0.279 HD
HETATM   20  C   UNL     1      -6.409  -0.291 -32.411  1.00  0.00     0.235 C 
HETATM   21  C   UNL     1      -5.902  -1.050 -33.631  1.00  0.00     0.028 C 
HETATM   22  C   UNL     1      -6.846  -0.905 -34.819  1.00  0.00     0.003 C 
HETATM   23  C   UNL     1      -7.153   0.559 -35.115  1.00  0.00     0.028 C 
HETATM   24  C   UNL     1      -7.642   1.301 -33.879  1.00  0.00     0.235 C 
ENDBRANCH  17  18
ENDBRANCH  16  17
ENDBRANCH  13  16
ENDBRANCH  11  12
ENDBRANCH   6  11
BRANCH   7  25
HETATM   25  C   UNL     1      -1.111   7.696 -29.259  1.00  0.00    -0.030 C 
HETATM   26  C   UNL     1       0.286   7.504 -29.278  1.00  0.00     0.010 C 
HETATM   27  C   UNL     1       1.103   8.128 -28.330  1.00  0.00     0.008 C 
HETATM   28  C   UNL     1       0.558   8.994 -27.375  1.00  0.00    -0.055 C 
HETATM   29  C   UNL     1      -0.793   9.336 -27.486  1.00  0.00     0.008 C 
HETATM   30  C   UNL     1      -1.614   8.709 -28.426  1.00  0.00     0.010 C 
BRANCH  28  31
HETATM   31  C   UNL     1       1.401   9.475 -26.205  1.00  0.00     0.010 C 
HETATM   32  C   UNL     1       0.575  10.141 -25.107  1.00  0.00     0.015 C 
HETATM   33  C   UNL     1       2.220   8.308 -25.633  1.00  0.00     0.015 C 
ENDBRANCH  28  31
ENDBRANCH   7  25
BRANCH  10  34
HETATM   34  C   UNL     1      -1.029   5.036 -31.527  1.00  0.00     0.293 C 
HETATM   35  O   UNL     1       0.179   4.877 -31.495  1.00  0.00    -0.259 OA
BRANCH  34  36
HETATM   36  O   UNL     1      -1.974   4.072 -31.450  1.00  0.00    -0.323 OA
HETATM   37  C   UNL     1      -2.561   3.722 -32.710  1.00  0.00     0.213 C 
ENDBRANCH  34  36
ENDBRANCH  10  34
TORSDOF 9
ENDMDL
MODEL 7
REMARK VINA RESULT:      -7.9      3.313      5.475
REMARK  9 active torsions:
REMARK  status: ('A' for Active; 'I' for Inactive)
REMARK    1  A    between atoms: C_6  and  C_7 
REMARK    2  A    between atoms: C_7  and  C_8 
REMARK       I    between atoms: C_8  and  N_9 
REMARK    3  A    between atoms: N_9  and  C_10 
REMARK    4  A    between atoms: C_10  and  C_11 
REMARK    5  A    between atoms: C_11  and  N_12 
REMARK    6  A    between atoms: C_20  and  C_21 
REMARK    7  A    between atoms: C_24  and  C_25 
REMARK    8  A    between atoms: C_32  and  C_33 
REMARK    9  A    between atoms: C_33  and  O_34 
ROOT
HETATM    1  C   UNL     1      -6.865   6.137 -32.239  1.00  0.00     0.071 C 
HETATM    2  C   UNL     1      -5.610   5.308 -32.333  1.00  0.00     0.048 C 
HETATM    3  N   UNL     1      -4.946   5.446 -33.549  1.00  0.00    -0.229 NA
HETATM    4  C   UNL     1      -3.721   5.043 -33.595  1.00  0.00     0.170 C 
HETATM    5  N   UNL     1      -3.020   4.393 -32.378  1.00  0.00    -0.319 N 
HETATM    6  C   UNL     1      -1.790   4.771 -32.324  1.00  0.00     0.011 C 
HETATM    7  C   UNL     1      -3.977   3.575 -31.598  1.00  0.00     0.166 C 
HETATM    8  S   UNL     1      -2.596   5.411 -34.846  1.00  0.00    -0.086 SA
HETATM    9  C   UNL     1      -1.224   5.272 -33.647  1.00  0.00     0.135 C 
HETATM   10  C   UNL     1      -5.158   4.483 -31.355  1.00  0.00     0.069 C 
ENDROOT
BRANCH   6  11
HETATM   11  C   UNL     1      -1.031   4.804 -31.027  1.00  0.00     0.156 C 
BRANCH  11  12
HETATM   12  C   UNL     1      -1.236   6.163 -30.369  1.00  0.00     0.223 C 
HETATM   13  N   UNL     1      -2.357   6.315 -29.598  1.00  0.00    -0.359 N 
HETATM   14  H   UNL     1      -2.870   5.492 -29.291  1.00  0.00     0.162 HD
HETATM   15  O   UNL     1      -0.518   7.115 -30.662  1.00  0.00    -0.273 OA
BRANCH  13  16
HETATM   16  C   UNL     1      -3.001   7.610 -29.313  1.00  0.00     0.150 C 
BRANCH  16  17
HETATM   17  C   UNL     1      -2.432   8.476 -28.158  1.00  0.00     0.254 C 
BRANCH  17  18
HETATM   18  N   UNL     1      -0.995   8.145 -27.814  1.00  0.00    -0.070 N 
HETATM   19  H   UNL     1      -0.640   7.578 -28.611  1.00  0.00     0.279 HD
HETATM   20  C   UNL     1      -0.079   9.340 -27.686  1.00  0.00     0.235 C 
HETATM   21  C   UNL     1       1.362   8.855 -27.588  1.00  0.00     0.028 C 
HETATM   22  C   UNL     1       1.553   7.882 -26.430  1.00  0.00     0.003 C 
HETATM   23  C   UNL     1       0.544   6.740 -26.486  1.00  0.00     0.028 C 
HETATM   24  C   UNL     1      -0.887   7.248 -26.601  1.00  0.00     0.235 C 
ENDBRANCH  17  18
ENDBRANCH  16  17
ENDBRANCH  13  16
ENDBRANCH  11  12
ENDBRANCH   6  11
BRANCH   7  25
HETATM   25  C   UNL     1      -4.301   2.332 -32.458  1.00  0.00    -0.030 C 
HETATM   26  C   UNL     1      -5.599   2.144 -32.978  1.00  0.00     0.010 C 
HETATM   27  C   UNL     1      -6.026   0.877 -33.384  1.00  0.00     0.008 C 
HETATM   28  C   UNL     1      -5.160  -0.222 -33.329  1.00  0.00    -0.055 C 
HETATM   29  C   UNL     1      -3.820   0.007 -33.004  1.00  0.00     0.008 C 
HETATM   30  C   UNL     1      -3.392   1.270 -32.590  1.00  0.00     0.010 C 
BRANCH  28  31
HETATM   31  C   UNL     1      -5.694  -1.630 -33.536  1.00  0.00     0.010 C 
HETATM   32  C   UNL     1      -6.814  -1.698 -34.572  1.00  0.00     0.015 C 
HETATM   33  C   UNL     1      -4.546  -2.577 -33.918  1.00  0.00     0.015 C 
ENDBRANCH  28  31
ENDBRANCH   7  25
BRANCH  10  34
HETATM   34  C   UNL     1      -5.702   4.372 -29.987  1.00  0.00     0.293 C 
HETATM   35  O   UNL     1      -5.553   5.254 -29.160  1.00  0.00    -0.259 OA
BRANCH  34  36
HETATM   36  O   UNL     1      -6.542   3.316 -29.902  1.00  0.00    -0.323 OA
HETATM   37  C   UNL     1      -7.921   3.673 -29.745  1.00  0.00     0.213 C 
ENDBRANCH  34  36
ENDBRANCH  10  34
TORSDOF 9
ENDMDL
MODEL 8
REMARK VINA RESULT:      -7.9      2.939      7.726
REMARK  9 active torsions:
REMARK  status: ('A' for Active; 'I' for Inactive)
REMARK    1  A    between atoms: C_6  and  C_7 
REMARK    2  A    between atoms: C_7  and  C_8 
REMARK       I    between atoms: C_8  and  N_9 
REMARK    3  A    between atoms: N_9  and  C_10 
REMARK    4  A    between atoms: C_10  and  C_11 
REMARK    5  A    between atoms: C_11  and  N_12 
REMARK    6  A    between atoms: C_20  and  C_21 
REMARK    7  A    between atoms: C_24  and  C_25 
REMARK    8  A    between atoms: C_32  and  C_33 
REMARK    9  A    between atoms: C_33  and  O_34 
ROOT
HETATM    1  C   UNL     1      -9.011   4.477 -30.271  1.00  0.00     0.071 C 
HETATM    2  C   UNL     1      -7.832   3.845 -30.966  1.00  0.00     0.048 C 
HETATM    3  N   UNL     1      -7.310   2.750 -30.283  1.00  0.00    -0.229 NA
HETATM    4  C   UNL     1      -6.531   1.965 -30.949  1.00  0.00     0.170 C 
HETATM    5  N   UNL     1      -6.149   2.236 -32.423  1.00  0.00    -0.319 N 
HETATM    6  C   UNL     1      -6.088   1.126 -33.074  1.00  0.00     0.011 C 
HETATM    7  C   UNL     1      -6.023   3.690 -32.673  1.00  0.00     0.166 C 
HETATM    8  S   UNL     1      -6.044   0.388 -30.452  1.00  0.00    -0.086 SA
HETATM    9  C   UNL     1      -5.879  -0.106 -32.204  1.00  0.00     0.135 C 
HETATM   10  C   UNL     1      -7.298   4.292 -32.131  1.00  0.00     0.069 C 
ENDROOT
BRANCH   6  11
HETATM   11  C   UNL     1      -6.313   1.070 -34.560  1.00  0.00     0.156 C 
BRANCH  11  12
HETATM   12  C   UNL     1      -7.763   0.685 -34.826  1.00  0.00     0.223 C 
HETATM   13  N   UNL     1      -8.711   1.645 -34.595  1.00  0.00    -0.359 N 
HETATM   14  H   UNL     1      -8.427   2.617 -34.499  1.00  0.00     0.162 HD
HETATM   15  O   UNL     1      -8.066  -0.480 -35.067  1.00  0.00    -0.273 OA
BRANCH  13  16
HETATM   16  C   UNL     1     -10.125   1.362 -34.291  1.00  0.00     0.150 C 
BRANCH  16  17
HETATM   17  C   UNL     1     -10.807   2.163 -33.151  1.00  0.00     0.254 C 
BRANCH  17  18
HETATM   18  N   UNL     1     -12.263   1.796 -32.950  1.00  0.00    -0.070 N 
HETATM   19  H   UNL     1     -12.294   1.247 -32.068  1.00  0.00     0.279 HD
HETATM   20  C   UNL     1     -13.196   2.971 -32.766  1.00  0.00     0.235 C 
HETATM   21  C   UNL     1     -14.563   2.458 -32.332  1.00  0.00     0.028 C 
HETATM   22  C   UNL     1     -15.130   1.448 -33.324  1.00  0.00     0.003 C 
HETATM   23  C   UNL     1     -14.137   0.327 -33.610  1.00  0.00     0.028 C 
HETATM   24  C   UNL     1     -12.774   0.863 -34.025  1.00  0.00     0.235 C 
ENDBRANCH  17  18
ENDBRANCH  16  17
ENDBRANCH  13  16
ENDBRANCH  11  12
ENDBRANCH   6  11
BRANCH   7  25
HETATM   25  C   UNL     1      -4.744   4.156 -31.939  1.00  0.00    -0.030 C 
HETATM   26  C   UNL     1      -4.757   5.331 -31.159  1.00  0.00     0.010 C 
HETATM   27  C   UNL     1      -3.565   5.988 -30.842  1.00  0.00     0.008 C 
HETATM   28  C   UNL     1      -2.331   5.468 -31.249  1.00  0.00    -0.055 C 
HETATM   29  C   UNL     1      -2.310   4.204 -31.846  1.00  0.00     0.008 C 
HETATM   30  C   UNL     1      -3.499   3.549 -32.172  1.00  0.00     0.010 C 
BRANCH  28  31
HETATM   31  C   UNL     1      -1.066   6.301 -31.118  1.00  0.00     0.010 C 
HETATM   32  C   UNL     1       0.191   5.454 -30.936  1.00  0.00     0.015 C 
HETATM   33  C   UNL     1      -0.921   7.232 -32.331  1.00  0.00     0.015 C 
ENDBRANCH  28  31
ENDBRANCH   7  25
BRANCH  10  34
HETATM   34  C   UNL     1      -7.856   5.345 -33.001  1.00  0.00     0.293 C 
HETATM   35  O   UNL     1      -7.739   6.528 -32.738  1.00  0.00    -0.259 OA
BRANCH  34  36
HETATM   36  O   UNL     1      -8.266   4.813 -34.174  1.00  0.00    -0.323 OA
HETATM   37  C   UNL     1      -9.493   5.363 -34.673  1.00  0.00     0.213 C 
ENDBRANCH  34  36
ENDBRANCH  10  34
TORSDOF 9
ENDMDL
MODEL 9
REMARK VINA RESULT:      -7.6      2.441      4.492
REMARK  9 active torsions:
REMARK  status: ('A' for Active; 'I' for Inactive)
REMARK    1  A    between atoms: C_6  and  C_7 
REMARK    2  A    between atoms: C_7  and  C_8 
REMARK       I    between atoms: C_8  and  N_9 
REMARK    3  A    between atoms: N_9  and  C_10 
REMARK    4  A    between atoms: C_10  and  C_11 
REMARK    5  A    between atoms: C_11  and  N_12 
REMARK    6  A    between atoms: C_20  and  C_21 
REMARK    7  A    between atoms: C_24  and  C_25 
REMARK    8  A    between atoms: C_32  and  C_33 
REMARK    9  A    between atoms: C_33  and  O_34 
ROOT
HETATM    1  C   UNL     1      -9.221   4.241 -34.363  1.00  0.00     0.071 C 
HETATM    2  C   UNL     1      -8.044   3.571 -33.702  1.00  0.00     0.048 C 
HETATM    3  N   UNL     1      -6.814   4.021 -34.176  1.00  0.00    -0.229 NA
HETATM    4  C   UNL     1      -5.778   3.752 -33.455  1.00  0.00     0.170 C 
HETATM    5  N   UNL     1      -5.872   2.932 -32.147  1.00  0.00    -0.319 N 
HETATM    6  C   UNL     1      -5.053   3.403 -31.271  1.00  0.00     0.011 C 
HETATM    7  C   UNL     1      -6.912   1.884 -32.259  1.00  0.00     0.166 C 
HETATM    8  S   UNL     1      -4.224   4.477 -33.633  1.00  0.00    -0.086 SA
HETATM    9  C   UNL     1      -3.906   4.219 -31.853  1.00  0.00     0.135 C 
HETATM   10  C   UNL     1      -8.142   2.606 -32.753  1.00  0.00     0.069 C 
ENDROOT
BRANCH   6  11
HETATM   11  C   UNL     1      -5.294   3.236 -29.796  1.00  0.00     0.156 C 
BRANCH  11  12
HETATM   12  C   UNL     1      -5.964   4.495 -29.259  1.00  0.00     0.223 C 
HETATM   13  N   UNL     1      -5.158   5.408 -28.635  1.00  0.00    -0.359 N 
HETATM   14  H   UNL     1      -4.150   5.353 -28.756  1.00  0.00     0.162 HD
HETATM   15  O   UNL     1      -7.189   4.592 -29.241  1.00  0.00    -0.273 OA
BRANCH  13  16
HETATM   16  C   UNL     1      -5.626   6.384 -27.634  1.00  0.00     0.150 C 
BRANCH  16  17
HETATM   17  C   UNL     1      -6.173   7.747 -28.136  1.00  0.00     0.254 C 
BRANCH  17  18
HETATM   18  N   UNL     1      -6.912   7.647 -29.454  1.00  0.00    -0.070 N 
HETATM   19  H   UNL     1      -6.947   6.632 -29.679  1.00  0.00     0.279 HD
HETATM   20  C   UNL     1      -8.341   8.137 -29.422  1.00  0.00     0.235 C 
HETATM   21  C   UNL     1      -9.029   7.751 -30.725  1.00  0.00     0.028 C 
HETATM   22  C   UNL     1      -8.283   8.292 -31.940  1.00  0.00     0.003 C 
HETATM   23  C   UNL     1      -6.809   7.906 -31.910  1.00  0.00     0.028 C 
HETATM   24  C   UNL     1      -6.146   8.285 -30.592  1.00  0.00     0.235 C 
ENDBRANCH  17  18
ENDBRANCH  16  17
ENDBRANCH  13  16
ENDBRANCH  11  12
ENDBRANCH   6  11
BRANCH   7  25
HETATM   25  C   UNL     1      -6.366   0.822 -33.242  1.00  0.00    -0.030 C 
HETATM   26  C   UNL     1      -7.190   0.307 -34.265  1.00  0.00     0.010 C 
HETATM   27  C   UNL     1      -6.885  -0.911 -34.879  1.00  0.00     0.008 C 
HETATM   28  C   UNL     1      -5.729  -1.619 -34.529  1.00  0.00    -0.055 C 
HETATM   29  C   UNL     1      -4.816  -1.009 -33.664  1.00  0.00     0.008 C 
HETATM   30  C   UNL     1      -5.122   0.202 -33.041  1.00  0.00     0.010 C 
BRANCH  28  31
HETATM   31  C   UNL     1      -5.527  -3.045 -35.015  1.00  0.00     0.010 C 
HETATM   32  C   UNL     1      -4.369  -3.755 -34.317  1.00  0.00     0.015 C 
HETATM   33  C   UNL     1      -6.828  -3.845 -34.853  1.00  0.00     0.015 C 
ENDBRANCH  28  31
ENDBRANCH   7  25
BRANCH  10  34
HETATM   34  C   UNL     1      -9.381   2.163 -32.084  1.00  0.00     0.293 C 
HETATM   35  O   UNL     1     -10.123   1.336 -32.583  1.00  0.00    -0.259 OA
BRANCH  34  36
HETATM   36  O   UNL     1      -9.411   2.613 -30.810  1.00  0.00    -0.323 OA
HETATM   37  C   UNL     1     -10.297   3.720 -30.597  1.00  0.00     0.213 C 
ENDBRANCH  34  36
ENDBRANCH  10  34
TORSDOF 9
ENDMDL
MODEL 10
REMARK VINA RESULT:      -7.5      1.899      3.039
REMARK  9 active torsions:
REMARK  status: ('A' for Active; 'I' for Inactive)
REMARK    1  A    between atoms: C_6  and  C_7 
REMARK    2  A    between atoms: C_7  and  C_8 
REMARK       I    between atoms: C_8  and  N_9 
REMARK    3  A    between atoms: N_9  and  C_10 
REMARK    4  A    between atoms: C_10  and  C_11 
REMARK    5  A    between atoms: C_11  and  N_12 
REMARK    6  A    between atoms: C_20  and  C_21 
REMARK    7  A    between atoms: C_24  and  C_25 
REMARK    8  A    between atoms: C_32  and  C_33 
REMARK    9  A    between atoms: C_33  and  O_34 
ROOT
HETATM    1  C   UNL     1      -5.288   2.341 -30.129  1.00  0.00     0.071 C 
HETATM    2  C   UNL     1      -6.061   1.988 -31.373  1.00  0.00     0.048 C 
HETATM    3  N   UNL     1      -7.136   1.136 -31.133  1.00  0.00    -0.229 NA
HETATM    4  C   UNL     1      -8.029   1.048 -32.061  1.00  0.00     0.170 C 
HETATM    5  N   UNL     1      -7.906   1.811 -33.401  1.00  0.00    -0.319 N 
HETATM    6  C   UNL     1      -9.065   2.223 -33.783  1.00  0.00     0.011 C 
HETATM    7  C   UNL     1      -6.490   1.896 -33.827  1.00  0.00     0.166 C 
HETATM    8  S   UNL     1      -9.594   0.352 -31.875  1.00  0.00    -0.086 SA
HETATM    9  C   UNL     1     -10.237   1.463 -33.176  1.00  0.00     0.135 C 
HETATM   10  C   UNL     1      -5.751   2.425 -32.621  1.00  0.00     0.069 C 
ENDROOT
BRANCH   6  11
HETATM   11  C   UNL     1      -9.221   3.426 -34.672  1.00  0.00     0.156 C 
BRANCH  11  12
HETATM   12  C   UNL     1      -9.065   4.686 -33.830  1.00  0.00     0.223 C 
HETATM   13  N   UNL     1     -10.142   5.065 -33.074  1.00  0.00    -0.359 N 
HETATM   14  H   UNL     1     -10.892   4.400 -32.903  1.00  0.00     0.162 HD
HETATM   15  O   UNL     1      -8.081   5.410 -33.964  1.00  0.00    -0.273 OA
BRANCH  13  16
HETATM   16  C   UNL     1     -10.397   6.444 -32.622  1.00  0.00     0.150 C 
BRANCH  16  17
HETATM   17  C   UNL     1     -10.025   6.821 -31.163  1.00  0.00     0.254 C 
BRANCH  17  18
HETATM   18  N   UNL     1      -8.682   6.272 -30.728  1.00  0.00    -0.070 N 
HETATM   19  H   UNL     1      -8.561   5.381 -31.251  1.00  0.00     0.279 HD
HETATM   20  C   UNL     1      -7.496   7.143 -31.072  1.00  0.00     0.235 C 
HETATM   21  C   UNL     1      -6.213   6.367 -30.806  1.00  0.00     0.028 C 
HETATM   22  C   UNL     1      -6.140   5.872 -29.365  1.00  0.00     0.003 C 
HETATM   23  C   UNL     1      -7.395   5.099 -28.975  1.00  0.00     0.028 C 
HETATM   24  C   UNL     1      -8.665   5.887 -29.265  1.00  0.00     0.235 C 
ENDBRANCH  17  18
ENDBRANCH  16  17
ENDBRANCH  13  16
ENDBRANCH  11  12
ENDBRANCH   6  11
BRANCH   7  25
HETATM   25  C   UNL     1      -6.068   0.471 -34.251  1.00  0.00    -0.030 C 
HETATM   26  C   UNL     1      -6.892  -0.293 -35.102  1.00  0.00     0.010 C 
HETATM   27  C   UNL     1      -6.760  -1.684 -35.162  1.00  0.00     0.008 C 
HETATM   28  C   UNL     1      -5.774  -2.341 -34.417  1.00  0.00    -0.055 C 
HETATM   29  C   UNL     1      -4.834  -1.565 -33.733  1.00  0.00     0.008 C 
HETATM   30  C   UNL     1      -4.968  -0.177 -33.664  1.00  0.00     0.010 C 
BRANCH  28  31
HETATM   31  C   UNL     1      -5.789  -3.857 -34.294  1.00  0.00     0.010 C 
HETATM   32  C   UNL     1      -6.522  -4.542 -35.445  1.00  0.00     0.015 C 
HETATM   33  C   UNL     1      -4.352  -4.388 -34.174  1.00  0.00     0.015 C 
ENDBRANCH  28  31
ENDBRANCH   7  25
BRANCH  10  34
HETATM   34  C   UNL     1      -4.730   3.434 -32.963  1.00  0.00     0.293 C 
HETATM   35  O   UNL     1      -3.539   3.225 -32.810  1.00  0.00    -0.259 OA
BRANCH  34  36
HETATM   36  O   UNL     1      -5.290   4.449 -33.657  1.00  0.00    -0.323 OA
HETATM   37  C   UNL     1      -4.428   5.035 -34.641  1.00  0.00     0.213 C 
ENDBRANCH  34  36
ENDBRANCH  10  34
TORSDOF 9
ENDMDL
