MODEL 1
REMARK VINA RESULT:      -9.8      0.000      0.000
REMARK  6 active torsions:
REMARK  status: ('A' for Active; 'I' for Inactive)
REMARK    1  A    between atoms: C_2  and  C_3 
REMARK    2  A    between atoms: C_3  and  N_4 
REMARK       I    between atoms: N_4  and  C_5 
REMARK    3  A    between atoms: C_5  and  C_6 
REMARK    4  A    between atoms: C_8  and  C_9 
REMARK    5  A    between atoms: C_9  and  N_10 
REMARK       I    between atoms: N_10  and  C_11 
REMARK    6  A    between atoms: C_11  and  C_12 
ROOT
HETATM    1  C   UNL     1      -4.176   2.887 -32.455  1.00  0.00     0.161 C 
ENDROOT
BRANCH   1   2
HETATM    2  C   UNL     1      -3.016   3.840 -32.578  1.00  0.00    -0.040 A 
HETATM    3  C   UNL     1      -2.168   4.056 -31.481  1.00  0.00     0.026 A 
HETATM    4  C   UNL     1      -1.095   4.951 -31.572  1.00  0.00     0.032 A 
HETATM    5  C   UNL     1      -0.844   5.611 -32.778  1.00  0.00     0.017 A 
HETATM    6  C   UNL     1      -1.686   5.409 -33.872  1.00  0.00     0.002 A 
HETATM    7  C   UNL     1      -2.773   4.536 -33.770  1.00  0.00     0.009 A 
BRANCH   4   8
HETATM    8  C   UNL     1      -0.200   5.204 -30.411  1.00  0.00     0.252 C 
HETATM    9  N   UNL     1      -0.647   6.145 -29.506  1.00  0.00    -0.353 N 
HETATM   10  H   UNL     1      -1.435   6.725 -29.767  1.00  0.00     0.163 HD
HETATM   11  O   UNL     1       0.873   4.618 -30.320  1.00  0.00    -0.268 OA
BRANCH   9  12
HETATM   12  C   UNL     1       0.154   6.562 -28.364  1.00  0.00     0.080 C 
HETATM   13  C   UNL     1      -0.563   6.200 -27.066  1.00  0.00     0.032 C 
BRANCH  12  14
HETATM   14  C   UNL     1       0.527   8.054 -28.434  1.00  0.00     0.020 C 
HETATM   15  C   UNL     1       1.625   8.483 -27.469  1.00  0.00     0.007 C 
ENDBRANCH  12  14
ENDBRANCH   9  12
ENDBRANCH   4   8
ENDBRANCH   1   2
BRANCH   1  16
HETATM   16  N   UNL     1      -3.753   1.513 -32.437  1.00  0.00    -0.351 N 
HETATM   17  C   UNL     1      -4.601   0.453 -32.668  1.00  0.00     0.273 C 
HETATM   18  O   UNL     1      -5.780   0.582 -32.989  1.00  0.00    -0.266 OA
HETATM   19  H   UNL     1      -2.800   1.265 -32.187  1.00  0.00     0.163 HD
BRANCH  17  20
HETATM   20  C   UNL     1      -3.953  -0.856 -32.478  1.00  0.00     0.157 A 
HETATM   21  N   UNL     1      -2.945  -1.018 -31.592  1.00  0.00    -0.168 NA
HETATM   22  N   UNL     1      -2.653  -2.328 -31.678  1.00  0.00    -0.277 N 
HETATM   23  H   UNL     1      -1.919  -2.698 -31.084  1.00  0.00     0.189 HD
HETATM   24  C   UNL     1      -3.404  -3.019 -32.588  1.00  0.00     0.063 A 
HETATM   25  C   UNL     1      -4.267  -2.080 -33.139  1.00  0.00     0.029 A 
HETATM   26  C   UNL     1      -3.399  -4.365 -32.963  1.00  0.00     0.032 A 
HETATM   27  C   UNL     1      -5.177  -2.496 -34.131  1.00  0.00     0.023 A 
HETATM   28  C   UNL     1      -5.191  -3.841 -34.540  1.00  0.00    -0.061 A 
HETATM   29  C   UNL     1      -4.309  -4.756 -33.953  1.00  0.00     0.009 A 
HETATM   30  C   UNL     1      -6.149  -4.275 -35.611  1.00  0.00     0.048 C 
ENDBRANCH  17  20
ENDBRANCH   1  16
TORSDOF 6
ENDMDL
MODEL 2
REMARK VINA RESULT:      -9.2      2.323      3.019
REMARK  6 active torsions:
REMARK  status: ('A' for Active; 'I' for Inactive)
REMARK    1  A    between atoms: C_2  and  C_3 
REMARK    2  A    between atoms: C_3  and  N_4 
REMARK       I    between atoms: N_4  and  C_5 
REMARK    3  A    between atoms: C_5  and  C_6 
REMARK    4  A    between atoms: C_8  and  C_9 
REMARK    5  A    between atoms: C_9  and  N_10 
REMARK       I    between atoms: N_10  and  C_11 
REMARK    6  A    between atoms: C_11  and  C_12 
ROOT
HETATM    1  C   UNL     1      -5.509   5.032 -33.848  1.00  0.00     0.161 C 
ENDROOT
BRANCH   1   2
HETATM    2  C   UNL     1      -4.008   5.148 -33.781  1.00  0.00    -0.040 A 
HETATM    3  C   UNL     1      -3.364   5.184 -32.535  1.00  0.00     0.026 A 
HETATM    4  C   UNL     1      -1.972   5.308 -32.453  1.00  0.00     0.032 A 
HETATM    5  C   UNL     1      -1.211   5.363 -33.624  1.00  0.00     0.017 A 
HETATM    6  C   UNL     1      -1.843   5.337 -34.868  1.00  0.00     0.002 A 
HETATM    7  C   UNL     1      -3.235   5.241 -34.947  1.00  0.00     0.009 A 
BRANCH   4   8
HETATM    8  C   UNL     1      -1.278   5.366 -31.138  1.00  0.00     0.252 C 
HETATM    9  N   UNL     1      -1.545   6.481 -30.370  1.00  0.00    -0.353 N 
HETATM   10  H   UNL     1      -2.029   7.257 -30.804  1.00  0.00     0.163 HD
HETATM   11  O   UNL     1      -0.501   4.476 -30.811  1.00  0.00    -0.268 OA
BRANCH   9  12
HETATM   12  C   UNL     1      -0.879   6.722 -29.098  1.00  0.00     0.080 C 
HETATM   13  C   UNL     1      -1.842   7.403 -28.128  1.00  0.00     0.032 C 
BRANCH  12  14
HETATM   14  C   UNL     1       0.434   7.507 -29.272  1.00  0.00     0.020 C 
HETATM   15  C   UNL     1       1.106   7.922 -27.970  1.00  0.00     0.007 C 
ENDBRANCH  12  14
ENDBRANCH   9  12
ENDBRANCH   4   8
ENDBRANCH   1   2
BRANCH   1  16
HETATM   16  N   UNL     1      -5.937   3.718 -34.245  1.00  0.00    -0.351 N 
HETATM   17  C   UNL     1      -6.293   2.732 -33.352  1.00  0.00     0.273 C 
HETATM   18  O   UNL     1      -6.355   2.905 -32.137  1.00  0.00    -0.266 OA
HETATM   19  H   UNL     1      -5.934   3.444 -35.222  1.00  0.00     0.163 HD
BRANCH  17  20
HETATM   20  C   UNL     1      -6.580   1.442 -34.001  1.00  0.00     0.157 A 
HETATM   21  N   UNL     1      -7.576   1.320 -34.908  1.00  0.00    -0.168 NA
HETATM   22  N   UNL     1      -7.500   0.033 -35.292  1.00  0.00    -0.277 N 
HETATM   23  H   UNL     1      -8.152  -0.300 -35.993  1.00  0.00     0.189 HD
HETATM   24  C   UNL     1      -6.521  -0.689 -34.668  1.00  0.00     0.063 A 
HETATM   25  C   UNL     1      -5.899   0.205 -33.806  1.00  0.00     0.029 A 
HETATM   26  C   UNL     1      -6.136  -2.027 -34.789  1.00  0.00     0.032 A 
HETATM   27  C   UNL     1      -4.835  -0.254 -33.005  1.00  0.00     0.023 A 
HETATM   28  C   UNL     1      -4.429  -1.597 -33.093  1.00  0.00    -0.061 A 
HETATM   29  C   UNL     1      -5.078  -2.463 -33.981  1.00  0.00     0.009 A 
HETATM   30  C   UNL     1      -3.308  -2.086 -32.223  1.00  0.00     0.048 C 
ENDBRANCH  17  20
ENDBRANCH   1  16
TORSDOF 6
ENDMDL
MODEL 3
REMARK VINA RESULT:      -9.2      1.193      1.494
REMARK  6 active torsions:
REMARK  status: ('A' for Active; 'I' for Inactive)
REMARK    1  A    between atoms: C_2  and  C_3 
REMARK    2  A    between atoms: C_3  and  N_4 
REMARK       I    between atoms: N_4  and  C_5 
REMARK    3  A    between atoms: C_5  and  C_6 
REMARK    4  A    between atoms: C_8  and  C_9 
REMARK    5  A    between atoms: C_9  and  N_10 
REMARK       I    between atoms: N_10  and  C_11 
REMARK    6  A    between atoms: C_11  and  C_12 
ROOT
HETATM    1  C   UNL     1      -3.840   4.245 -32.830  1.00  0.00     0.161 C 
ENDROOT
BRANCH   1   2
HETATM    2  C   UNL     1      -2.630   5.106 -32.578  1.00  0.00    -0.040 A 
HETATM    3  C   UNL     1      -1.881   4.934 -31.404  1.00  0.00     0.026 A 
HETATM    4  C   UNL     1      -0.764   5.735 -31.144  1.00  0.00     0.032 A 
HETATM    5  C   UNL     1      -0.368   6.697 -32.078  1.00  0.00     0.017 A 
HETATM    6  C   UNL     1      -1.111   6.882 -33.245  1.00  0.00     0.002 A 
HETATM    7  C   UNL     1      -2.243   6.098 -33.489  1.00  0.00     0.009 A 
BRANCH   4   8
HETATM    8  C   UNL     1       0.028   5.576 -29.894  1.00  0.00     0.252 C 
HETATM    9  N   UNL     1      -0.113   6.586 -28.965  1.00  0.00    -0.353 N 
HETATM   10  H   UNL     1      -0.579   7.439 -29.249  1.00  0.00     0.163 HD
HETATM   11  O   UNL     1       0.771   4.612 -29.754  1.00  0.00    -0.268 OA
BRANCH   9  12
HETATM   12  C   UNL     1       0.660   6.615 -27.730  1.00  0.00     0.080 C 
HETATM   13  C   UNL     1      -0.228   6.219 -26.553  1.00  0.00     0.032 C 
BRANCH  12  14
HETATM   14  C   UNL     1       1.354   7.972 -27.514  1.00  0.00     0.020 C 
HETATM   15  C   UNL     1       1.963   8.163 -26.131  1.00  0.00     0.007 C 
ENDBRANCH  12  14
ENDBRANCH   9  12
ENDBRANCH   4   8
ENDBRANCH   1   2
BRANCH   1  16
HETATM   16  N   UNL     1      -3.546   2.843 -32.708  1.00  0.00    -0.351 N 
HETATM   17  C   UNL     1      -4.203   2.000 -31.839  1.00  0.00     0.273 C 
HETATM   18  O   UNL     1      -5.154   2.349 -31.143  1.00  0.00    -0.266 OA
HETATM   19  H   UNL     1      -2.782   2.425 -33.230  1.00  0.00     0.163 HD
BRANCH  17  20
HETATM   20  C   UNL     1      -3.640   0.640 -31.818  1.00  0.00     0.157 A 
HETATM   21  N   UNL     1      -2.566   0.337 -31.055  1.00  0.00    -0.168 NA
HETATM   22  N   UNL     1      -2.382  -0.978 -31.272  1.00  0.00    -0.277 N 
HETATM   23  H   UNL     1      -1.624  -1.444 -30.787  1.00  0.00     0.189 HD
HETATM   24  C   UNL     1      -3.268  -1.538 -32.150  1.00  0.00     0.063 A 
HETATM   25  C   UNL     1      -4.108  -0.501 -32.535  1.00  0.00     0.029 A 
HETATM   26  C   UNL     1      -3.400  -2.845 -32.626  1.00  0.00     0.032 A 
HETATM   27  C   UNL     1      -5.138  -0.769 -33.457  1.00  0.00     0.023 A 
HETATM   28  C   UNL     1      -5.293  -2.072 -33.965  1.00  0.00    -0.061 A 
HETATM   29  C   UNL     1      -4.429  -3.089 -33.544  1.00  0.00     0.009 A 
HETATM   30  C   UNL     1      -6.381  -2.349 -34.962  1.00  0.00     0.048 C 
ENDBRANCH  17  20
ENDBRANCH   1  16
TORSDOF 6
ENDMDL
MODEL 4
REMARK VINA RESULT:      -8.8      1.719      2.445
REMARK  6 active torsions:
REMARK  status: ('A' for Active; 'I' for Inactive)
REMARK    1  A    between atoms: C_2  and  C_3 
REMARK    2  A    between atoms: C_3  and  N_4 
REMARK       I    between atoms: N_4  and  C_5 
REMARK    3  A    between atoms: C_5  and  C_6 
REMARK    4  A    between atoms: C_8  and  C_9 
REMARK    5  A    between atoms: C_9  and  N_10 
REMARK       I    between atoms: N_10  and  C_11 
REMARK    6  A    between atoms: C_11  and  C_12 
ROOT
HETATM    1  C   UNL     1      -6.411   2.028 -31.332  1.00  0.00     0.161 C 
ENDROOT
BRANCH   1   2
HETATM    2  C   UNL     1      -5.673   3.302 -31.016  1.00  0.00    -0.040 A 
HETATM    3  C   UNL     1      -4.340   3.458 -31.424  1.00  0.00     0.026 A 
HETATM    4  C   UNL     1      -3.632   4.628 -31.124  1.00  0.00     0.032 A 
HETATM    5  C   UNL     1      -4.269   5.667 -30.441  1.00  0.00     0.017 A 
HETATM    6  C   UNL     1      -5.592   5.518 -30.022  1.00  0.00     0.002 A 
HETATM    7  C   UNL     1      -6.288   4.338 -30.299  1.00  0.00     0.009 A 
BRANCH   4   8
HETATM    8  C   UNL     1      -2.212   4.798 -31.535  1.00  0.00     0.252 C 
HETATM    9  N   UNL     1      -1.316   5.018 -30.508  1.00  0.00    -0.353 N 
HETATM   10  H   UNL     1      -1.682   5.231 -29.589  1.00  0.00     0.163 HD
HETATM   11  O   UNL     1      -1.906   4.773 -32.721  1.00  0.00    -0.268 OA
BRANCH   9  12
HETATM   12  C   UNL     1       0.094   5.286 -30.756  1.00  0.00     0.080 C 
HETATM   13  C   UNL     1       0.946   4.626 -29.675  1.00  0.00     0.032 C 
BRANCH  12  14
HETATM   14  C   UNL     1       0.380   6.792 -30.893  1.00  0.00     0.020 C 
HETATM   15  C   UNL     1       0.588   7.524 -29.573  1.00  0.00     0.007 C 
ENDBRANCH  12  14
ENDBRANCH   9  12
ENDBRANCH   4   8
ENDBRANCH   1   2
BRANCH   1  16
HETATM   16  N   UNL     1      -5.526   0.902 -31.462  1.00  0.00    -0.351 N 
HETATM   17  C   UNL     1      -5.211   0.317 -32.668  1.00  0.00     0.273 C 
HETATM   18  O   UNL     1      -5.594   0.748 -33.754  1.00  0.00    -0.266 OA
HETATM   19  H   UNL     1      -5.137   0.449 -30.641  1.00  0.00     0.163 HD
BRANCH  17  20
HETATM   20  C   UNL     1      -4.379  -0.889 -32.524  1.00  0.00     0.157 A 
HETATM   21  N   UNL     1      -3.315  -0.912 -31.690  1.00  0.00    -0.168 NA
HETATM   22  N   UNL     1      -2.847  -2.168 -31.805  1.00  0.00    -0.277 N 
HETATM   23  H   UNL     1      -2.041  -2.433 -31.251  1.00  0.00     0.189 HD
HETATM   24  C   UNL     1      -3.540  -2.953 -32.683  1.00  0.00     0.063 A 
HETATM   25  C   UNL     1      -4.552  -2.143 -33.181  1.00  0.00     0.029 A 
HETATM   26  C   UNL     1      -3.366  -4.285 -33.072  1.00  0.00     0.032 A 
HETATM   27  C   UNL     1      -5.444  -2.677 -34.131  1.00  0.00     0.023 A 
HETATM   28  C   UNL     1      -5.291  -4.010 -34.553  1.00  0.00    -0.061 A 
HETATM   29  C   UNL     1      -4.262  -4.795 -34.019  1.00  0.00     0.009 A 
HETATM   30  C   UNL     1      -6.232  -4.570 -35.580  1.00  0.00     0.048 C 
ENDBRANCH  17  20
ENDBRANCH   1  16
TORSDOF 6
ENDMDL
MODEL 5
REMARK VINA RESULT:      -8.6      2.368      3.049
REMARK  6 active torsions:
REMARK  status: ('A' for Active; 'I' for Inactive)
REMARK    1  A    between atoms: C_2  and  C_3 
REMARK    2  A    between atoms: C_3  and  N_4 
REMARK       I    between atoms: N_4  and  C_5 
REMARK    3  A    between atoms: C_5  and  C_6 
REMARK    4  A    between atoms: C_8  and  C_9 
REMARK    5  A    between atoms: C_9  and  N_10 
REMARK       I    between atoms: N_10  and  C_11 
REMARK    6  A    between atoms: C_11  and  C_12 
ROOT
HETATM    1  C   UNL     1      -2.973   3.052 -31.587  1.00  0.00     0.161 C 
ENDROOT
BRANCH   1   2
HETATM    2  C   UNL     1      -2.548   4.265 -32.373  1.00  0.00    -0.040 A 
HETATM    3  C   UNL     1      -2.405   5.503 -31.728  1.00  0.00     0.026 A 
HETATM    4  C   UNL     1      -2.028   6.644 -32.446  1.00  0.00     0.032 A 
HETATM    5  C   UNL     1      -1.757   6.545 -33.813  1.00  0.00     0.017 A 
HETATM    6  C   UNL     1      -1.905   5.320 -34.466  1.00  0.00     0.002 A 
HETATM    7  C   UNL     1      -2.309   4.188 -33.752  1.00  0.00     0.009 A 
BRANCH   4   8
HETATM    8  C   UNL     1      -1.891   7.967 -31.778  1.00  0.00     0.252 C 
HETATM    9  N   UNL     1      -1.945   7.948 -30.399  1.00  0.00    -0.353 N 
HETATM   10  H   UNL     1      -2.252   7.098 -29.942  1.00  0.00     0.163 HD
HETATM   11  O   UNL     1      -1.774   8.986 -32.447  1.00  0.00    -0.268 OA
BRANCH   9  12
HETATM   12  C   UNL     1      -1.910   9.169 -29.606  1.00  0.00     0.080 C 
HETATM   13  C   UNL     1      -1.071   8.949 -28.350  1.00  0.00     0.032 C 
BRANCH  12  14
HETATM   14  C   UNL     1      -3.322   9.692 -29.287  1.00  0.00     0.020 C 
HETATM   15  C   UNL     1      -3.810  10.807 -30.204  1.00  0.00     0.007 C 
ENDBRANCH  12  14
ENDBRANCH   9  12
ENDBRANCH   4   8
ENDBRANCH   1   2
BRANCH   1  16
HETATM   16  N   UNL     1      -3.886   2.219 -32.320  1.00  0.00    -0.351 N 
HETATM   17  C   UNL     1      -4.190   0.924 -31.963  1.00  0.00     0.273 C 
HETATM   18  O   UNL     1      -3.770   0.385 -30.942  1.00  0.00    -0.266 OA
HETATM   19  H   UNL     1      -4.306   2.545 -33.186  1.00  0.00     0.163 HD
BRANCH  17  20
HETATM   20  C   UNL     1      -5.058   0.245 -32.939  1.00  0.00     0.157 A 
HETATM   21  N   UNL     1      -6.095   0.889 -33.522  1.00  0.00    -0.168 NA
HETATM   22  N   UNL     1      -6.610  -0.031 -34.359  1.00  0.00    -0.277 N 
HETATM   23  H   UNL     1      -7.407   0.230 -34.928  1.00  0.00     0.189 HD
HETATM   24  C   UNL     1      -5.974  -1.240 -34.334  1.00  0.00     0.063 A 
HETATM   25  C   UNL     1      -4.950  -1.098 -33.406  1.00  0.00     0.029 A 
HETATM   26  C   UNL     1      -6.206  -2.425 -35.039  1.00  0.00     0.032 A 
HETATM   27  C   UNL     1      -4.109  -2.198 -33.149  1.00  0.00     0.023 A 
HETATM   28  C   UNL     1      -4.321  -3.408 -33.833  1.00  0.00    -0.061 A 
HETATM   29  C   UNL     1      -5.360  -3.506 -34.767  1.00  0.00     0.009 A 
HETATM   30  C   UNL     1      -3.434  -4.584 -33.543  1.00  0.00     0.048 C 
ENDBRANCH  17  20
ENDBRANCH   1  16
TORSDOF 6
ENDMDL
MODEL 6
REMARK VINA RESULT:      -8.5      2.547      9.489
REMARK  6 active torsions:
REMARK  status: ('A' for Active; 'I' for Inactive)
REMARK    1  A    between atoms: C_2  and  C_3 
REMARK    2  A    between atoms: C_3  and  N_4 
REMARK       I    between atoms: N_4  and  C_5 
REMARK    3  A    between atoms: C_5  and  C_6 
REMARK    4  A    between atoms: C_8  and  C_9 
REMARK    5  A    between atoms: C_9  and  N_10 
REMARK       I    between atoms: N_10  and  C_11 
REMARK    6  A    between atoms: C_11  and  C_12 
ROOT
HETATM    1  C   UNL     1      -5.578   2.310 -30.450  1.00  0.00     0.161 C 
ENDROOT
BRANCH   1   2
HETATM    2  C   UNL     1      -6.673   1.666 -31.259  1.00  0.00    -0.040 A 
HETATM    3  C   UNL     1      -6.348   0.798 -32.312  1.00  0.00     0.026 A 
HETATM    4  C   UNL     1      -7.352   0.203 -33.085  1.00  0.00     0.032 A 
HETATM    5  C   UNL     1      -8.694   0.449 -32.785  1.00  0.00     0.017 A 
HETATM    6  C   UNL     1      -9.029   1.318 -31.745  1.00  0.00     0.002 A 
HETATM    7  C   UNL     1      -8.023   1.932 -30.992  1.00  0.00     0.009 A 
BRANCH   4   8
HETATM    8  C   UNL     1      -7.020  -0.705 -34.217  1.00  0.00     0.252 C 
HETATM    9  N   UNL     1      -6.410  -1.893 -33.869  1.00  0.00    -0.353 N 
HETATM   10  H   UNL     1      -6.063  -1.996 -32.924  1.00  0.00     0.163 HD
HETATM   11  O   UNL     1      -7.260  -0.365 -35.369  1.00  0.00    -0.268 OA
BRANCH   9  12
HETATM   12  C   UNL     1      -5.949  -2.847 -34.869  1.00  0.00     0.080 C 
HETATM   13  C   UNL     1      -6.754  -4.140 -34.762  1.00  0.00     0.032 C 
BRANCH  12  14
HETATM   14  C   UNL     1      -4.432  -3.089 -34.782  1.00  0.00     0.020 C 
HETATM   15  C   UNL     1      -3.916  -3.402 -33.383  1.00  0.00     0.007 C 
ENDBRANCH  12  14
ENDBRANCH   9  12
ENDBRANCH   4   8
ENDBRANCH   1   2
BRANCH   1  16
HETATM   16  N   UNL     1      -4.741   3.164 -31.249  1.00  0.00    -0.351 N 
HETATM   17  C   UNL     1      -3.413   2.905 -31.504  1.00  0.00     0.273 C 
HETATM   18  O   UNL     1      -2.837   1.882 -31.139  1.00  0.00    -0.266 OA
HETATM   19  H   UNL     1      -5.094   4.043 -31.614  1.00  0.00     0.163 HD
BRANCH  17  20
HETATM   20  C   UNL     1      -2.746   3.987 -32.247  1.00  0.00     0.157 A 
HETATM   21  N   UNL     1      -3.043   4.234 -33.543  1.00  0.00    -0.168 NA
HETATM   22  N   UNL     1      -2.275   5.296 -33.849  1.00  0.00    -0.277 N 
HETATM   23  H   UNL     1      -2.335   5.679 -34.785  1.00  0.00     0.189 HD
HETATM   24  C   UNL     1      -1.483   5.737 -32.826  1.00  0.00     0.063 A 
HETATM   25  C   UNL     1      -1.762   4.895 -31.756  1.00  0.00     0.029 A 
HETATM   26  C   UNL     1      -0.564   6.787 -32.751  1.00  0.00     0.032 A 
HETATM   27  C   UNL     1      -1.083   5.097 -30.539  1.00  0.00     0.023 A 
HETATM   28  C   UNL     1      -0.144   6.139 -30.432  1.00  0.00    -0.061 A 
HETATM   29  C   UNL     1       0.101   6.968 -31.532  1.00  0.00     0.009 A 
HETATM   30  C   UNL     1       0.591   6.338 -29.139  1.00  0.00     0.048 C 
ENDBRANCH  17  20
ENDBRANCH   1  16
TORSDOF 6
ENDMDL
MODEL 7
REMARK VINA RESULT:      -8.4      2.662      3.505
REMARK  6 active torsions:
REMARK  status: ('A' for Active; 'I' for Inactive)
REMARK    1  A    between atoms: C_2  and  C_3 
REMARK    2  A    between atoms: C_3  and  N_4 
REMARK       I    between atoms: N_4  and  C_5 
REMARK    3  A    between atoms: C_5  and  C_6 
REMARK    4  A    between atoms: C_8  and  C_9 
REMARK    5  A    between atoms: C_9  and  N_10 
REMARK       I    between atoms: N_10  and  C_11 
REMARK    6  A    between atoms: C_11  and  C_12 
ROOT
HETATM    1  C   UNL     1      -2.365   4.084 -33.574  1.00  0.00     0.161 C 
ENDROOT
BRANCH   1   2
HETATM    2  C   UNL     1      -1.803   5.277 -32.846  1.00  0.00    -0.040 A 
HETATM    3  C   UNL     1      -1.089   5.095 -31.652  1.00  0.00     0.026 A 
HETATM    4  C   UNL     1      -0.573   6.193 -30.953  1.00  0.00     0.032 A 
HETATM    5  C   UNL     1      -0.741   7.482 -31.465  1.00  0.00     0.017 A 
HETATM    6  C   UNL     1      -1.458   7.674 -32.648  1.00  0.00     0.002 A 
HETATM    7  C   UNL     1      -1.995   6.578 -33.329  1.00  0.00     0.009 A 
BRANCH   4   8
HETATM    8  C   UNL     1       0.170   6.016 -29.676  1.00  0.00     0.252 C 
HETATM    9  N   UNL     1       0.139   7.092 -28.813  1.00  0.00    -0.353 N 
HETATM   10  H   UNL     1      -0.213   7.976 -29.160  1.00  0.00     0.163 HD
HETATM   11  O   UNL     1       0.785   4.978 -29.459  1.00  0.00    -0.268 OA
BRANCH   9  12
HETATM   12  C   UNL     1       0.885   7.104 -27.563  1.00  0.00     0.080 C 
HETATM   13  C   UNL     1      -0.021   6.671 -26.412  1.00  0.00     0.032 C 
BRANCH  12  14
HETATM   14  C   UNL     1       1.558   8.464 -27.303  1.00  0.00     0.020 C 
HETATM   15  C   UNL     1       2.224   8.595 -25.939  1.00  0.00     0.007 C 
ENDBRANCH  12  14
ENDBRANCH   9  12
ENDBRANCH   4   8
ENDBRANCH   1   2
BRANCH   1  16
HETATM   16  N   UNL     1      -3.672   3.721 -33.097  1.00  0.00    -0.351 N 
HETATM   17  C   UNL     1      -3.898   2.704 -32.196  1.00  0.00     0.273 C 
HETATM   18  O   UNL     1      -3.000   2.063 -31.655  1.00  0.00    -0.266 OA
HETATM   19  H   UNL     1      -4.503   4.174 -33.464  1.00  0.00     0.163 HD
BRANCH  17  20
HETATM   20  C   UNL     1      -5.329   2.453 -31.957  1.00  0.00     0.157 A 
HETATM   21  N   UNL     1      -6.047   3.231 -31.116  1.00  0.00    -0.168 NA
HETATM   22  N   UNL     1      -7.289   2.721 -31.192  1.00  0.00    -0.277 N 
HETATM   23  H   UNL     1      -8.023   3.157 -30.646  1.00  0.00     0.189 HD
HETATM   24  C   UNL     1      -7.409   1.642 -32.023  1.00  0.00     0.063 A 
HETATM   25  C   UNL     1      -6.137   1.433 -32.540  1.00  0.00     0.029 A 
HETATM   26  C   UNL     1      -8.510   0.848 -32.360  1.00  0.00     0.032 A 
HETATM   27  C   UNL     1      -5.936   0.367 -33.438  1.00  0.00     0.023 A 
HETATM   28  C   UNL     1      -7.020  -0.458 -33.790  1.00  0.00    -0.061 A 
HETATM   29  C   UNL     1      -8.287  -0.207 -33.252  1.00  0.00     0.009 A 
HETATM   30  C   UNL     1      -6.797  -1.605 -34.733  1.00  0.00     0.048 C 
ENDBRANCH  17  20
ENDBRANCH   1  16
TORSDOF 6
ENDMDL
MODEL 8
REMARK VINA RESULT:      -8.4      3.325      9.243
REMARK  6 active torsions:
REMARK  status: ('A' for Active; 'I' for Inactive)
REMARK    1  A    between atoms: C_2  and  C_3 
REMARK    2  A    between atoms: C_3  and  N_4 
REMARK       I    between atoms: N_4  and  C_5 
REMARK    3  A    between atoms: C_5  and  C_6 
REMARK    4  A    between atoms: C_8  and  C_9 
REMARK    5  A    between atoms: C_9  and  N_10 
REMARK       I    between atoms: N_10  and  C_11 
REMARK    6  A    between atoms: C_11  and  C_12 
ROOT
HETATM    1  C   UNL     1      -4.043   0.453 -32.009  1.00  0.00     0.161 C 
ENDROOT
BRANCH   1   2
HETATM    2  C   UNL     1      -5.202  -0.212 -32.707  1.00  0.00    -0.040 A 
HETATM    3  C   UNL     1      -6.493   0.323 -32.583  1.00  0.00     0.026 A 
HETATM    4  C   UNL     1      -7.584  -0.290 -33.209  1.00  0.00     0.032 A 
HETATM    5  C   UNL     1      -7.383  -1.428 -33.995  1.00  0.00     0.017 A 
HETATM    6  C   UNL     1      -6.104  -1.973 -34.117  1.00  0.00     0.002 A 
HETATM    7  C   UNL     1      -5.020  -1.374 -33.468  1.00  0.00     0.009 A 
BRANCH   4   8
HETATM    8  C   UNL     1      -8.962   0.256 -33.071  1.00  0.00     0.252 C 
HETATM    9  N   UNL     1      -9.092   1.611 -33.296  1.00  0.00    -0.353 N 
HETATM   10  H   UNL     1      -8.251   2.172 -33.354  1.00  0.00     0.163 HD
HETATM   11  O   UNL     1      -9.886  -0.479 -32.743  1.00  0.00    -0.268 OA
BRANCH   9  12
HETATM   12  C   UNL     1     -10.359   2.307 -33.118  1.00  0.00     0.080 C 
HETATM   13  C   UNL     1     -10.761   2.996 -34.419  1.00  0.00     0.032 C 
BRANCH  12  14
HETATM   14  C   UNL     1     -10.323   3.278 -31.924  1.00  0.00     0.020 C 
HETATM   15  C   UNL     1      -9.360   2.884 -30.811  1.00  0.00     0.007 C 
ENDBRANCH  12  14
ENDBRANCH   9  12
ENDBRANCH   4   8
ENDBRANCH   1   2
BRANCH   1  16
HETATM   16  N   UNL     1      -3.729   1.736 -32.577  1.00  0.00    -0.351 N 
HETATM   17  C   UNL     1      -3.926   2.929 -31.918  1.00  0.00     0.273 C 
HETATM   18  O   UNL     1      -4.315   3.007 -30.755  1.00  0.00    -0.266 OA
HETATM   19  H   UNL     1      -3.397   1.814 -33.534  1.00  0.00     0.163 HD
BRANCH  17  20
HETATM   20  C   UNL     1      -3.636   4.105 -32.755  1.00  0.00     0.157 A 
HETATM   21  N   UNL     1      -4.426   4.432 -33.803  1.00  0.00    -0.168 NA
HETATM   22  N   UNL     1      -3.869   5.560 -34.281  1.00  0.00    -0.277 N 
HETATM   23  H   UNL     1      -4.304   6.010 -35.078  1.00  0.00     0.189 HD
HETATM   24  C   UNL     1      -2.751   5.970 -33.610  1.00  0.00     0.063 A 
HETATM   25  C   UNL     1      -2.563   5.032 -32.602  1.00  0.00     0.029 A 
HETATM   26  C   UNL     1      -1.905   7.067 -33.799  1.00  0.00     0.032 A 
HETATM   27  C   UNL     1      -1.466   5.181 -31.732  1.00  0.00     0.023 A 
HETATM   28  C   UNL     1      -0.589   6.268 -31.901  1.00  0.00    -0.061 A 
HETATM   29  C   UNL     1      -0.820   7.194 -32.925  1.00  0.00     0.009 A 
HETATM   30  C   UNL     1       0.590   6.413 -30.984  1.00  0.00     0.048 C 
ENDBRANCH  17  20
ENDBRANCH   1  16
TORSDOF 6
ENDMDL
MODEL 9
REMARK VINA RESULT:      -8.4      3.162      9.529
REMARK  6 active torsions:
REMARK  status: ('A' for Active; 'I' for Inactive)
REMARK    1  A    between atoms: C_2  and  C_3 
REMARK    2  A    between atoms: C_3  and  N_4 
REMARK       I    between atoms: N_4  and  C_5 
REMARK    3  A    between atoms: C_5  and  C_6 
REMARK    4  A    between atoms: C_8  and  C_9 
REMARK    5  A    between atoms: C_9  and  N_10 
REMARK       I    between atoms: N_10  and  C_11 
REMARK    6  A    between atoms: C_11  and  C_12 
ROOT
HETATM    1  C   UNL     1      -6.221   1.525 -30.056  1.00  0.00     0.161 C 
ENDROOT
BRANCH   1   2
HETATM    2  C   UNL     1      -7.118   0.986 -31.139  1.00  0.00    -0.040 A 
HETATM    3  C   UNL     1      -6.573   0.222 -32.183  1.00  0.00     0.026 A 
HETATM    4  C   UNL     1      -7.389  -0.273 -33.207  1.00  0.00     0.032 A 
HETATM    5  C   UNL     1      -8.765  -0.034 -33.174  1.00  0.00     0.017 A 
HETATM    6  C   UNL     1      -9.315   0.732 -32.145  1.00  0.00     0.002 A 
HETATM    7  C   UNL     1      -8.495   1.248 -31.138  1.00  0.00     0.009 A 
BRANCH   4   8
HETATM    8  C   UNL     1      -6.822  -1.068 -34.330  1.00  0.00     0.252 C 
HETATM    9  N   UNL     1      -6.315  -2.306 -33.989  1.00  0.00    -0.353 N 
HETATM   10  H   UNL     1      -6.189  -2.519 -33.007  1.00  0.00     0.163 HD
HETATM   11  O   UNL     1      -6.795  -0.603 -35.463  1.00  0.00    -0.268 OA
BRANCH   9  12
HETATM   12  C   UNL     1      -5.652  -3.165 -34.960  1.00  0.00     0.080 C 
HETATM   13  C   UNL     1      -6.524  -4.382 -35.258  1.00  0.00     0.032 C 
BRANCH  12  14
HETATM   14  C   UNL     1      -4.231  -3.554 -34.514  1.00  0.00     0.020 C 
HETATM   15  C   UNL     1      -4.131  -4.900 -33.808  1.00  0.00     0.007 C 
ENDBRANCH  12  14
ENDBRANCH   9  12
ENDBRANCH   4   8
ENDBRANCH   1   2
BRANCH   1  16
HETATM   16  N   UNL     1      -5.746   2.850 -30.350  1.00  0.00    -0.351 N 
HETATM   17  C   UNL     1      -4.512   3.111 -30.901  1.00  0.00     0.273 C 
HETATM   18  O   UNL     1      -3.730   2.235 -31.265  1.00  0.00    -0.266 OA
HETATM   19  H   UNL     1      -6.296   3.666 -30.100  1.00  0.00     0.163 HD
BRANCH  17  20
HETATM   20  C   UNL     1      -4.215   4.550 -30.996  1.00  0.00     0.157 A 
HETATM   21  N   UNL     1      -4.736   5.434 -30.114  1.00  0.00    -0.168 NA
HETATM   22  N   UNL     1      -4.215   6.613 -30.500  1.00  0.00    -0.277 N 
HETATM   23  H   UNL     1      -4.457   7.441 -29.969  1.00  0.00     0.189 HD
HETATM   24  C   UNL     1      -3.401   6.543 -31.595  1.00  0.00     0.063 A 
HETATM   25  C   UNL     1      -3.382   5.200 -31.953  1.00  0.00     0.029 A 
HETATM   26  C   UNL     1      -2.690   7.527 -32.287  1.00  0.00     0.032 A 
HETATM   27  C   UNL     1      -2.621   4.807 -33.072  1.00  0.00     0.023 A 
HETATM   28  C   UNL     1      -1.902   5.774 -33.796  1.00  0.00    -0.061 A 
HETATM   29  C   UNL     1      -1.943   7.115 -33.396  1.00  0.00     0.009 A 
HETATM   30  C   UNL     1      -1.108   5.353 -34.999  1.00  0.00     0.048 C 
ENDBRANCH  17  20
ENDBRANCH   1  16
TORSDOF 6
ENDMDL
MODEL 10
REMARK VINA RESULT:      -8.4      4.053      7.120
REMARK  6 active torsions:
REMARK  status: ('A' for Active; 'I' for Inactive)
REMARK    1  A    between atoms: C_2  and  C_3 
REMARK    2  A    between atoms: C_3  and  N_4 
REMARK       I    between atoms: N_4  and  C_5 
REMARK    3  A    between atoms: C_5  and  C_6 
REMARK    4  A    between atoms: C_8  and  C_9 
REMARK    5  A    between atoms: C_9  and  N_10 
REMARK       I    between atoms: N_10  and  C_11 
REMARK    6  A    between atoms: C_11  and  C_12 
ROOT
HETATM    1  C   UNL     1      -5.286   3.433 -30.143  1.00  0.00     0.161 C 
ENDROOT
BRANCH   1   2
HETATM    2  C   UNL     1      -6.101   4.279 -31.087  1.00  0.00    -0.040 A 
HETATM    3  C   UNL     1      -7.165   3.705 -31.800  1.00  0.00     0.026 A 
HETATM    4  C   UNL     1      -7.922   4.471 -32.694  1.00  0.00     0.032 A 
HETATM    5  C   UNL     1      -7.638   5.830 -32.855  1.00  0.00     0.017 A 
HETATM    6  C   UNL     1      -6.576   6.408 -32.157  1.00  0.00     0.002 A 
HETATM    7  C   UNL     1      -5.804   5.634 -31.286  1.00  0.00     0.009 A 
BRANCH   4   8
HETATM    8  C   UNL     1      -9.041   3.871 -33.470  1.00  0.00     0.252 C 
HETATM    9  N   UNL     1      -9.641   2.768 -32.896  1.00  0.00    -0.353 N 
HETATM   10  H   UNL     1      -9.186   2.331 -32.105  1.00  0.00     0.163 HD
HETATM   11  O   UNL     1      -9.354   4.336 -34.559  1.00  0.00    -0.268 OA
BRANCH   9  12
HETATM   12  C   UNL     1     -10.693   2.022 -33.572  1.00  0.00     0.080 C 
HETATM   13  C   UNL     1     -12.050   2.658 -33.282  1.00  0.00     0.032 C 
BRANCH  12  14
HETATM   14  C   UNL     1     -10.658   0.524 -33.218  1.00  0.00     0.020 C 
HETATM   15  C   UNL     1      -9.535   0.119 -32.272  1.00  0.00     0.007 C 
ENDBRANCH  12  14
ENDBRANCH   9  12
ENDBRANCH   4   8
ENDBRANCH   1   2
BRANCH   1  16
HETATM   16  N   UNL     1      -4.994   2.135 -30.688  1.00  0.00    -0.351 N 
HETATM   17  C   UNL     1      -3.804   1.820 -31.306  1.00  0.00     0.273 C 
HETATM   18  O   UNL     1      -2.851   2.592 -31.381  1.00  0.00    -0.266 OA
HETATM   19  H   UNL     1      -5.696   1.402 -30.690  1.00  0.00     0.163 HD
BRANCH  17  20
HETATM   20  C   UNL     1      -3.795   0.465 -31.882  1.00  0.00     0.157 A 
HETATM   21  N   UNL     1      -2.889  -0.459 -31.489  1.00  0.00    -0.168 NA
HETATM   22  N   UNL     1      -3.221  -1.553 -32.198  1.00  0.00    -0.277 N 
HETATM   23  H   UNL     1      -2.679  -2.398 -32.060  1.00  0.00     0.189 HD
HETATM   24  C   UNL     1      -4.282  -1.381 -33.043  1.00  0.00     0.063 A 
HETATM   25  C   UNL     1      -4.682  -0.063 -32.866  1.00  0.00     0.029 A 
HETATM   26  C   UNL     1      -4.913  -2.259 -33.928  1.00  0.00     0.032 A 
HETATM   27  C   UNL     1      -5.768   0.423 -33.620  1.00  0.00     0.023 A 
HETATM   28  C   UNL     1      -6.419  -0.430 -34.529  1.00  0.00    -0.061 A 
HETATM   29  C   UNL     1      -5.989  -1.755 -34.669  1.00  0.00     0.009 A 
HETATM   30  C   UNL     1      -7.564   0.098 -35.344  1.00  0.00     0.048 C 
ENDBRANCH  17  20
ENDBRANCH   1  16
TORSDOF 6
ENDMDL
