MODEL 1
REMARK VINA RESULT:      -8.6      0.000      0.000
REMARK  4 active torsions:
REMARK  status: ('A' for Active; 'I' for Inactive)
REMARK    1  A    between atoms: C_5  and  C_6 
REMARK    2  A    between atoms: C_6  and  N_7 
REMARK    3  A    between atoms: C_6  and  C_18 
REMARK    4  A    between atoms: N_7  and  C_8 
ROOT
HETATM    1  C   UNL     1      -6.396   0.381 -33.825  1.00  0.00     0.290 C 
ENDROOT
BRANCH   1   2
HETATM    2  C   UNL     1      -5.998  -1.050 -34.126  1.00  0.00     0.021 A 
HETATM    3  C   UNL     1      -6.930  -2.036 -34.489  1.00  0.00     0.055 A 
HETATM    4  C   UNL     1      -6.509  -3.340 -34.734  1.00  0.00     0.117 A 
HETATM    5  C   UNL     1      -5.171  -3.699 -34.618  1.00  0.00     0.045 A 
HETATM    6  F   UNL     1      -7.411  -4.262 -35.096  1.00  0.00    -0.206 F 
HETATM    7  C   UNL     1      -4.234  -2.736 -34.249  1.00  0.00     0.046 A 
HETATM    8  C   UNL     1      -4.652  -1.429 -34.007  1.00  0.00     0.125 A 
HETATM    9  F   UNL     1      -3.735  -0.513 -33.663  1.00  0.00    -0.205 F 
ENDBRANCH   1   2
BRANCH   1  10
HETATM   10  N   UNL     1      -7.805   0.708 -34.159  1.00  0.00     0.101 N 
HETATM   11  H   UNL     1      -8.228  -0.138 -34.533  1.00  0.00     0.317 HD
BRANCH  10  12
HETATM   12  C   UNL     1      -8.593   1.327 -33.085  1.00  0.00     0.225 C 
HETATM   13  C   UNL     1      -9.936   0.634 -32.770  1.00  0.00     0.069 C 
HETATM   14  C   UNL     1     -10.940   0.839 -33.887  1.00  0.00     0.190 C 
HETATM   15  N   UNL     1     -11.140   2.317 -34.089  1.00  0.00    -0.067 N 
HETATM   16  C   UNL     1     -12.362   0.384 -33.628  1.00  0.00     0.035 C 
HETATM   17  H   UNL     1     -11.413   2.732 -33.184  1.00  0.00     0.280 HD
HETATM   18  C   UNL     1      -9.893   3.014 -34.535  1.00  0.00     0.237 C 
HETATM   19  C   UNL     1     -12.352   2.433 -34.977  1.00  0.00     0.235 C 
HETATM   20  C   UNL     1      -8.830   2.810 -33.458  1.00  0.00     0.063 C 
HETATM   21  C   UNL     1     -13.170   1.181 -34.653  1.00  0.00     0.030 C 
ENDBRANCH  10  12
ENDBRANCH   1  10
BRANCH   1  22
HETATM   22  C   UNL     1      -6.113   0.750 -32.373  1.00  0.00    -0.018 A 
HETATM   23  C   UNL     1      -5.452   1.946 -32.067  1.00  0.00     0.029 A 
HETATM   24  C   UNL     1      -5.216   2.261 -30.737  1.00  0.00     0.116 A 
HETATM   25  N   UNL     1      -5.585   1.474 -29.706  1.00  0.00    -0.273 NA
HETATM   26  C   UNL     1      -6.197   0.312 -30.014  1.00  0.00     0.116 A 
HETATM   27  C   UNL     1      -6.481  -0.087 -31.310  1.00  0.00     0.029 A 
ENDBRANCH   1  22
TORSDOF 4
ENDMDL
MODEL 2
REMARK VINA RESULT:      -8.4      2.815      5.893
REMARK  4 active torsions:
REMARK  status: ('A' for Active; 'I' for Inactive)
REMARK    1  A    between atoms: C_5  and  C_6 
REMARK    2  A    between atoms: C_6  and  N_7 
REMARK    3  A    between atoms: C_6  and  C_18 
REMARK    4  A    between atoms: N_7  and  C_8 
ROOT
HETATM    1  C   UNL     1      -5.965   0.998 -32.559  1.00  0.00     0.290 C 
ENDROOT
BRANCH   1   2
HETATM    2  C   UNL     1      -5.231  -0.303 -32.817  1.00  0.00     0.021 A 
HETATM    3  C   UNL     1      -5.460  -1.088 -33.958  1.00  0.00     0.055 A 
HETATM    4  C   UNL     1      -4.770  -2.285 -34.134  1.00  0.00     0.117 A 
HETATM    5  C   UNL     1      -3.856  -2.735 -33.188  1.00  0.00     0.045 A 
HETATM    6  F   UNL     1      -4.989  -3.011 -35.237  1.00  0.00    -0.206 F 
HETATM    7  C   UNL     1      -3.625  -1.974 -32.044  1.00  0.00     0.046 A 
HETATM    8  C   UNL     1      -4.310  -0.773 -31.868  1.00  0.00     0.125 A 
HETATM    9  F   UNL     1      -4.067  -0.048 -30.766  1.00  0.00    -0.205 F 
ENDBRANCH   1   2
BRANCH   1  10
HETATM   10  N   UNL     1      -5.384   2.177 -33.248  1.00  0.00     0.101 N 
HETATM   11  H   UNL     1      -5.833   2.242 -34.158  1.00  0.00     0.317 HD
BRANCH  10  12
HETATM   12  C   UNL     1      -5.408   3.438 -32.496  1.00  0.00     0.225 C 
HETATM   13  C   UNL     1      -5.005   4.692 -33.300  1.00  0.00     0.069 C 
HETATM   14  C   UNL     1      -3.524   4.690 -33.623  1.00  0.00     0.190 C 
HETATM   15  N   UNL     1      -2.750   4.615 -32.334  1.00  0.00    -0.067 N 
HETATM   16  C   UNL     1      -2.950   5.952 -34.235  1.00  0.00     0.035 C 
HETATM   17  H   UNL     1      -3.056   5.391 -31.728  1.00  0.00     0.280 HD
HETATM   18  C   UNL     1      -3.000   3.344 -31.583  1.00  0.00     0.237 C 
HETATM   19  C   UNL     1      -1.325   4.925 -32.712  1.00  0.00     0.235 C 
HETATM   20  C   UNL     1      -4.491   3.277 -31.260  1.00  0.00     0.063 C 
HETATM   21  C   UNL     1      -1.454   5.828 -33.941  1.00  0.00     0.030 C 
ENDBRANCH  10  12
ENDBRANCH   1  10
BRANCH   1  22
HETATM   22  C   UNL     1      -7.448   0.884 -32.897  1.00  0.00    -0.018 A 
HETATM   23  C   UNL     1      -8.328   0.262 -32.001  1.00  0.00     0.029 A 
HETATM   24  C   UNL     1      -9.672   0.180 -32.330  1.00  0.00     0.116 A 
HETATM   25  N   UNL     1     -10.192   0.666 -33.475  1.00  0.00    -0.273 NA
HETATM   26  C   UNL     1      -9.331   1.238 -34.342  1.00  0.00     0.116 A 
HETATM   27  C   UNL     1      -7.973   1.371 -34.101  1.00  0.00     0.029 A 
ENDBRANCH   1  22
TORSDOF 4
ENDMDL
MODEL 3
REMARK VINA RESULT:      -8.3      3.090      6.249
REMARK  4 active torsions:
REMARK  status: ('A' for Active; 'I' for Inactive)
REMARK    1  A    between atoms: C_5  and  C_6 
REMARK    2  A    between atoms: C_6  and  N_7 
REMARK    3  A    between atoms: C_6  and  C_18 
REMARK    4  A    between atoms: N_7  and  C_8 
ROOT
HETATM    1  C   UNL     1      -6.109   0.759 -33.850  1.00  0.00     0.290 C 
ENDROOT
BRANCH   1   2
HETATM    2  C   UNL     1      -7.591   0.766 -33.535  1.00  0.00     0.021 A 
HETATM    3  C   UNL     1      -8.557   1.237 -34.439  1.00  0.00     0.055 A 
HETATM    4  C   UNL     1      -9.904   1.239 -34.087  1.00  0.00     0.117 A 
HETATM    5  C   UNL     1     -10.323   0.789 -32.840  1.00  0.00     0.045 A 
HETATM    6  F   UNL     1     -10.811   1.675 -34.970  1.00  0.00    -0.206 F 
HETATM    7  C   UNL     1      -9.377   0.329 -31.926  1.00  0.00     0.046 A 
HETATM    8  C   UNL     1      -8.028   0.322 -32.278  1.00  0.00     0.125 A 
HETATM    9  F   UNL     1      -7.134  -0.135 -31.389  1.00  0.00    -0.205 F 
ENDBRANCH   1   2
BRANCH   1  10
HETATM   10  N   UNL     1      -5.278   1.547 -32.906  1.00  0.00     0.101 N 
HETATM   11  H   UNL     1      -4.316   1.486 -33.232  1.00  0.00     0.317 HD
BRANCH  10  12
HETATM   12  C   UNL     1      -5.721   2.924 -32.654  1.00  0.00     0.225 C 
HETATM   13  C   UNL     1      -5.477   3.917 -33.810  1.00  0.00     0.069 C 
HETATM   14  C   UNL     1      -4.001   4.219 -33.978  1.00  0.00     0.190 C 
HETATM   15  N   UNL     1      -3.472   4.773 -32.682  1.00  0.00    -0.067 N 
HETATM   16  C   UNL     1      -3.629   5.327 -34.943  1.00  0.00     0.035 C 
HETATM   17  H   UNL     1      -4.050   5.587 -32.420  1.00  0.00     0.280 HD
HETATM   18  C   UNL     1      -3.557   3.791 -31.556  1.00  0.00     0.237 C 
HETATM   19  C   UNL     1      -2.111   5.325 -33.016  1.00  0.00     0.235 C 
HETATM   20  C   UNL     1      -5.027   3.423 -31.364  1.00  0.00     0.063 C 
HETATM   21  C   UNL     1      -2.221   5.718 -34.491  1.00  0.00     0.030 C 
ENDBRANCH  10  12
ENDBRANCH   1  10
BRANCH   1  22
HETATM   22  C   UNL     1      -5.563  -0.660 -33.956  1.00  0.00    -0.018 A 
HETATM   23  C   UNL     1      -6.180  -1.591 -34.802  1.00  0.00     0.029 A 
HETATM   24  C   UNL     1      -5.656  -2.872 -34.884  1.00  0.00     0.116 A 
HETATM   25  N   UNL     1      -4.576  -3.284 -34.189  1.00  0.00    -0.273 NA
HETATM   26  C   UNL     1      -4.007  -2.388 -33.358  1.00  0.00     0.116 A 
HETATM   27  C   UNL     1      -4.454  -1.085 -33.210  1.00  0.00     0.029 A 
ENDBRANCH   1  22
TORSDOF 4
ENDMDL
MODEL 4
REMARK VINA RESULT:      -8.3      2.213      4.347
REMARK  4 active torsions:
REMARK  status: ('A' for Active; 'I' for Inactive)
REMARK    1  A    between atoms: C_5  and  C_6 
REMARK    2  A    between atoms: C_6  and  N_7 
REMARK    3  A    between atoms: C_6  and  C_18 
REMARK    4  A    between atoms: N_7  and  C_8 
ROOT
HETATM    1  C   UNL     1      -6.928   0.045 -32.417  1.00  0.00     0.290 C 
ENDROOT
BRANCH   1   2
HETATM    2  C   UNL     1      -6.095   1.271 -32.103  1.00  0.00     0.021 A 
HETATM    3  C   UNL     1      -5.617   2.137 -33.099  1.00  0.00     0.055 A 
HETATM    4  C   UNL     1      -4.838   3.239 -32.754  1.00  0.00     0.117 A 
HETATM    5  C   UNL     1      -4.507   3.500 -31.429  1.00  0.00     0.045 A 
HETATM    6  F   UNL     1      -4.406   4.063 -33.716  1.00  0.00    -0.206 F 
HETATM    7  C   UNL     1      -4.964   2.644 -30.429  1.00  0.00     0.046 A 
HETATM    8  C   UNL     1      -5.748   1.543 -30.771  1.00  0.00     0.125 A 
HETATM    9  F   UNL     1      -6.187   0.737 -29.794  1.00  0.00    -0.205 F 
ENDBRANCH   1   2
BRANCH   1  10
HETATM   10  N   UNL     1      -8.169   0.326 -33.181  1.00  0.00     0.101 N 
HETATM   11  H   UNL     1      -8.253  -0.396 -33.892  1.00  0.00     0.317 HD
BRANCH  10  12
HETATM   12  C   UNL     1      -9.390   0.501 -32.383  1.00  0.00     0.225 C 
HETATM   13  C   UNL     1     -10.714   0.291 -33.149  1.00  0.00     0.069 C 
HETATM   14  C   UNL     1     -10.967   1.415 -34.135  1.00  0.00     0.190 C 
HETATM   15  N   UNL     1     -10.990   2.718 -33.382  1.00  0.00    -0.067 N 
HETATM   16  C   UNL     1     -12.322   1.445 -34.813  1.00  0.00     0.035 C 
HETATM   17  H   UNL     1     -11.690   2.643 -32.628  1.00  0.00     0.280 HD
HETATM   18  C   UNL     1      -9.678   3.036 -32.737  1.00  0.00     0.237 C 
HETATM   19  C   UNL     1     -11.543   3.725 -34.357  1.00  0.00     0.235 C 
HETATM   20  C   UNL     1      -9.354   1.914 -31.754  1.00  0.00     0.063 C 
HETATM   21  C   UNL     1     -12.441   2.897 -35.278  1.00  0.00     0.030 C 
ENDBRANCH  10  12
ENDBRANCH   1  10
BRANCH   1  22
HETATM   22  C   UNL     1      -6.111  -1.021 -33.139  1.00  0.00    -0.018 A 
HETATM   23  C   UNL     1      -6.653  -1.697 -34.241  1.00  0.00     0.029 A 
HETATM   24  C   UNL     1      -5.884  -2.654 -34.884  1.00  0.00     0.116 A 
HETATM   25  N   UNL     1      -4.631  -2.983 -34.508  1.00  0.00    -0.273 NA
HETATM   26  C   UNL     1      -4.131  -2.346 -33.430  1.00  0.00     0.116 A 
HETATM   27  C   UNL     1      -4.819  -1.372 -32.725  1.00  0.00     0.029 A 
ENDBRANCH   1  22
TORSDOF 4
ENDMDL
MODEL 5
REMARK VINA RESULT:      -8.3      3.270      6.181
REMARK  4 active torsions:
REMARK  status: ('A' for Active; 'I' for Inactive)
REMARK    1  A    between atoms: C_5  and  C_6 
REMARK    2  A    between atoms: C_6  and  N_7 
REMARK    3  A    between atoms: C_6  and  C_18 
REMARK    4  A    between atoms: N_7  and  C_8 
ROOT
HETATM    1  C   UNL     1      -5.242   0.728 -33.383  1.00  0.00     0.290 C 
ENDROOT
BRANCH   1   2
HETATM    2  C   UNL     1      -6.755   0.650 -33.350  1.00  0.00     0.021 A 
HETATM    3  C   UNL     1      -7.476   0.422 -32.166  1.00  0.00     0.055 A 
HETATM    4  C   UNL     1      -8.866   0.339 -32.198  1.00  0.00     0.117 A 
HETATM    5  C   UNL     1      -9.567   0.467 -33.392  1.00  0.00     0.045 A 
HETATM    6  F   UNL     1      -9.536   0.139 -31.057  1.00  0.00    -0.206 F 
HETATM    7  C   UNL     1      -8.867   0.683 -34.577  1.00  0.00     0.046 A 
HETATM    8  C   UNL     1      -7.476   0.771 -34.547  1.00  0.00     0.125 A 
HETATM    9  F   UNL     1      -6.820   0.989 -35.696  1.00  0.00    -0.205 F 
ENDBRANCH   1   2
BRANCH   1  10
HETATM   10  N   UNL     1      -4.658   1.715 -32.441  1.00  0.00     0.101 N 
HETATM   11  H   UNL     1      -3.659   1.753 -32.629  1.00  0.00     0.317 HD
BRANCH  10  12
HETATM   12  C   UNL     1      -5.297   3.037 -32.418  1.00  0.00     0.225 C 
HETATM   13  C   UNL     1      -5.086   3.894 -33.685  1.00  0.00     0.069 C 
HETATM   14  C   UNL     1      -3.652   4.376 -33.794  1.00  0.00     0.190 C 
HETATM   15  N   UNL     1      -3.315   5.165 -32.557  1.00  0.00    -0.067 N 
HETATM   16  C   UNL     1      -3.346   5.389 -34.879  1.00  0.00     0.035 C 
HETATM   17  H   UNL     1      -4.015   5.917 -32.453  1.00  0.00     0.280 HD
HETATM   18  C   UNL     1      -3.369   4.338 -31.311  1.00  0.00     0.237 C 
HETATM   19  C   UNL     1      -2.014   5.856 -32.873  1.00  0.00     0.235 C 
HETATM   20  C   UNL     1      -4.788   3.795 -31.169  1.00  0.00     0.063 C 
HETATM   21  C   UNL     1      -2.046   6.031 -34.393  1.00  0.00     0.030 C 
ENDBRANCH  10  12
ENDBRANCH   1  10
BRANCH   1  22
HETATM   22  C   UNL     1      -4.603  -0.638 -33.156  1.00  0.00    -0.018 A 
HETATM   23  C   UNL     1      -3.707  -0.829 -32.095  1.00  0.00     0.029 A 
HETATM   24  C   UNL     1      -3.148  -2.084 -31.907  1.00  0.00     0.116 A 
HETATM   25  N   UNL     1      -3.413  -3.146 -32.694  1.00  0.00    -0.273 NA
HETATM   26  C   UNL     1      -4.255  -2.943 -33.728  1.00  0.00     0.116 A 
HETATM   27  C   UNL     1      -4.867  -1.730 -33.995  1.00  0.00     0.029 A 
ENDBRANCH   1  22
TORSDOF 4
ENDMDL
MODEL 6
REMARK VINA RESULT:      -8.0      2.052      4.383
REMARK  4 active torsions:
REMARK  status: ('A' for Active; 'I' for Inactive)
REMARK    1  A    between atoms: C_5  and  C_6 
REMARK    2  A    between atoms: C_6  and  N_7 
REMARK    3  A    between atoms: C_6  and  C_18 
REMARK    4  A    between atoms: N_7  and  C_8 
ROOT
HETATM    1  C   UNL     1      -7.030   0.235 -32.596  1.00  0.00     0.290 C 
ENDROOT
BRANCH   1   2
HETATM    2  C   UNL     1      -6.301   1.560 -32.491  1.00  0.00     0.021 A 
HETATM    3  C   UNL     1      -5.904   2.110 -31.262  1.00  0.00     0.055 A 
HETATM    4  C   UNL     1      -5.255   3.342 -31.224  1.00  0.00     0.117 A 
HETATM    5  C   UNL     1      -4.996   4.055 -32.389  1.00  0.00     0.045 A 
HETATM    6  F   UNL     1      -4.868   3.842 -30.044  1.00  0.00    -0.206 F 
HETATM    7  C   UNL     1      -5.393   3.529 -33.616  1.00  0.00     0.046 A 
HETATM    8  C   UNL     1      -6.039   2.294 -33.657  1.00  0.00     0.125 A 
HETATM    9  F   UNL     1      -6.404   1.799 -34.848  1.00  0.00    -0.205 F 
ENDBRANCH   1   2
BRANCH   1  10
HETATM   10  N   UNL     1      -8.350   0.314 -33.271  1.00  0.00     0.101 N 
HETATM   11  H   UNL     1      -8.362  -0.404 -33.991  1.00  0.00     0.317 HD
BRANCH  10  12
HETATM   12  C   UNL     1      -9.525   0.276 -32.391  1.00  0.00     0.225 C 
HETATM   13  C   UNL     1     -10.868  -0.015 -33.096  1.00  0.00     0.069 C 
HETATM   14  C   UNL     1     -11.308   1.156 -33.952  1.00  0.00     0.190 C 
HETATM   15  N   UNL     1     -11.422   2.376 -33.077  1.00  0.00    -0.067 N 
HETATM   16  C   UNL     1     -12.701   1.092 -34.545  1.00  0.00     0.035 C 
HETATM   17  H   UNL     1     -12.056   2.153 -32.294  1.00  0.00     0.280 HD
HETATM   18  C   UNL     1     -10.111   2.783 -32.480  1.00  0.00     0.237 C 
HETATM   19  C   UNL     1     -12.146   3.396 -33.916  1.00  0.00     0.235 C 
HETATM   20  C   UNL     1      -9.601   1.621 -31.631  1.00  0.00     0.063 C 
HETATM   21  C   UNL     1     -13.009   2.556 -34.859  1.00  0.00     0.030 C 
ENDBRANCH  10  12
ENDBRANCH   1  10
BRANCH   1  22
HETATM   22  C   UNL     1      -6.171  -0.828 -33.272  1.00  0.00    -0.018 A 
HETATM   23  C   UNL     1      -4.863  -1.062 -32.829  1.00  0.00     0.029 A 
HETATM   24  C   UNL     1      -4.108  -2.041 -33.455  1.00  0.00     0.116 A 
HETATM   25  N   UNL     1      -4.559  -2.791 -34.481  1.00  0.00    -0.273 NA
HETATM   26  C   UNL     1      -5.810  -2.539 -34.917  1.00  0.00     0.116 A 
HETATM   27  C   UNL     1      -6.643  -1.586 -34.353  1.00  0.00     0.029 A 
ENDBRANCH   1  22
TORSDOF 4
ENDMDL
MODEL 7
REMARK VINA RESULT:      -7.9      2.779      6.196
REMARK  4 active torsions:
REMARK  status: ('A' for Active; 'I' for Inactive)
REMARK    1  A    between atoms: C_5  and  C_6 
REMARK    2  A    between atoms: C_6  and  N_7 
REMARK    3  A    between atoms: C_6  and  C_18 
REMARK    4  A    between atoms: N_7  and  C_8 
ROOT
HETATM    1  C   UNL     1      -9.017   1.889 -33.223  1.00  0.00     0.290 C 
ENDROOT
BRANCH   1   2
HETATM    2  C   UNL     1     -10.427   1.615 -33.704  1.00  0.00     0.021 A 
HETATM    3  C   UNL     1     -11.174   0.506 -33.272  1.00  0.00     0.055 A 
HETATM    4  C   UNL     1     -12.458   0.293 -33.765  1.00  0.00     0.117 A 
HETATM    5  C   UNL     1     -13.026   1.156 -34.696  1.00  0.00     0.045 A 
HETATM    6  F   UNL     1     -13.161  -0.760 -33.327  1.00  0.00    -0.206 F 
HETATM    7  C   UNL     1     -12.295   2.254 -35.143  1.00  0.00     0.046 A 
HETATM    8  C   UNL     1     -11.011   2.473 -34.649  1.00  0.00     0.125 A 
HETATM    9  F   UNL     1     -10.327   3.542 -35.083  1.00  0.00    -0.205 F 
ENDBRANCH   1   2
BRANCH   1  10
HETATM   10  N   UNL     1      -8.907   2.150 -31.765  1.00  0.00     0.101 N 
HETATM   11  H   UNL     1      -8.387   1.374 -31.362  1.00  0.00     0.317 HD
BRANCH  10  12
HETATM   12  C   UNL     1      -8.379   3.466 -31.385  1.00  0.00     0.225 C 
HETATM   13  C   UNL     1      -7.375   4.086 -32.381  1.00  0.00     0.069 C 
HETATM   14  C   UNL     1      -6.054   3.340 -32.371  1.00  0.00     0.190 C 
HETATM   15  N   UNL     1      -5.499   3.364 -30.972  1.00  0.00    -0.067 N 
HETATM   16  C   UNL     1      -4.909   3.954 -33.151  1.00  0.00     0.035 C 
HETATM   17  H   UNL     1      -5.439   4.347 -30.666  1.00  0.00     0.280 HD
HETATM   18  C   UNL     1      -6.373   2.648 -29.991  1.00  0.00     0.237 C 
HETATM   19  C   UNL     1      -4.076   2.887 -31.106  1.00  0.00     0.235 C 
HETATM   20  C   UNL     1      -7.735   3.339 -29.984  1.00  0.00     0.063 C 
HETATM   21  C   UNL     1      -3.677   3.301 -32.524  1.00  0.00     0.030 C 
ENDBRANCH  10  12
ENDBRANCH   1  10
BRANCH   1  22
HETATM   22  C   UNL     1      -8.059   0.771 -33.618  1.00  0.00    -0.018 A 
HETATM   23  C   UNL     1      -7.824   0.492 -34.971  1.00  0.00     0.029 A 
HETATM   24  C   UNL     1      -6.941  -0.525 -35.302  1.00  0.00     0.116 A 
HETATM   25  N   UNL     1      -6.289  -1.274 -34.390  1.00  0.00    -0.273 NA
HETATM   26  C   UNL     1      -6.545  -1.015 -33.092  1.00  0.00     0.116 A 
HETATM   27  C   UNL     1      -7.405  -0.018 -32.662  1.00  0.00     0.029 A 
ENDBRANCH   1  22
TORSDOF 4
ENDMDL
MODEL 8
REMARK VINA RESULT:      -7.9      2.547      4.618
REMARK  4 active torsions:
REMARK  status: ('A' for Active; 'I' for Inactive)
REMARK    1  A    between atoms: C_5  and  C_6 
REMARK    2  A    between atoms: C_6  and  N_7 
REMARK    3  A    between atoms: C_6  and  C_18 
REMARK    4  A    between atoms: N_7  and  C_8 
ROOT
HETATM    1  C   UNL     1      -5.879   1.910 -32.258  1.00  0.00     0.290 C 
ENDROOT
BRANCH   1   2
HETATM    2  C   UNL     1      -4.831   2.923 -32.670  1.00  0.00     0.021 A 
HETATM    3  C   UNL     1      -4.993   3.773 -33.776  1.00  0.00     0.055 A 
HETATM    4  C   UNL     1      -3.987   4.672 -34.122  1.00  0.00     0.117 A 
HETATM    5  C   UNL     1      -2.803   4.742 -33.395  1.00  0.00     0.045 A 
HETATM    6  F   UNL     1      -4.167   5.487 -35.169  1.00  0.00    -0.206 F 
HETATM    7  C   UNL     1      -2.622   3.898 -32.301  1.00  0.00     0.046 A 
HETATM    8  C   UNL     1      -3.629   3.001 -31.951  1.00  0.00     0.125 A 
HETATM    9  F   UNL     1      -3.440   2.204 -30.889  1.00  0.00    -0.205 F 
ENDBRANCH   1   2
BRANCH   1  10
HETATM   10  N   UNL     1      -7.279   2.367 -32.439  1.00  0.00     0.101 N 
HETATM   11  H   UNL     1      -7.542   2.154 -33.398  1.00  0.00     0.317 HD
BRANCH  10  12
HETATM   12  C   UNL     1      -8.248   1.882 -31.447  1.00  0.00     0.225 C 
HETATM   13  C   UNL     1      -9.191   0.764 -31.940  1.00  0.00     0.069 C 
HETATM   14  C   UNL     1     -10.196   1.292 -32.947  1.00  0.00     0.190 C 
HETATM   15  N   UNL     1     -10.981   2.404 -32.305  1.00  0.00    -0.067 N 
HETATM   16  C   UNL     1     -11.309   0.353 -33.367  1.00  0.00     0.035 C 
HETATM   17  H   UNL     1     -11.396   2.044 -31.432  1.00  0.00     0.280 HD
HETATM   18  C   UNL     1     -10.126   3.576 -31.936  1.00  0.00     0.237 C 
HETATM   19  C   UNL     1     -12.137   2.658 -33.236  1.00  0.00     0.235 C 
HETATM   20  C   UNL     1      -9.069   3.093 -30.945  1.00  0.00     0.063 C 
HETATM   21  C   UNL     1     -12.374   1.306 -33.912  1.00  0.00     0.030 C 
ENDBRANCH  10  12
ENDBRANCH   1  10
BRANCH   1  22
HETATM   22  C   UNL     1      -5.680   0.574 -32.966  1.00  0.00    -0.018 A 
HETATM   23  C   UNL     1      -4.754  -0.354 -32.471  1.00  0.00     0.029 A 
HETATM   24  C   UNL     1      -4.600  -1.564 -33.129  1.00  0.00     0.116 A 
HETATM   25  N   UNL     1      -5.293  -1.908 -34.234  1.00  0.00    -0.273 NA
HETATM   26  C   UNL     1      -6.162  -0.996 -34.716  1.00  0.00     0.116 A 
HETATM   27  C   UNL     1      -6.389   0.237 -34.127  1.00  0.00     0.029 A 
ENDBRANCH   1  22
TORSDOF 4
ENDMDL
MODEL 9
REMARK VINA RESULT:      -7.8      2.476      3.531
REMARK  4 active torsions:
REMARK  status: ('A' for Active; 'I' for Inactive)
REMARK    1  A    between atoms: C_5  and  C_6 
REMARK    2  A    between atoms: C_6  and  N_7 
REMARK    3  A    between atoms: C_6  and  C_18 
REMARK    4  A    between atoms: N_7  and  C_8 
ROOT
HETATM    1  C   UNL     1      -7.536   2.594 -34.303  1.00  0.00     0.290 C 
ENDROOT
BRANCH   1   2
HETATM    2  C   UNL     1      -6.916   1.363 -33.673  1.00  0.00     0.021 A 
HETATM    3  C   UNL     1      -6.548   1.309 -32.319  1.00  0.00     0.055 A 
HETATM    4  C   UNL     1      -5.963   0.157 -31.799  1.00  0.00     0.117 A 
HETATM    5  C   UNL     1      -5.720  -0.953 -32.600  1.00  0.00     0.045 A 
HETATM    6  F   UNL     1      -5.635   0.118 -30.501  1.00  0.00    -0.206 F 
HETATM    7  C   UNL     1      -6.069  -0.912 -33.948  1.00  0.00     0.046 A 
HETATM    8  C   UNL     1      -6.659   0.238 -34.471  1.00  0.00     0.125 A 
HETATM    9  F   UNL     1      -6.998   0.255 -35.768  1.00  0.00    -0.205 F 
ENDBRANCH   1   2
BRANCH   1  10
HETATM   10  N   UNL     1      -8.987   2.754 -34.038  1.00  0.00     0.101 N 
HETATM   11  H   UNL     1      -9.471   2.610 -34.921  1.00  0.00     0.317 HD
BRANCH  10  12
HETATM   12  C   UNL     1      -9.533   1.947 -32.938  1.00  0.00     0.225 C 
HETATM   13  C   UNL     1     -10.536   0.852 -33.359  1.00  0.00     0.069 C 
HETATM   14  C   UNL     1     -11.848   1.453 -33.824  1.00  0.00     0.190 C 
HETATM   15  N   UNL     1     -12.415   2.293 -32.710  1.00  0.00    -0.067 N 
HETATM   16  C   UNL     1     -12.994   0.495 -34.079  1.00  0.00     0.035 C 
HETATM   17  H   UNL     1     -12.487   1.703 -31.867  1.00  0.00     0.280 HD
HETATM   18  C   UNL     1     -11.540   3.456 -32.361  1.00  0.00     0.237 C 
HETATM   19  C   UNL     1     -13.831   2.594 -33.125  1.00  0.00     0.235 C 
HETATM   20  C   UNL     1     -10.186   2.907 -31.916  1.00  0.00     0.063 C 
HETATM   21  C   UNL     1     -14.224   1.400 -33.998  1.00  0.00     0.030 C 
ENDBRANCH  10  12
ENDBRANCH   1  10
BRANCH   1  22
HETATM   22  C   UNL     1      -6.797   3.866 -33.899  1.00  0.00    -0.018 A 
HETATM   23  C   UNL     1      -5.472   4.069 -34.307  1.00  0.00     0.029 A 
HETATM   24  C   UNL     1      -4.828   5.239 -33.933  1.00  0.00     0.116 A 
HETATM   25  N   UNL     1      -5.404   6.204 -33.188  1.00  0.00    -0.273 NA
HETATM   26  C   UNL     1      -6.670   5.984 -32.779  1.00  0.00     0.116 A 
HETATM   27  C   UNL     1      -7.398   4.852 -33.105  1.00  0.00     0.029 A 
ENDBRANCH   1  22
TORSDOF 4
ENDMDL
MODEL 10
REMARK VINA RESULT:      -7.7      3.911      6.783
REMARK  4 active torsions:
REMARK  status: ('A' for Active; 'I' for Inactive)
REMARK    1  A    between atoms: C_5  and  C_6 
REMARK    2  A    between atoms: C_6  and  N_7 
REMARK    3  A    between atoms: C_6  and  C_18 
REMARK    4  A    between atoms: N_7  and  C_8 
ROOT
HETATM    1  C   UNL     1      -4.739   2.813 -32.162  1.00  0.00     0.290 C 
ENDROOT
BRANCH   1   2
HETATM    2  C   UNL     1      -5.274   1.592 -32.883  1.00  0.00     0.021 A 
HETATM    3  C   UNL     1      -6.202   1.678 -33.934  1.00  0.00     0.055 A 
HETATM    4  C   UNL     1      -6.674   0.521 -34.547  1.00  0.00     0.117 A 
HETATM    5  C   UNL     1      -6.253  -0.738 -34.132  1.00  0.00     0.045 A 
HETATM    6  F   UNL     1      -7.545   0.624 -35.558  1.00  0.00    -0.206 F 
HETATM    7  C   UNL     1      -5.340  -0.842 -33.084  1.00  0.00     0.046 A 
HETATM    8  C   UNL     1      -4.862   0.315 -32.471  1.00  0.00     0.125 A 
HETATM    9  F   UNL     1      -3.977   0.196 -31.472  1.00  0.00    -0.205 F 
ENDBRANCH   1   2
BRANCH   1  10
HETATM   10  N   UNL     1      -4.106   3.820 -33.049  1.00  0.00     0.101 N 
HETATM   11  H   UNL     1      -4.575   4.706 -32.878  1.00  0.00     0.317 HD
BRANCH  10  12
HETATM   12  C   UNL     1      -2.642   3.913 -32.974  1.00  0.00     0.225 C 
HETATM   13  C   UNL     1      -2.083   4.457 -31.642  1.00  0.00     0.069 C 
HETATM   14  C   UNL     1      -2.376   5.937 -31.483  1.00  0.00     0.190 C 
HETATM   15  N   UNL     1      -1.778   6.674 -32.651  1.00  0.00    -0.067 N 
HETATM   16  C   UNL     1      -1.717   6.649 -30.319  1.00  0.00     0.035 C 
HETATM   17  H   UNL     1      -0.775   6.438 -32.702  1.00  0.00     0.280 HD
HETATM   18  C   UNL     1      -2.391   6.280 -33.958  1.00  0.00     0.237 C 
HETATM   19  C   UNL     1      -1.840   8.130 -32.270  1.00  0.00     0.235 C 
HETATM   20  C   UNL     1      -2.155   4.785 -34.156  1.00  0.00     0.063 C 
HETATM   21  C   UNL     1      -1.769   8.118 -30.741  1.00  0.00     0.030 C 
ENDBRANCH  10  12
ENDBRANCH   1  10
BRANCH   1  22
HETATM   22  C   UNL     1      -5.816   3.481 -31.313  1.00  0.00    -0.018 A 
HETATM   23  C   UNL     1      -6.007   4.867 -31.382  1.00  0.00     0.029 A 
HETATM   24  C   UNL     1      -6.999   5.446 -30.605  1.00  0.00     0.116 A 
HETATM   25  N   UNL     1      -7.799   4.749 -29.774  1.00  0.00    -0.273 NA
HETATM   26  C   UNL     1      -7.587   3.420 -29.695  1.00  0.00     0.116 A 
HETATM   27  C   UNL     1      -6.626   2.749 -30.433  1.00  0.00     0.029 A 
ENDBRANCH   1  22
TORSDOF 4
ENDMDL
