MODEL 1
REMARK VINA RESULT:      -8.1      0.000      0.000
REMARK  5 active torsions:
REMARK  status: ('A' for Active; 'I' for Inactive)
REMARK    1  A    between atoms: C_4  and  C_5 
REMARK       I    between atoms: C_5  and  N_6 
REMARK    2  A    between atoms: N_6  and  C_7 
REMARK    3  A    between atoms: C_7  and  C_8 
REMARK    4  A    between atoms: C_8  and  C_9 
REMARK    5  A    between atoms: C_18  and  O_19 
ROOT
HETATM    1  C   UNL     1      -6.593   0.275 -34.072  1.00  0.00     0.254 C 
HETATM    2  N   UNL     1      -7.924   0.255 -34.414  1.00  0.00    -0.356 N 
HETATM    3  O   UNL     1      -6.018   1.306 -33.735  1.00  0.00    -0.268 OA
HETATM    4  H   UNL     1      -8.352  -0.661 -34.537  1.00  0.00     0.162 HD
ENDROOT
BRANCH   2   5
HETATM    5  C   UNL     1      -8.769   1.424 -34.270  1.00  0.00     0.136 C 
BRANCH   5   6
HETATM    6  C   UNL     1      -9.893   1.253 -33.206  1.00  0.00    -0.004 C 
HETATM    7  C   UNL     1      -9.742  -0.145 -32.562  1.00  0.00     0.021 C 
HETATM    8  C   UNL     1      -9.651   2.296 -32.088  1.00  0.00     0.021 C 
BRANCH   6   9
HETATM    9  C   UNL     1     -11.294   1.343 -33.841  1.00  0.00    -0.046 A 
HETATM   10  C   UNL     1     -11.622   2.406 -34.698  1.00  0.00     0.027 A 
HETATM   11  C   UNL     1     -12.891   2.472 -35.257  1.00  0.00     0.116 A 
HETATM   12  N   UNL     1     -13.858   1.561 -35.034  1.00  0.00    -0.273 NA
HETATM   13  C   UNL     1     -13.533   0.535 -34.223  1.00  0.00     0.116 A 
HETATM   14  C   UNL     1     -12.293   0.386 -33.615  1.00  0.00     0.027 A 
ENDBRANCH   6   9
ENDBRANCH   5   6
ENDBRANCH   2   5
BRANCH   1  15
HETATM   15  C   UNL     1      -5.856  -1.030 -34.112  1.00  0.00     0.065 A 
HETATM   16  C   UNL     1      -6.526  -2.122 -34.692  1.00  0.00     0.026 A 
HETATM   17  C   UNL     1      -5.925  -3.386 -34.774  1.00  0.00    -0.061 A 
HETATM   18  C   UNL     1      -6.641  -4.537 -35.415  1.00  0.00     0.048 C 
HETATM   19  C   UNL     1      -4.630  -3.555 -34.276  1.00  0.00     0.009 A 
HETATM   20  C   UNL     1      -3.946  -2.481 -33.702  1.00  0.00     0.038 A 
HETATM   21  C   UNL     1      -4.554  -1.224 -33.623  1.00  0.00     0.081 A 
BRANCH  21  22
HETATM   22  O   UNL     1      -3.846  -0.189 -33.066  1.00  0.00    -0.360 OA
HETATM   23  H   UNL     1      -3.059  -0.549 -32.621  1.00  0.00     0.217 HD
ENDBRANCH  21  22
ENDBRANCH   1  15
TORSDOF 5
ENDMDL
MODEL 2
REMARK VINA RESULT:      -8.0      2.280      7.320
REMARK  5 active torsions:
REMARK  status: ('A' for Active; 'I' for Inactive)
REMARK    1  A    between atoms: C_4  and  C_5 
REMARK       I    between atoms: C_5  and  N_6 
REMARK    2  A    between atoms: N_6  and  C_7 
REMARK    3  A    between atoms: C_7  and  C_8 
REMARK    4  A    between atoms: C_8  and  C_9 
REMARK    5  A    between atoms: C_18  and  O_19 
ROOT
HETATM    1  C   UNL     1      -9.606   0.745 -32.825  1.00  0.00     0.254 C 
HETATM    2  N   UNL     1      -8.836  -0.231 -33.410  1.00  0.00    -0.356 N 
HETATM    3  O   UNL     1      -9.296   1.278 -31.763  1.00  0.00    -0.268 OA
HETATM    4  H   UNL     1      -9.090  -0.511 -34.356  1.00  0.00     0.162 HD
ENDROOT
BRANCH   2   5
HETATM    5  C   UNL     1      -7.536  -0.599 -32.883  1.00  0.00     0.136 C 
BRANCH   5   6
HETATM    6  C   UNL     1      -6.433  -0.722 -33.974  1.00  0.00    -0.004 C 
HETATM    7  C   UNL     1      -6.977  -0.109 -35.285  1.00  0.00     0.021 C 
HETATM    8  C   UNL     1      -5.229   0.145 -33.532  1.00  0.00     0.021 C 
BRANCH   6   9
HETATM    9  C   UNL     1      -6.065  -2.194 -34.245  1.00  0.00    -0.046 A 
HETATM   10  C   UNL     1      -4.748  -2.646 -34.063  1.00  0.00     0.027 A 
HETATM   11  C   UNL     1      -4.437  -3.975 -34.317  1.00  0.00     0.116 A 
HETATM   12  N   UNL     1      -5.333  -4.890 -34.733  1.00  0.00    -0.273 NA
HETATM   13  C   UNL     1      -6.598  -4.454 -34.893  1.00  0.00     0.116 A 
HETATM   14  C   UNL     1      -7.005  -3.145 -34.667  1.00  0.00     0.027 A 
ENDBRANCH   6   9
ENDBRANCH   5   6
ENDBRANCH   2   5
BRANCH   1  15
HETATM   15  C   UNL     1     -10.857   1.153 -33.545  1.00  0.00     0.065 A 
HETATM   16  C   UNL     1     -10.833   2.393 -34.208  1.00  0.00     0.026 A 
HETATM   17  C   UNL     1     -11.952   2.868 -34.906  1.00  0.00    -0.061 A 
HETATM   18  C   UNL     1     -11.907   4.181 -35.629  1.00  0.00     0.048 C 
HETATM   19  C   UNL     1     -13.109   2.083 -34.948  1.00  0.00     0.009 A 
HETATM   20  C   UNL     1     -13.149   0.847 -34.300  1.00  0.00     0.038 A 
HETATM   21  C   UNL     1     -12.029   0.382 -33.605  1.00  0.00     0.081 A 
BRANCH  21  22
HETATM   22  O   UNL     1     -12.101  -0.844 -32.994  1.00  0.00    -0.360 OA
HETATM   23  H   UNL     1     -11.704  -1.513 -33.579  1.00  0.00     0.217 HD
ENDBRANCH  21  22
ENDBRANCH   1  15
TORSDOF 5
ENDMDL
MODEL 3
REMARK VINA RESULT:      -8.0      2.194      7.214
REMARK  5 active torsions:
REMARK  status: ('A' for Active; 'I' for Inactive)
REMARK    1  A    between atoms: C_4  and  C_5 
REMARK       I    between atoms: C_5  and  N_6 
REMARK    2  A    between atoms: N_6  and  C_7 
REMARK    3  A    between atoms: C_7  and  C_8 
REMARK    4  A    between atoms: C_8  and  C_9 
REMARK    5  A    between atoms: C_18  and  O_19 
ROOT
HETATM    1  C   UNL     1      -9.709   0.407 -32.915  1.00  0.00     0.254 C 
HETATM    2  N   UNL     1      -8.710  -0.183 -33.651  1.00  0.00    -0.356 N 
HETATM    3  O   UNL     1      -9.697   0.426 -31.687  1.00  0.00    -0.268 OA
HETATM    4  H   UNL     1      -8.726  -0.024 -34.657  1.00  0.00     0.162 HD
ENDROOT
BRANCH   2   5
HETATM    5  C   UNL     1      -7.506  -0.701 -33.031  1.00  0.00     0.136 C 
BRANCH   5   6
HETATM    6  C   UNL     1      -6.306  -0.834 -34.013  1.00  0.00    -0.004 C 
HETATM    7  C   UNL     1      -6.709  -0.192 -35.360  1.00  0.00     0.021 C 
HETATM    8  C   UNL     1      -5.133   0.000 -33.444  1.00  0.00     0.021 C 
BRANCH   6   9
HETATM    9  C   UNL     1      -5.945  -2.310 -34.270  1.00  0.00    -0.046 A 
HETATM   10  C   UNL     1      -4.645  -2.780 -34.023  1.00  0.00     0.027 A 
HETATM   11  C   UNL     1      -4.339  -4.112 -34.265  1.00  0.00     0.116 A 
HETATM   12  N   UNL     1      -5.225  -5.014 -34.730  1.00  0.00    -0.273 NA
HETATM   13  C   UNL     1      -6.474  -4.561 -34.951  1.00  0.00     0.116 A 
HETATM   14  C   UNL     1      -6.874  -3.247 -34.742  1.00  0.00     0.027 A 
ENDBRANCH   6   9
ENDBRANCH   5   6
ENDBRANCH   2   5
BRANCH   1  15
HETATM   15  C   UNL     1     -10.832   1.048 -33.674  1.00  0.00     0.065 A 
HETATM   16  C   UNL     1     -12.109   0.478 -33.526  1.00  0.00     0.026 A 
HETATM   17  C   UNL     1     -13.223   1.001 -34.197  1.00  0.00    -0.061 A 
HETATM   18  C   UNL     1     -14.584   0.398 -34.012  1.00  0.00     0.048 C 
HETATM   19  C   UNL     1     -13.056   2.118 -35.021  1.00  0.00     0.009 A 
HETATM   20  C   UNL     1     -11.797   2.701 -35.176  1.00  0.00     0.038 A 
HETATM   21  C   UNL     1     -10.691   2.172 -34.504  1.00  0.00     0.081 A 
BRANCH  21  22
HETATM   22  O   UNL     1      -9.473   2.781 -34.670  1.00  0.00    -0.360 OA
HETATM   23  H   UNL     1      -9.596   3.601 -35.179  1.00  0.00     0.217 HD
ENDBRANCH  21  22
ENDBRANCH   1  15
TORSDOF 5
ENDMDL
MODEL 4
REMARK VINA RESULT:      -7.7      5.047      7.188
REMARK  5 active torsions:
REMARK  status: ('A' for Active; 'I' for Inactive)
REMARK    1  A    between atoms: C_4  and  C_5 
REMARK       I    between atoms: C_5  and  N_6 
REMARK    2  A    between atoms: N_6  and  C_7 
REMARK    3  A    between atoms: C_7  and  C_8 
REMARK    4  A    between atoms: C_8  and  C_9 
REMARK    5  A    between atoms: C_18  and  O_19 
ROOT
HETATM    1  C   UNL     1      -3.725   1.941 -31.880  1.00  0.00     0.254 C 
HETATM    2  N   UNL     1      -4.692   2.809 -32.329  1.00  0.00    -0.356 N 
HETATM    3  O   UNL     1      -2.776   2.313 -31.196  1.00  0.00    -0.268 OA
HETATM    4  H   UNL     1      -5.516   2.394 -32.762  1.00  0.00     0.162 HD
ENDROOT
BRANCH   2   5
HETATM    5  C   UNL     1      -4.730   4.196 -31.910  1.00  0.00     0.136 C 
BRANCH   5   6
HETATM    6  C   UNL     1      -4.826   5.203 -33.094  1.00  0.00    -0.004 C 
HETATM    7  C   UNL     1      -5.412   4.459 -34.316  1.00  0.00     0.021 C 
HETATM    8  C   UNL     1      -5.841   6.302 -32.701  1.00  0.00     0.021 C 
BRANCH   6   9
HETATM    9  C   UNL     1      -3.440   5.754 -33.483  1.00  0.00    -0.046 A 
HETATM   10  C   UNL     1      -2.632   5.069 -34.405  1.00  0.00     0.027 A 
HETATM   11  C   UNL     1      -1.385   5.580 -34.738  1.00  0.00     0.116 A 
HETATM   12  N   UNL     1      -0.881   6.722 -34.231  1.00  0.00    -0.273 NA
HETATM   13  C   UNL     1      -1.667   7.383 -33.358  1.00  0.00     0.116 A 
HETATM   14  C   UNL     1      -2.926   6.949 -32.961  1.00  0.00     0.027 A 
ENDBRANCH   6   9
ENDBRANCH   5   6
ENDBRANCH   2   5
BRANCH   1  15
HETATM   15  C   UNL     1      -3.877   0.496 -32.251  1.00  0.00     0.065 A 
HETATM   16  C   UNL     1      -4.906   0.175 -33.154  1.00  0.00     0.026 A 
HETATM   17  C   UNL     1      -5.133  -1.148 -33.560  1.00  0.00    -0.061 A 
HETATM   18  C   UNL     1      -6.218  -1.474 -34.541  1.00  0.00     0.048 C 
HETATM   19  C   UNL     1      -4.309  -2.161 -33.061  1.00  0.00     0.009 A 
HETATM   20  C   UNL     1      -3.279  -1.861 -32.168  1.00  0.00     0.038 A 
HETATM   21  C   UNL     1      -3.061  -0.539 -31.767  1.00  0.00     0.081 A 
BRANCH  21  22
HETATM   22  O   UNL     1      -2.030  -0.281 -30.900  1.00  0.00    -0.360 OA
HETATM   23  H   UNL     1      -2.301  -0.538 -30.001  1.00  0.00     0.217 HD
ENDBRANCH  21  22
ENDBRANCH   1  15
TORSDOF 5
ENDMDL
MODEL 5
REMARK VINA RESULT:      -7.7      3.926      5.767
REMARK  5 active torsions:
REMARK  status: ('A' for Active; 'I' for Inactive)
REMARK    1  A    between atoms: C_4  and  C_5 
REMARK       I    between atoms: C_5  and  N_6 
REMARK    2  A    between atoms: N_6  and  C_7 
REMARK    3  A    between atoms: C_7  and  C_8 
REMARK    4  A    between atoms: C_8  and  C_9 
REMARK    5  A    between atoms: C_18  and  O_19 
ROOT
HETATM    1  C   UNL     1      -6.156   0.389 -34.091  1.00  0.00     0.254 C 
HETATM    2  N   UNL     1      -5.992   1.129 -32.946  1.00  0.00    -0.356 N 
HETATM    3  O   UNL     1      -6.728   0.832 -35.083  1.00  0.00    -0.268 OA
HETATM    4  H   UNL     1      -5.381   0.739 -32.230  1.00  0.00     0.162 HD
ENDROOT
BRANCH   2   5
HETATM    5  C   UNL     1      -6.362   2.529 -32.879  1.00  0.00     0.136 C 
BRANCH   5   6
HETATM    6  C   UNL     1      -5.317   3.417 -32.143  1.00  0.00    -0.004 C 
HETATM    7  C   UNL     1      -6.072   4.558 -31.422  1.00  0.00     0.021 C 
HETATM    8  C   UNL     1      -4.647   2.553 -31.048  1.00  0.00     0.021 C 
BRANCH   6   9
HETATM    9  C   UNL     1      -4.315   4.048 -33.129  1.00  0.00    -0.046 A 
HETATM   10  C   UNL     1      -4.767   4.688 -34.295  1.00  0.00     0.027 A 
HETATM   11  C   UNL     1      -3.847   5.246 -35.173  1.00  0.00     0.116 A 
HETATM   12  N   UNL     1      -2.515   5.223 -34.979  1.00  0.00    -0.273 NA
HETATM   13  C   UNL     1      -2.087   4.622 -33.852  1.00  0.00     0.116 A 
HETATM   14  C   UNL     1      -2.929   4.032 -32.917  1.00  0.00     0.027 A 
ENDBRANCH   6   9
ENDBRANCH   5   6
ENDBRANCH   2   5
BRANCH   1  15
HETATM   15  C   UNL     1      -5.592  -1.001 -34.096  1.00  0.00     0.065 A 
HETATM   16  C   UNL     1      -6.385  -2.007 -34.676  1.00  0.00     0.026 A 
HETATM   17  C   UNL     1      -5.950  -3.340 -34.725  1.00  0.00    -0.061 A 
HETATM   18  C   UNL     1      -6.794  -4.400 -35.367  1.00  0.00     0.048 C 
HETATM   19  C   UNL     1      -4.698  -3.665 -34.195  1.00  0.00     0.009 A 
HETATM   20  C   UNL     1      -3.895  -2.678 -33.620  1.00  0.00     0.038 A 
HETATM   21  C   UNL     1      -4.337  -1.352 -33.573  1.00  0.00     0.081 A 
BRANCH  21  22
HETATM   22  O   UNL     1      -3.514  -0.407 -33.015  1.00  0.00    -0.360 OA
HETATM   23  H   UNL     1      -3.078   0.092 -33.727  1.00  0.00     0.217 HD
ENDBRANCH  21  22
ENDBRANCH   1  15
TORSDOF 5
ENDMDL
MODEL 6
REMARK VINA RESULT:      -7.6      4.765      7.417
REMARK  5 active torsions:
REMARK  status: ('A' for Active; 'I' for Inactive)
REMARK    1  A    between atoms: C_4  and  C_5 
REMARK       I    between atoms: C_5  and  N_6 
REMARK    2  A    between atoms: N_6  and  C_7 
REMARK    3  A    between atoms: C_7  and  C_8 
REMARK    4  A    between atoms: C_8  and  C_9 
REMARK    5  A    between atoms: C_18  and  O_19 
ROOT
HETATM    1  C   UNL     1      -4.548   3.703 -33.361  1.00  0.00     0.254 C 
HETATM    2  N   UNL     1      -4.546   2.632 -32.500  1.00  0.00    -0.356 N 
HETATM    3  O   UNL     1      -5.494   3.944 -34.106  1.00  0.00    -0.268 OA
HETATM    4  H   UNL     1      -3.790   2.593 -31.818  1.00  0.00     0.162 HD
ENDROOT
BRANCH   2   5
HETATM    5  C   UNL     1      -5.716   1.796 -32.315  1.00  0.00     0.136 C 
BRANCH   5   6
HETATM    6  C   UNL     1      -5.389   0.380 -31.756  1.00  0.00    -0.004 C 
HETATM    7  C   UNL     1      -3.946   0.400 -31.201  1.00  0.00     0.021 C 
HETATM    8  C   UNL     1      -6.333   0.112 -30.560  1.00  0.00     0.021 C 
BRANCH   6   9
HETATM    9  C   UNL     1      -5.468  -0.696 -32.857  1.00  0.00    -0.046 A 
HETATM   10  C   UNL     1      -4.369  -1.529 -33.121  1.00  0.00     0.027 A 
HETATM   11  C   UNL     1      -4.459  -2.489 -34.120  1.00  0.00     0.116 A 
HETATM   12  N   UNL     1      -5.558  -2.688 -34.873  1.00  0.00    -0.273 NA
HETATM   13  C   UNL     1      -6.614  -1.896 -34.606  1.00  0.00     0.116 A 
HETATM   14  C   UNL     1      -6.618  -0.907 -33.630  1.00  0.00     0.027 A 
ENDBRANCH   6   9
ENDBRANCH   5   6
ENDBRANCH   2   5
BRANCH   1  15
HETATM   15  C   UNL     1      -3.340   4.591 -33.353  1.00  0.00     0.065 A 
HETATM   16  C   UNL     1      -2.507   4.522 -32.222  1.00  0.00     0.026 A 
HETATM   17  C   UNL     1      -1.355   5.314 -32.115  1.00  0.00    -0.061 A 
HETATM   18  C   UNL     1      -0.463   5.215 -30.915  1.00  0.00     0.048 C 
HETATM   19  C   UNL     1      -1.029   6.181 -33.163  1.00  0.00     0.009 A 
HETATM   20  C   UNL     1      -1.841   6.259 -34.296  1.00  0.00     0.038 A 
HETATM   21  C   UNL     1      -2.988   5.466 -34.393  1.00  0.00     0.081 A 
BRANCH  21  22
HETATM   22  O   UNL     1      -3.753   5.559 -35.528  1.00  0.00    -0.360 OA
HETATM   23  H   UNL     1      -3.728   6.477 -35.852  1.00  0.00     0.217 HD
ENDBRANCH  21  22
ENDBRANCH   1  15
TORSDOF 5
ENDMDL
MODEL 7
REMARK VINA RESULT:      -7.6      1.577      2.853
REMARK  5 active torsions:
REMARK  status: ('A' for Active; 'I' for Inactive)
REMARK    1  A    between atoms: C_4  and  C_5 
REMARK       I    between atoms: C_5  and  N_6 
REMARK    2  A    between atoms: N_6  and  C_7 
REMARK    3  A    between atoms: C_7  and  C_8 
REMARK    4  A    between atoms: C_8  and  C_9 
REMARK    5  A    between atoms: C_18  and  O_19 
ROOT
HETATM    1  C   UNL     1      -6.924   0.324 -34.244  1.00  0.00     0.254 C 
HETATM    2  N   UNL     1      -8.260   0.176 -34.527  1.00  0.00    -0.356 N 
HETATM    3  O   UNL     1      -6.416   1.421 -34.026  1.00  0.00    -0.268 OA
HETATM    4  H   UNL     1      -8.622  -0.776 -34.548  1.00  0.00     0.162 HD
ENDROOT
BRANCH   2   5
HETATM    5  C   UNL     1      -9.186   1.289 -34.455  1.00  0.00     0.136 C 
BRANCH   5   6
HETATM    6  C   UNL     1     -10.188   1.191 -33.267  1.00  0.00    -0.004 C 
HETATM    7  C   UNL     1     -11.617   1.385 -33.822  1.00  0.00     0.021 C 
HETATM    8  C   UNL     1     -10.111  -0.247 -32.699  1.00  0.00     0.021 C 
BRANCH   6   9
HETATM    9  C   UNL     1      -9.926   2.284 -32.213  1.00  0.00    -0.046 A 
HETATM   10  C   UNL     1     -10.760   3.411 -32.130  1.00  0.00     0.027 A 
HETATM   11  C   UNL     1     -10.505   4.386 -31.177  1.00  0.00     0.116 A 
HETATM   12  N   UNL     1      -9.488   4.327 -30.295  1.00  0.00    -0.273 NA
HETATM   13  C   UNL     1      -8.700   3.237 -30.369  1.00  0.00     0.116 A 
HETATM   14  C   UNL     1      -8.873   2.212 -31.290  1.00  0.00     0.027 A 
ENDBRANCH   6   9
ENDBRANCH   5   6
ENDBRANCH   2   5
BRANCH   1  15
HETATM   15  C   UNL     1      -6.091  -0.922 -34.195  1.00  0.00     0.065 A 
HETATM   16  C   UNL     1      -6.640  -2.077 -34.782  1.00  0.00     0.026 A 
HETATM   17  C   UNL     1      -5.943  -3.294 -34.785  1.00  0.00    -0.061 A 
HETATM   18  C   UNL     1      -6.528  -4.512 -35.435  1.00  0.00     0.048 C 
HETATM   19  C   UNL     1      -4.675  -3.351 -34.200  1.00  0.00     0.009 A 
HETATM   20  C   UNL     1      -4.112  -2.213 -33.618  1.00  0.00     0.038 A 
HETATM   21  C   UNL     1      -4.814  -1.004 -33.618  1.00  0.00     0.081 A 
BRANCH  21  22
HETATM   22  O   UNL     1      -4.223   0.095 -33.050  1.00  0.00    -0.360 OA
HETATM   23  H   UNL     1      -3.289  -0.108 -32.866  1.00  0.00     0.217 HD
ENDBRANCH  21  22
ENDBRANCH   1  15
TORSDOF 5
ENDMDL
MODEL 8
REMARK VINA RESULT:      -7.5      4.786      7.128
REMARK  5 active torsions:
REMARK  status: ('A' for Active; 'I' for Inactive)
REMARK    1  A    between atoms: C_4  and  C_5 
REMARK       I    between atoms: C_5  and  N_6 
REMARK    2  A    between atoms: N_6  and  C_7 
REMARK    3  A    between atoms: C_7  and  C_8 
REMARK    4  A    between atoms: C_8  and  C_9 
REMARK    5  A    between atoms: C_18  and  O_19 
ROOT
HETATM    1  C   UNL     1      -3.954   0.408 -32.098  1.00  0.00     0.254 C 
HETATM    2  N   UNL     1      -3.721   1.655 -32.626  1.00  0.00    -0.356 N 
HETATM    3  O   UNL     1      -3.682   0.127 -30.934  1.00  0.00    -0.268 OA
HETATM    4  H   UNL     1      -4.110   1.843 -33.549  1.00  0.00     0.162 HD
ENDROOT
BRANCH   2   5
HETATM    5  C   UNL     1      -3.264   2.760 -31.807  1.00  0.00     0.136 C 
BRANCH   5   6
HETATM    6  C   UNL     1      -3.916   4.124 -32.180  1.00  0.00    -0.004 C 
HETATM    7  C   UNL     1      -5.113   3.848 -33.119  1.00  0.00     0.021 C 
HETATM    8  C   UNL     1      -4.490   4.745 -30.884  1.00  0.00     0.021 C 
BRANCH   6   9
HETATM    9  C   UNL     1      -2.925   5.044 -32.918  1.00  0.00    -0.046 A 
HETATM   10  C   UNL     1      -2.715   6.363 -32.483  1.00  0.00     0.027 A 
HETATM   11  C   UNL     1      -1.821   7.177 -33.165  1.00  0.00     0.116 A 
HETATM   12  N   UNL     1      -1.115   6.781 -34.242  1.00  0.00    -0.273 NA
HETATM   13  C   UNL     1      -1.309   5.511 -34.645  1.00  0.00     0.116 A 
HETATM   14  C   UNL     1      -2.184   4.623 -34.031  1.00  0.00     0.027 A 
ENDBRANCH   6   9
ENDBRANCH   5   6
ENDBRANCH   2   5
BRANCH   1  15
HETATM   15  C   UNL     1      -4.576  -0.614 -33.002  1.00  0.00     0.065 A 
HETATM   16  C   UNL     1      -3.950  -1.872 -33.065  1.00  0.00     0.026 A 
HETATM   17  C   UNL     1      -4.451  -2.894 -33.884  1.00  0.00    -0.061 A 
HETATM   18  C   UNL     1      -3.789  -4.239 -33.925  1.00  0.00     0.048 C 
HETATM   19  C   UNL     1      -5.600  -2.654 -34.643  1.00  0.00     0.009 A 
HETATM   20  C   UNL     1      -6.238  -1.413 -34.589  1.00  0.00     0.038 A 
HETATM   21  C   UNL     1      -5.731  -0.399 -33.771  1.00  0.00     0.081 A 
BRANCH  21  22
HETATM   22  O   UNL     1      -6.393   0.802 -33.732  1.00  0.00    -0.360 OA
HETATM   23  H   UNL     1      -6.580   1.030 -32.804  1.00  0.00     0.217 HD
ENDBRANCH  21  22
ENDBRANCH   1  15
TORSDOF 5
ENDMDL
MODEL 9
REMARK VINA RESULT:      -7.4      2.541      3.659
REMARK  5 active torsions:
REMARK  status: ('A' for Active; 'I' for Inactive)
REMARK    1  A    between atoms: C_4  and  C_5 
REMARK       I    between atoms: C_5  and  N_6 
REMARK    2  A    between atoms: N_6  and  C_7 
REMARK    3  A    between atoms: C_7  and  C_8 
REMARK    4  A    between atoms: C_8  and  C_9 
REMARK    5  A    between atoms: C_18  and  O_19 
ROOT
HETATM    1  C   UNL     1      -3.770  -0.914 -32.287  1.00  0.00     0.254 C 
HETATM    2  N   UNL     1      -4.673   0.034 -32.703  1.00  0.00    -0.356 N 
HETATM    3  O   UNL     1      -2.870  -0.660 -31.491  1.00  0.00    -0.268 OA
HETATM    4  H   UNL     1      -5.469  -0.297 -33.246  1.00  0.00     0.162 HD
ENDROOT
BRANCH   2   5
HETATM    5  C   UNL     1      -4.708   1.363 -32.126  1.00  0.00     0.136 C 
BRANCH   5   6
HETATM    6  C   UNL     1      -6.037   1.686 -31.383  1.00  0.00    -0.004 C 
HETATM    7  C   UNL     1      -6.108   0.805 -30.114  1.00  0.00     0.021 C 
HETATM    8  C   UNL     1      -5.971   3.158 -30.911  1.00  0.00     0.021 C 
BRANCH   6   9
HETATM    9  C   UNL     1      -7.266   1.373 -32.257  1.00  0.00    -0.046 A 
HETATM   10  C   UNL     1      -7.485   2.069 -33.458  1.00  0.00     0.027 A 
HETATM   11  C   UNL     1      -8.601   1.776 -34.229  1.00  0.00     0.116 A 
HETATM   12  N   UNL     1      -9.514   0.841 -33.903  1.00  0.00    -0.273 NA
HETATM   13  C   UNL     1      -9.292   0.166 -32.759  1.00  0.00     0.116 A 
HETATM   14  C   UNL     1      -8.208   0.391 -31.920  1.00  0.00     0.027 A 
ENDBRANCH   6   9
ENDBRANCH   5   6
ENDBRANCH   2   5
BRANCH   1  15
HETATM   15  C   UNL     1      -3.928  -2.300 -32.839  1.00  0.00     0.065 A 
HETATM   16  C   UNL     1      -4.841  -2.463 -33.896  1.00  0.00     0.026 A 
HETATM   17  C   UNL     1      -5.065  -3.719 -34.478  1.00  0.00    -0.061 A 
HETATM   18  C   UNL     1      -6.023  -3.877 -35.621  1.00  0.00     0.048 C 
HETATM   19  C   UNL     1      -4.356  -4.825 -33.999  1.00  0.00     0.009 A 
HETATM   20  C   UNL     1      -3.442  -4.681 -32.953  1.00  0.00     0.038 A 
HETATM   21  C   UNL     1      -3.226  -3.425 -32.378  1.00  0.00     0.081 A 
BRANCH  21  22
HETATM   22  O   UNL     1      -2.310  -3.320 -31.363  1.00  0.00    -0.360 OA
HETATM   23  H   UNL     1      -2.496  -4.005 -30.697  1.00  0.00     0.217 HD
ENDBRANCH  21  22
ENDBRANCH   1  15
TORSDOF 5
ENDMDL
MODEL 10
REMARK VINA RESULT:      -7.3      4.599      7.287
REMARK  5 active torsions:
REMARK  status: ('A' for Active; 'I' for Inactive)
REMARK    1  A    between atoms: C_4  and  C_5 
REMARK       I    between atoms: C_5  and  N_6 
REMARK    2  A    between atoms: N_6  and  C_7 
REMARK    3  A    between atoms: C_7  and  C_8 
REMARK    4  A    between atoms: C_8  and  C_9 
REMARK    5  A    between atoms: C_18  and  O_19 
ROOT
HETATM    1  C   UNL     1      -3.710   2.621 -31.629  1.00  0.00     0.254 C 
HETATM    2  N   UNL     1      -5.068   2.426 -31.709  1.00  0.00    -0.356 N 
HETATM    3  O   UNL     1      -2.938   1.726 -31.297  1.00  0.00    -0.268 OA
HETATM    4  H   UNL     1      -5.615   3.175 -32.132  1.00  0.00     0.162 HD
ENDROOT
BRANCH   2   5
HETATM    5  C   UNL     1      -5.666   1.117 -31.538  1.00  0.00     0.136 C 
BRANCH   5   6
HETATM    6  C   UNL     1      -6.441   0.616 -32.793  1.00  0.00    -0.004 C 
HETATM    7  C   UNL     1      -7.899   0.320 -32.374  1.00  0.00     0.021 C 
HETATM    8  C   UNL     1      -6.488   1.777 -33.815  1.00  0.00     0.021 C 
BRANCH   6   9
HETATM    9  C   UNL     1      -5.828  -0.679 -33.358  1.00  0.00    -0.046 A 
HETATM   10  C   UNL     1      -4.611  -1.171 -32.858  1.00  0.00     0.027 A 
HETATM   11  C   UNL     1      -4.073  -2.338 -33.385  1.00  0.00     0.116 A 
HETATM   12  N   UNL     1      -4.653  -3.056 -34.365  1.00  0.00    -0.273 NA
HETATM   13  C   UNL     1      -5.828  -2.588 -34.831  1.00  0.00     0.116 A 
HETATM   14  C   UNL     1      -6.441  -1.430 -34.371  1.00  0.00     0.027 A 
ENDBRANCH   6   9
ENDBRANCH   5   6
ENDBRANCH   2   5
BRANCH   1  15
HETATM   15  C   UNL     1      -3.192   3.983 -31.980  1.00  0.00     0.065 A 
HETATM   16  C   UNL     1      -2.443   4.093 -33.165  1.00  0.00     0.026 A 
HETATM   17  C   UNL     1      -1.910   5.323 -33.578  1.00  0.00    -0.061 A 
HETATM   18  C   UNL     1      -1.133   5.432 -34.856  1.00  0.00     0.048 C 
HETATM   19  C   UNL     1      -2.140   6.459 -32.798  1.00  0.00     0.009 A 
HETATM   20  C   UNL     1      -2.886   6.370 -31.621  1.00  0.00     0.038 A 
HETATM   21  C   UNL     1      -3.412   5.140 -31.215  1.00  0.00     0.081 A 
BRANCH  21  22
HETATM   22  O   UNL     1      -4.153   5.094 -30.061  1.00  0.00    -0.360 OA
HETATM   23  H   UNL     1      -3.584   5.343 -29.311  1.00  0.00     0.217 HD
ENDBRANCH  21  22
ENDBRANCH   1  15
TORSDOF 5
ENDMDL
