MODEL 1
REMARK VINA RESULT:      -7.9      0.000      0.000
REMARK  7 active torsions:
REMARK  status: ('A' for Active; 'I' for Inactive)
REMARK    1  A    between atoms: C_2  and  C_3 
REMARK    2  A    between atoms: C_3  and  N_4 
REMARK    3  A    between atoms: C_3  and  C_20 
REMARK       I    between atoms: N_4  and  C_5 
REMARK       I    between atoms: C_5  and  N_6 
REMARK    4  A    between atoms: N_6  and  C_7 
REMARK    5  A    between atoms: C_7  and  C_8 
REMARK    6  A    between atoms: C_10  and  O_11 
REMARK    7  A    between atoms: O_11  and  C_12 
ROOT
HETATM    1  N   UNL     1      -5.475   1.493 -32.233  1.00  0.00    -0.334 N 
HETATM    2  C   UNL     1      -5.681   2.613 -32.970  1.00  0.00     0.316 C 
HETATM    3  N   UNL     1      -4.653   3.490 -33.045  1.00  0.00    -0.339 N 
HETATM    4  O   UNL     1      -6.731   2.868 -33.552  1.00  0.00    -0.247 OA
HETATM    5  H   UNL     1      -4.643   1.417 -31.675  1.00  0.00     0.165 HD
HETATM    6  H   UNL     1      -4.887   4.311 -33.588  1.00  0.00     0.164 HD
ENDROOT
BRANCH   3   7
HETATM    7  C   UNL     1      -3.281   3.351 -32.609  1.00  0.00     0.163 C 
BRANCH   7   8
HETATM    8  C   UNL     1      -2.422   4.568 -32.839  1.00  0.00    -0.035 A 
HETATM    9  C   UNL     1      -1.398   4.964 -31.972  1.00  0.00     0.066 A 
HETATM   10  C   UNL     1      -0.698   6.130 -32.253  1.00  0.00     0.164 A 
HETATM   11  N   UNL     1      -0.926   6.907 -33.331  1.00  0.00    -0.237 NA
HETATM   12  C   UNL     1      -1.905   6.505 -34.164  1.00  0.00     0.120 A 
HETATM   13  C   UNL     1      -2.668   5.364 -33.964  1.00  0.00     0.028 A 
BRANCH  10  14
HETATM   14  O   UNL     1       0.283   6.497 -31.352  1.00  0.00    -0.329 OA
BRANCH  14  15
HETATM   15  C   UNL     1      -0.096   6.464 -29.958  1.00  0.00     0.130 C 
HETATM   16  C   UNL     1       0.669   5.462 -29.051  1.00  0.00     0.032 C 
HETATM   17  C   UNL     1       0.676   6.548 -27.961  1.00  0.00     0.005 C 
HETATM   18  C   UNL     1       0.526   7.586 -29.086  1.00  0.00     0.032 C 
ENDBRANCH  14  15
ENDBRANCH  10  14
ENDBRANCH   7   8
ENDBRANCH   3   7
BRANCH   1  19
HETATM   19  C   UNL     1      -6.453   0.418 -32.156  1.00  0.00     0.119 C 
BRANCH  19  20
HETATM   20  C   UNL     1      -6.646  -0.055 -30.705  1.00  0.00     0.025 C 
HETATM   21  C   UNL     1      -5.769   0.713 -29.724  1.00  0.00     0.007 C 
ENDBRANCH  19  20
BRANCH  19  22
HETATM   22  C   UNL     1      -6.032  -0.735 -33.051  1.00  0.00    -0.033 A 
HETATM   23  C   UNL     1      -4.693  -1.142 -33.087  1.00  0.00     0.028 A 
HETATM   24  C   UNL     1      -4.332  -2.186 -33.924  1.00  0.00     0.116 A 
HETATM   25  N   UNL     1      -5.199  -2.849 -34.717  1.00  0.00    -0.273 NA
HETATM   26  C   UNL     1      -6.488  -2.451 -34.666  1.00  0.00     0.116 A 
HETATM   27  C   UNL     1      -6.946  -1.415 -33.865  1.00  0.00     0.028 A 
ENDBRANCH  19  22
ENDBRANCH   1  19
TORSDOF 7
ENDMDL
MODEL 2
REMARK VINA RESULT:      -7.6      2.062      3.120
REMARK  7 active torsions:
REMARK  status: ('A' for Active; 'I' for Inactive)
REMARK    1  A    between atoms: C_2  and  C_3 
REMARK    2  A    between atoms: C_3  and  N_4 
REMARK    3  A    between atoms: C_3  and  C_20 
REMARK       I    between atoms: N_4  and  C_5 
REMARK       I    between atoms: C_5  and  N_6 
REMARK    4  A    between atoms: N_6  and  C_7 
REMARK    5  A    between atoms: C_7  and  C_8 
REMARK    6  A    between atoms: C_10  and  O_11 
REMARK    7  A    between atoms: O_11  and  C_12 
ROOT
HETATM    1  N   UNL     1      -5.005  -0.277 -33.420  1.00  0.00    -0.334 N 
HETATM    2  C   UNL     1      -5.374  -0.168 -32.119  1.00  0.00     0.316 C 
HETATM    3  N   UNL     1      -4.550   0.540 -31.310  1.00  0.00    -0.339 N 
HETATM    4  O   UNL     1      -6.389  -0.673 -31.649  1.00  0.00    -0.247 OA
HETATM    5  H   UNL     1      -4.096   0.045 -33.703  1.00  0.00     0.165 HD
HETATM    6  H   UNL     1      -4.875   0.558 -30.352  1.00  0.00     0.164 HD
ENDROOT
BRANCH   3   7
HETATM    7  C   UNL     1      -3.410   1.366 -31.641  1.00  0.00     0.163 C 
BRANCH   7   8
HETATM    8  C   UNL     1      -3.666   2.849 -31.564  1.00  0.00    -0.035 A 
HETATM    9  C   UNL     1      -2.672   3.815 -31.758  1.00  0.00     0.066 A 
HETATM   10  C   UNL     1      -3.005   5.154 -31.616  1.00  0.00     0.164 A 
HETATM   11  N   UNL     1      -4.244   5.599 -31.322  1.00  0.00    -0.237 NA
HETATM   12  C   UNL     1      -5.194   4.659 -31.154  1.00  0.00     0.120 A 
HETATM   13  C   UNL     1      -4.958   3.296 -31.261  1.00  0.00     0.028 A 
BRANCH  10  14
HETATM   14  O   UNL     1      -1.984   6.070 -31.786  1.00  0.00    -0.329 OA
BRANCH  14  15
HETATM   15  C   UNL     1      -0.854   5.925 -30.898  1.00  0.00     0.130 C 
HETATM   16  C   UNL     1       0.393   6.798 -31.207  1.00  0.00     0.032 C 
HETATM   17  C   UNL     1       0.540   7.019 -29.692  1.00  0.00     0.005 C 
HETATM   18  C   UNL     1      -0.964   6.718 -29.569  1.00  0.00     0.032 C 
ENDBRANCH  14  15
ENDBRANCH  10  14
ENDBRANCH   7   8
ENDBRANCH   3   7
BRANCH   1  19
HETATM   19  C   UNL     1      -5.849  -0.915 -34.419  1.00  0.00     0.119 C 
BRANCH  19  20
HETATM   20  C   UNL     1      -7.338  -0.637 -34.149  1.00  0.00     0.025 C 
HETATM   21  C   UNL     1      -7.901   0.440 -35.066  1.00  0.00     0.007 C 
ENDBRANCH  19  20
BRANCH  19  22
HETATM   22  C   UNL     1      -5.574  -2.409 -34.457  1.00  0.00    -0.033 A 
HETATM   23  C   UNL     1      -6.572  -3.294 -34.881  1.00  0.00     0.028 A 
HETATM   24  C   UNL     1      -6.301  -4.654 -34.891  1.00  0.00     0.116 A 
HETATM   25  N   UNL     1      -5.120  -5.189 -34.516  1.00  0.00    -0.273 NA
HETATM   26  C   UNL     1      -4.166  -4.322 -34.118  1.00  0.00     0.116 A 
HETATM   27  C   UNL     1      -4.341  -2.947 -34.068  1.00  0.00     0.028 A 
ENDBRANCH  19  22
ENDBRANCH   1  19
TORSDOF 7
ENDMDL
MODEL 3
REMARK VINA RESULT:      -7.3      2.435      3.393
REMARK  7 active torsions:
REMARK  status: ('A' for Active; 'I' for Inactive)
REMARK    1  A    between atoms: C_2  and  C_3 
REMARK    2  A    between atoms: C_3  and  N_4 
REMARK    3  A    between atoms: C_3  and  C_20 
REMARK       I    between atoms: N_4  and  C_5 
REMARK       I    between atoms: C_5  and  N_6 
REMARK    4  A    between atoms: N_6  and  C_7 
REMARK    5  A    between atoms: C_7  and  C_8 
REMARK    6  A    between atoms: C_10  and  O_11 
REMARK    7  A    between atoms: O_11  and  C_12 
ROOT
HETATM    1  N   UNL     1      -6.522   1.370 -32.907  1.00  0.00    -0.334 N 
HETATM    2  C   UNL     1      -5.838   1.870 -31.848  1.00  0.00     0.316 C 
HETATM    3  N   UNL     1      -5.004   2.907 -32.097  1.00  0.00    -0.339 N 
HETATM    4  O   UNL     1      -5.928   1.434 -30.704  1.00  0.00    -0.247 OA
HETATM    5  H   UNL     1      -6.296   1.686 -33.834  1.00  0.00     0.165 HD
HETATM    6  H   UNL     1      -4.509   3.211 -31.268  1.00  0.00     0.164 HD
ENDROOT
BRANCH   3   7
HETATM    7  C   UNL     1      -4.847   3.706 -33.293  1.00  0.00     0.163 C 
BRANCH   7   8
HETATM    8  C   UNL     1      -3.549   4.467 -33.375  1.00  0.00    -0.035 A 
HETATM    9  C   UNL     1      -2.479   4.265 -32.496  1.00  0.00     0.066 A 
HETATM   10  C   UNL     1      -1.346   5.056 -32.631  1.00  0.00     0.164 A 
HETATM   11  N   UNL     1      -1.193   6.004 -33.578  1.00  0.00    -0.237 NA
HETATM   12  C   UNL     1      -2.226   6.176 -34.426  1.00  0.00     0.120 A 
HETATM   13  C   UNL     1      -3.404   5.447 -34.365  1.00  0.00     0.028 A 
BRANCH  10  14
HETATM   14  O   UNL     1      -0.328   4.842 -31.722  1.00  0.00    -0.329 OA
BRANCH  14  15
HETATM   15  C   UNL     1      -0.488   5.480 -30.435  1.00  0.00     0.130 C 
HETATM   16  C   UNL     1       0.627   5.222 -29.385  1.00  0.00     0.032 C 
HETATM   17  C   UNL     1       0.508   6.702 -28.983  1.00  0.00     0.005 C 
HETATM   18  C   UNL     1      -0.058   6.970 -30.389  1.00  0.00     0.032 C 
ENDBRANCH  14  15
ENDBRANCH  10  14
ENDBRANCH   7   8
ENDBRANCH   3   7
BRANCH   1  19
HETATM   19  C   UNL     1      -7.530   0.331 -32.764  1.00  0.00     0.119 C 
BRANCH  19  20
HETATM   20  C   UNL     1      -7.137  -0.935 -33.546  1.00  0.00     0.025 C 
HETATM   21  C   UNL     1      -6.811  -0.637 -35.004  1.00  0.00     0.007 C 
ENDBRANCH  19  20
BRANCH  19  22
HETATM   22  C   UNL     1      -8.884   0.850 -33.218  1.00  0.00    -0.033 A 
HETATM   23  C   UNL     1     -10.040   0.100 -32.973  1.00  0.00     0.028 A 
HETATM   24  C   UNL     1     -11.261   0.588 -33.411  1.00  0.00     0.116 A 
HETATM   25  N   UNL     1     -11.412   1.759 -34.066  1.00  0.00    -0.273 NA
HETATM   26  C   UNL     1     -10.289   2.475 -34.287  1.00  0.00     0.116 A 
HETATM   27  C   UNL     1      -9.023   2.069 -33.892  1.00  0.00     0.028 A 
ENDBRANCH  19  22
ENDBRANCH   1  19
TORSDOF 7
ENDMDL
MODEL 4
REMARK VINA RESULT:      -7.2      3.172      4.661
REMARK  7 active torsions:
REMARK  status: ('A' for Active; 'I' for Inactive)
REMARK    1  A    between atoms: C_2  and  C_3 
REMARK    2  A    between atoms: C_3  and  N_4 
REMARK    3  A    between atoms: C_3  and  C_20 
REMARK       I    between atoms: N_4  and  C_5 
REMARK       I    between atoms: C_5  and  N_6 
REMARK    4  A    between atoms: N_6  and  C_7 
REMARK    5  A    between atoms: C_7  and  C_8 
REMARK    6  A    between atoms: C_10  and  O_11 
REMARK    7  A    between atoms: O_11  and  C_12 
ROOT
HETATM    1  N   UNL     1      -5.539   0.922 -31.186  1.00  0.00    -0.334 N 
HETATM    2  C   UNL     1      -5.934   1.049 -29.895  1.00  0.00     0.316 C 
HETATM    3  N   UNL     1      -6.867   1.994 -29.632  1.00  0.00    -0.339 N 
HETATM    4  O   UNL     1      -5.491   0.370 -28.972  1.00  0.00    -0.247 OA
HETATM    5  H   UNL     1      -5.842   1.602 -31.862  1.00  0.00     0.165 HD
HETATM    6  H   UNL     1      -7.094   2.048 -28.648  1.00  0.00     0.164 HD
ENDROOT
BRANCH   3   7
HETATM    7  C   UNL     1      -7.662   2.789 -30.542  1.00  0.00     0.163 C 
BRANCH   7   8
HETATM    8  C   UNL     1      -7.093   4.152 -30.846  1.00  0.00    -0.035 A 
HETATM    9  C   UNL     1      -6.500   4.484 -32.069  1.00  0.00     0.066 A 
HETATM   10  C   UNL     1      -5.963   5.755 -32.228  1.00  0.00     0.164 A 
HETATM   11  N   UNL     1      -5.993   6.712 -31.279  1.00  0.00    -0.237 NA
HETATM   12  C   UNL     1      -6.581   6.382 -30.113  1.00  0.00     0.120 A 
HETATM   13  C   UNL     1      -7.134   5.137 -29.852  1.00  0.00     0.028 A 
BRANCH  10  14
HETATM   14  O   UNL     1      -5.361   6.027 -33.441  1.00  0.00    -0.329 OA
BRANCH  14  15
HETATM   15  C   UNL     1      -4.227   5.198 -33.782  1.00  0.00     0.130 C 
HETATM   16  C   UNL     1      -3.779   5.207 -35.269  1.00  0.00     0.032 C 
HETATM   17  C   UNL     1      -2.324   5.203 -34.767  1.00  0.00     0.005 C 
HETATM   18  C   UNL     1      -2.844   5.820 -33.457  1.00  0.00     0.032 C 
ENDBRANCH  14  15
ENDBRANCH  10  14
ENDBRANCH   7   8
ENDBRANCH   3   7
BRANCH   1  19
HETATM   19  C   UNL     1      -4.626  -0.122 -31.625  1.00  0.00     0.119 C 
BRANCH  19  20
HETATM   20  C   UNL     1      -3.282   0.471 -32.083  1.00  0.00     0.025 C 
HETATM   21  C   UNL     1      -3.349   1.981 -32.268  1.00  0.00     0.007 C 
ENDBRANCH  19  20
BRANCH  19  22
HETATM   22  C   UNL     1      -5.264  -0.940 -32.735  1.00  0.00    -0.033 A 
HETATM   23  C   UNL     1      -6.616  -0.762 -33.048  1.00  0.00     0.028 A 
HETATM   24  C   UNL     1      -7.179  -1.532 -34.054  1.00  0.00     0.116 A 
HETATM   25  N   UNL     1      -6.498  -2.456 -34.764  1.00  0.00    -0.273 NA
HETATM   26  C   UNL     1      -5.193  -2.611 -34.456  1.00  0.00     0.116 A 
HETATM   27  C   UNL     1      -4.542  -1.893 -33.465  1.00  0.00     0.028 A 
ENDBRANCH  19  22
ENDBRANCH   1  19
TORSDOF 7
ENDMDL
MODEL 5
REMARK VINA RESULT:      -7.2      4.345      6.368
REMARK  7 active torsions:
REMARK  status: ('A' for Active; 'I' for Inactive)
REMARK    1  A    between atoms: C_2  and  C_3 
REMARK    2  A    between atoms: C_3  and  N_4 
REMARK    3  A    between atoms: C_3  and  C_20 
REMARK       I    between atoms: N_4  and  C_5 
REMARK       I    between atoms: C_5  and  N_6 
REMARK    4  A    between atoms: N_6  and  C_7 
REMARK    5  A    between atoms: C_7  and  C_8 
REMARK    6  A    between atoms: C_10  and  O_11 
REMARK    7  A    between atoms: O_11  and  C_12 
ROOT
HETATM    1  N   UNL     1      -7.697  -0.821 -34.297  1.00  0.00    -0.334 N 
HETATM    2  C   UNL     1      -7.832   0.308 -35.036  1.00  0.00     0.316 C 
HETATM    3  N   UNL     1      -8.950   1.043 -34.827  1.00  0.00    -0.339 N 
HETATM    4  O   UNL     1      -7.015   0.684 -35.871  1.00  0.00    -0.247 OA
HETATM    5  H   UNL     1      -8.468  -1.137 -33.734  1.00  0.00     0.165 HD
HETATM    6  H   UNL     1      -8.995   1.855 -35.430  1.00  0.00     0.164 HD
ENDROOT
BRANCH   3   7
HETATM    7  C   UNL     1      -9.963   0.920 -33.802  1.00  0.00     0.163 C 
BRANCH   7   8
HETATM    8  C   UNL     1      -9.872   1.947 -32.703  1.00  0.00    -0.035 A 
HETATM    9  C   UNL     1      -8.859   1.957 -31.738  1.00  0.00     0.066 A 
HETATM   10  C   UNL     1      -8.898   2.921 -30.740  1.00  0.00     0.164 A 
HETATM   11  N   UNL     1      -9.845   3.877 -30.646  1.00  0.00    -0.237 NA
HETATM   12  C   UNL     1     -10.805   3.863 -31.592  1.00  0.00     0.120 A 
HETATM   13  C   UNL     1     -10.861   2.935 -32.620  1.00  0.00     0.028 A 
BRANCH  10  14
HETATM   14  O   UNL     1      -7.894   2.873 -29.791  1.00  0.00    -0.329 OA
BRANCH  14  15
HETATM   15  C   UNL     1      -6.855   3.869 -29.921  1.00  0.00     0.130 C 
HETATM   16  C   UNL     1      -5.391   3.352 -29.929  1.00  0.00     0.032 C 
HETATM   17  C   UNL     1      -5.095   4.387 -31.028  1.00  0.00     0.005 C 
HETATM   18  C   UNL     1      -6.594   4.353 -31.371  1.00  0.00     0.032 C 
ENDBRANCH  14  15
ENDBRANCH  10  14
ENDBRANCH   7   8
ENDBRANCH   3   7
BRANCH   1  19
HETATM   19  C   UNL     1      -6.498  -1.644 -34.341  1.00  0.00     0.119 C 
BRANCH  19  20
HETATM   20  C   UNL     1      -6.845  -3.138 -34.214  1.00  0.00     0.025 C 
HETATM   21  C   UNL     1      -6.152  -3.985 -35.273  1.00  0.00     0.007 C 
ENDBRANCH  19  20
BRANCH  19  22
HETATM   22  C   UNL     1      -5.532  -1.217 -33.250  1.00  0.00    -0.033 A 
HETATM   23  C   UNL     1      -4.174  -1.542 -33.350  1.00  0.00     0.028 A 
HETATM   24  C   UNL     1      -3.315  -1.155 -32.333  1.00  0.00     0.116 A 
HETATM   25  N   UNL     1      -3.707  -0.472 -31.236  1.00  0.00    -0.273 NA
HETATM   26  C   UNL     1      -5.017  -0.159 -31.158  1.00  0.00     0.116 A 
HETATM   27  C   UNL     1      -5.954  -0.506 -32.120  1.00  0.00     0.028 A 
ENDBRANCH  19  22
ENDBRANCH   1  19
TORSDOF 7
ENDMDL
MODEL 6
REMARK VINA RESULT:      -7.2      2.274      9.006
REMARK  7 active torsions:
REMARK  status: ('A' for Active; 'I' for Inactive)
REMARK    1  A    between atoms: C_2  and  C_3 
REMARK    2  A    between atoms: C_3  and  N_4 
REMARK    3  A    between atoms: C_3  and  C_20 
REMARK       I    between atoms: N_4  and  C_5 
REMARK       I    between atoms: C_5  and  N_6 
REMARK    4  A    between atoms: N_6  and  C_7 
REMARK    5  A    between atoms: C_7  and  C_8 
REMARK    6  A    between atoms: C_10  and  O_11 
REMARK    7  A    between atoms: O_11  and  C_12 
ROOT
HETATM    1  N   UNL     1      -3.148   5.207 -32.886  1.00  0.00    -0.334 N 
HETATM    2  C   UNL     1      -4.483   5.342 -32.690  1.00  0.00     0.316 C 
HETATM    3  N   UNL     1      -5.225   4.210 -32.744  1.00  0.00    -0.339 N 
HETATM    4  O   UNL     1      -5.041   6.415 -32.478  1.00  0.00    -0.247 OA
HETATM    5  H   UNL     1      -2.782   4.321 -33.189  1.00  0.00     0.165 HD
HETATM    6  H   UNL     1      -6.212   4.391 -32.615  1.00  0.00     0.164 HD
ENDROOT
BRANCH   3   7
HETATM    7  C   UNL     1      -4.804   2.828 -32.803  1.00  0.00     0.163 C 
BRANCH   7   8
HETATM    8  C   UNL     1      -5.870   1.866 -33.261  1.00  0.00    -0.035 A 
HETATM    9  C   UNL     1      -5.782   0.479 -33.094  1.00  0.00     0.066 A 
HETATM   10  C   UNL     1      -6.798  -0.320 -33.597  1.00  0.00     0.164 A 
HETATM   11  N   UNL     1      -7.893   0.154 -34.227  1.00  0.00    -0.237 NA
HETATM   12  C   UNL     1      -7.971   1.492 -34.366  1.00  0.00     0.120 A 
HETATM   13  C   UNL     1      -7.002   2.373 -33.910  1.00  0.00     0.028 A 
BRANCH  10  14
HETATM   14  O   UNL     1      -6.652  -1.685 -33.436  1.00  0.00    -0.329 OA
BRANCH  14  15
HETATM   15  C   UNL     1      -6.501  -2.450 -34.653  1.00  0.00     0.130 C 
HETATM   16  C   UNL     1      -5.105  -3.079 -34.912  1.00  0.00     0.032 C 
HETATM   17  C   UNL     1      -5.832  -4.331 -35.432  1.00  0.00     0.005 C 
HETATM   18  C   UNL     1      -7.039  -3.904 -34.579  1.00  0.00     0.032 C 
ENDBRANCH  14  15
ENDBRANCH  10  14
ENDBRANCH   7   8
ENDBRANCH   3   7
BRANCH   1  19
HETATM   19  C   UNL     1      -2.222   6.320 -32.747  1.00  0.00     0.119 C 
BRANCH  19  20
HETATM   20  C   UNL     1      -1.276   6.411 -33.957  1.00  0.00     0.025 C 
HETATM   21  C   UNL     1      -1.449   5.240 -34.916  1.00  0.00     0.007 C 
ENDBRANCH  19  20
BRANCH  19  22
HETATM   22  C   UNL     1      -1.436   6.187 -31.454  1.00  0.00    -0.033 A 
HETATM   23  C   UNL     1      -0.421   5.229 -31.346  1.00  0.00     0.028 A 
HETATM   24  C   UNL     1       0.271   5.117 -30.150  1.00  0.00     0.116 A 
HETATM   25  N   UNL     1       0.028   5.883 -29.066  1.00  0.00    -0.273 NA
HETATM   26  C   UNL     1      -0.948   6.807 -29.187  1.00  0.00     0.116 A 
HETATM   27  C   UNL     1      -1.698   6.993 -30.339  1.00  0.00     0.028 A 
ENDBRANCH  19  22
ENDBRANCH   1  19
TORSDOF 7
ENDMDL
MODEL 7
REMARK VINA RESULT:      -7.1      2.228      8.815
REMARK  7 active torsions:
REMARK  status: ('A' for Active; 'I' for Inactive)
REMARK    1  A    between atoms: C_2  and  C_3 
REMARK    2  A    between atoms: C_3  and  N_4 
REMARK    3  A    between atoms: C_3  and  C_20 
REMARK       I    between atoms: N_4  and  C_5 
REMARK       I    between atoms: C_5  and  N_6 
REMARK    4  A    between atoms: N_6  and  C_7 
REMARK    5  A    between atoms: C_7  and  C_8 
REMARK    6  A    between atoms: C_10  and  O_11 
REMARK    7  A    between atoms: O_11  and  C_12 
ROOT
HETATM    1  N   UNL     1      -2.840   4.293 -32.472  1.00  0.00    -0.334 N 
HETATM    2  C   UNL     1      -4.145   4.060 -32.189  1.00  0.00     0.316 C 
HETATM    3  N   UNL     1      -4.533   2.764 -32.127  1.00  0.00    -0.339 N 
HETATM    4  O   UNL     1      -4.975   4.945 -31.998  1.00  0.00    -0.247 OA
HETATM    5  H   UNL     1      -2.252   3.527 -32.751  1.00  0.00     0.165 HD
HETATM    6  H   UNL     1      -5.523   2.668 -31.938  1.00  0.00     0.164 HD
ENDROOT
BRANCH   3   7
HETATM    7  C   UNL     1      -3.738   1.557 -32.138  1.00  0.00     0.163 C 
BRANCH   7   8
HETATM    8  C   UNL     1      -4.411   0.366 -32.772  1.00  0.00    -0.035 A 
HETATM    9  C   UNL     1      -5.797   0.260 -32.934  1.00  0.00     0.066 A 
HETATM   10  C   UNL     1      -6.317  -0.903 -33.487  1.00  0.00     0.164 A 
HETATM   11  N   UNL     1      -5.567  -1.943 -33.905  1.00  0.00    -0.237 NA
HETATM   12  C   UNL     1      -4.234  -1.819 -33.757  1.00  0.00     0.120 A 
HETATM   13  C   UNL     1      -3.620  -0.705 -33.204  1.00  0.00     0.028 A 
BRANCH  10  14
HETATM   14  O   UNL     1      -7.692  -0.975 -33.599  1.00  0.00    -0.329 OA
BRANCH  14  15
HETATM   15  C   UNL     1      -8.419   0.216 -33.226  1.00  0.00     0.130 C 
HETATM   16  C   UNL     1      -9.163   0.965 -34.366  1.00  0.00     0.032 C 
HETATM   17  C   UNL     1     -10.321   1.193 -33.379  1.00  0.00     0.005 C 
HETATM   18  C   UNL     1      -9.818  -0.040 -32.608  1.00  0.00     0.032 C 
ENDBRANCH  14  15
ENDBRANCH  10  14
ENDBRANCH   7   8
ENDBRANCH   3   7
BRANCH   1  19
HETATM   19  C   UNL     1      -2.265   5.630 -32.463  1.00  0.00     0.119 C 
BRANCH  19  20
HETATM   20  C   UNL     1      -1.345   5.849 -33.677  1.00  0.00     0.025 C 
HETATM   21  C   UNL     1      -1.783   5.036 -34.888  1.00  0.00     0.007 C 
ENDBRANCH  19  20
BRANCH  19  22
HETATM   22  C   UNL     1      -1.514   5.866 -31.163  1.00  0.00    -0.033 A 
HETATM   23  C   UNL     1      -0.380   5.103 -30.862  1.00  0.00     0.028 A 
HETATM   24  C   UNL     1       0.279   5.326 -29.662  1.00  0.00     0.116 A 
HETATM   25  N   UNL     1      -0.106   6.247 -28.753  1.00  0.00    -0.273 NA
HETATM   26  C   UNL     1      -1.196   6.980 -29.062  1.00  0.00     0.116 A 
HETATM   27  C   UNL     1      -1.924   6.828 -30.232  1.00  0.00     0.028 A 
ENDBRANCH  19  22
ENDBRANCH   1  19
TORSDOF 7
ENDMDL
MODEL 8
REMARK VINA RESULT:      -7.1      2.028      2.648
REMARK  7 active torsions:
REMARK  status: ('A' for Active; 'I' for Inactive)
REMARK    1  A    between atoms: C_2  and  C_3 
REMARK    2  A    between atoms: C_3  and  N_4 
REMARK    3  A    between atoms: C_3  and  C_20 
REMARK       I    between atoms: N_4  and  C_5 
REMARK       I    between atoms: C_5  and  N_6 
REMARK    4  A    between atoms: N_6  and  C_7 
REMARK    5  A    between atoms: C_7  and  C_8 
REMARK    6  A    between atoms: C_10  and  O_11 
REMARK    7  A    between atoms: O_11  and  C_12 
ROOT
HETATM    1  N   UNL     1      -4.374   1.277 -32.348  1.00  0.00    -0.334 N 
HETATM    2  C   UNL     1      -3.357   1.470 -31.473  1.00  0.00     0.316 C 
HETATM    3  N   UNL     1      -2.961   2.750 -31.271  1.00  0.00    -0.339 N 
HETATM    4  O   UNL     1      -2.785   0.564 -30.874  1.00  0.00    -0.247 OA
HETATM    5  H   UNL     1      -4.701   2.050 -32.902  1.00  0.00     0.165 HD
HETATM    6  H   UNL     1      -2.184   2.815 -30.627  1.00  0.00     0.164 HD
ENDROOT
BRANCH   3   7
HETATM    7  C   UNL     1      -3.569   3.988 -31.706  1.00  0.00     0.163 C 
BRANCH   7   8
HETATM    8  C   UNL     1      -2.594   5.032 -32.186  1.00  0.00    -0.035 A 
HETATM    9  C   UNL     1      -1.595   5.584 -31.378  1.00  0.00     0.066 A 
HETATM   10  C   UNL     1      -0.780   6.576 -31.907  1.00  0.00     0.164 A 
HETATM   11  N   UNL     1      -0.872   7.036 -33.171  1.00  0.00    -0.237 NA
HETATM   12  C   UNL     1      -1.829   6.484 -33.942  1.00  0.00     0.120 A 
HETATM   13  C   UNL     1      -2.700   5.498 -33.502  1.00  0.00     0.028 A 
BRANCH  10  14
HETATM   14  O   UNL     1       0.172   7.113 -31.062  1.00  0.00    -0.329 OA
BRANCH  14  15
HETATM   15  C   UNL     1      -0.190   7.179 -29.664  1.00  0.00     0.130 C 
HETATM   16  C   UNL     1       0.875   7.760 -28.695  1.00  0.00     0.032 C 
HETATM   17  C   UNL     1      -0.271   8.483 -27.966  1.00  0.00     0.005 C 
HETATM   18  C   UNL     1      -1.072   8.394 -29.276  1.00  0.00     0.032 C 
ENDBRANCH  14  15
ENDBRANCH  10  14
ENDBRANCH   7   8
ENDBRANCH   3   7
BRANCH   1  19
HETATM   19  C   UNL     1      -4.969  -0.031 -32.577  1.00  0.00     0.119 C 
BRANCH  19  20
HETATM   20  C   UNL     1      -4.061  -0.909 -33.456  1.00  0.00     0.025 C 
HETATM   21  C   UNL     1      -3.781  -2.266 -32.824  1.00  0.00     0.007 C 
ENDBRANCH  19  20
BRANCH  19  22
HETATM   22  C   UNL     1      -6.344   0.124 -33.204  1.00  0.00    -0.033 A 
HETATM   23  C   UNL     1      -6.483   0.128 -34.597  1.00  0.00     0.028 A 
HETATM   24  C   UNL     1      -7.747   0.287 -35.145  1.00  0.00     0.116 A 
HETATM   25  N   UNL     1      -8.870   0.439 -34.412  1.00  0.00    -0.273 NA
HETATM   26  C   UNL     1      -8.722   0.425 -33.071  1.00  0.00     0.116 A 
HETATM   27  C   UNL     1      -7.501   0.276 -32.430  1.00  0.00     0.028 A 
ENDBRANCH  19  22
ENDBRANCH   1  19
TORSDOF 7
ENDMDL
MODEL 9
REMARK VINA RESULT:      -7.0      2.290      9.132
REMARK  7 active torsions:
REMARK  status: ('A' for Active; 'I' for Inactive)
REMARK    1  A    between atoms: C_2  and  C_3 
REMARK    2  A    between atoms: C_3  and  N_4 
REMARK    3  A    between atoms: C_3  and  C_20 
REMARK       I    between atoms: N_4  and  C_5 
REMARK       I    between atoms: C_5  and  N_6 
REMARK    4  A    between atoms: N_6  and  C_7 
REMARK    5  A    between atoms: C_7  and  C_8 
REMARK    6  A    between atoms: C_10  and  O_11 
REMARK    7  A    between atoms: O_11  and  C_12 
ROOT
HETATM    1  N   UNL     1      -1.432   5.426 -31.758  1.00  0.00    -0.334 N 
HETATM    2  C   UNL     1      -1.760   4.872 -32.951  1.00  0.00     0.316 C 
HETATM    3  N   UNL     1      -2.545   3.769 -32.915  1.00  0.00    -0.339 N 
HETATM    4  O   UNL     1      -1.384   5.305 -34.036  1.00  0.00    -0.247 OA
HETATM    5  H   UNL     1      -1.662   4.940 -30.909  1.00  0.00     0.165 HD
HETATM    6  H   UNL     1      -2.727   3.396 -33.838  1.00  0.00     0.164 HD
ENDROOT
BRANCH   3   7
HETATM    7  C   UNL     1      -3.253   3.171 -31.805  1.00  0.00     0.163 C 
BRANCH   7   8
HETATM    8  C   UNL     1      -4.476   2.380 -32.194  1.00  0.00    -0.035 A 
HETATM    9  C   UNL     1      -4.504   0.982 -32.254  1.00  0.00     0.066 A 
HETATM   10  C   UNL     1      -5.670   0.355 -32.671  1.00  0.00     0.164 A 
HETATM   11  N   UNL     1      -6.802   1.006 -33.006  1.00  0.00    -0.237 NA
HETATM   12  C   UNL     1      -6.764   2.351 -32.928  1.00  0.00     0.120 A 
HETATM   13  C   UNL     1      -5.645   3.070 -32.536  1.00  0.00     0.028 A 
BRANCH  10  14
HETATM   14  O   UNL     1      -5.640  -1.025 -32.745  1.00  0.00    -0.329 OA
BRANCH  14  15
HETATM   15  C   UNL     1      -5.548  -1.583 -34.074  1.00  0.00     0.130 C 
HETATM   16  C   UNL     1      -4.629  -2.823 -34.248  1.00  0.00     0.032 C 
HETATM   17  C   UNL     1      -5.696  -3.406 -35.191  1.00  0.00     0.005 C 
HETATM   18  C   UNL     1      -6.723  -2.514 -34.473  1.00  0.00     0.032 C 
ENDBRANCH  14  15
ENDBRANCH  10  14
ENDBRANCH   7   8
ENDBRANCH   3   7
BRANCH   1  19
HETATM   19  C   UNL     1      -0.687   6.672 -31.654  1.00  0.00     0.119 C 
BRANCH  19  20
HETATM   20  C   UNL     1       0.696   6.442 -31.022  1.00  0.00     0.025 C 
HETATM   21  C   UNL     1       0.835   5.048 -30.424  1.00  0.00     0.007 C 
ENDBRANCH  19  20
BRANCH  19  22
HETATM   22  C   UNL     1      -1.484   7.692 -30.858  1.00  0.00    -0.033 A 
HETATM   23  C   UNL     1      -1.536   7.605 -29.462  1.00  0.00     0.028 A 
HETATM   24  C   UNL     1      -2.283   8.538 -28.760  1.00  0.00     0.116 A 
HETATM   25  N   UNL     1      -2.973   9.542 -29.342  1.00  0.00    -0.273 NA
HETATM   26  C   UNL     1      -2.907   9.617 -30.688  1.00  0.00     0.116 A 
HETATM   27  C   UNL     1      -2.191   8.730 -31.478  1.00  0.00     0.028 A 
ENDBRANCH  19  22
ENDBRANCH   1  19
TORSDOF 7
ENDMDL
MODEL 10
REMARK VINA RESULT:      -6.8     17.285     19.531
REMARK  7 active torsions:
REMARK  status: ('A' for Active; 'I' for Inactive)
REMARK    1  A    between atoms: C_2  and  C_3 
REMARK    2  A    between atoms: C_3  and  N_4 
REMARK    3  A    between atoms: C_3  and  C_20 
REMARK       I    between atoms: N_4  and  C_5 
REMARK       I    between atoms: C_5  and  N_6 
REMARK    4  A    between atoms: N_6  and  C_7 
REMARK    5  A    between atoms: C_7  and  C_8 
REMARK    6  A    between atoms: C_10  and  O_11 
REMARK    7  A    between atoms: O_11  and  C_12 
ROOT
HETATM    1  N   UNL     1      -4.303 -13.583 -37.326  1.00  0.00    -0.334 N 
HETATM    2  C   UNL     1      -4.058 -14.140 -36.114  1.00  0.00     0.316 C 
HETATM    3  N   UNL     1      -5.082 -14.144 -35.228  1.00  0.00    -0.339 N 
HETATM    4  O   UNL     1      -2.979 -14.622 -35.785  1.00  0.00    -0.247 OA
HETATM    5  H   UNL     1      -5.164 -13.088 -37.476  1.00  0.00     0.165 HD
HETATM    6  H   UNL     1      -4.821 -14.551 -34.339  1.00  0.00     0.164 HD
ENDROOT
BRANCH   3   7
HETATM    7  C   UNL     1      -6.476 -13.808 -35.420  1.00  0.00     0.163 C 
BRANCH   7   8
HETATM    8  C   UNL     1      -7.204 -14.686 -36.405  1.00  0.00    -0.035 A 
HETATM    9  C   UNL     1      -7.781 -14.206 -37.586  1.00  0.00     0.066 A 
HETATM   10  C   UNL     1      -8.471 -15.093 -38.400  1.00  0.00     0.164 A 
HETATM   11  N   UNL     1      -8.609 -16.409 -38.140  1.00  0.00    -0.237 NA
HETATM   12  C   UNL     1      -8.036 -16.859 -37.007  1.00  0.00     0.120 A 
HETATM   13  C   UNL     1      -7.337 -16.050 -36.122  1.00  0.00     0.028 A 
BRANCH  10  14
HETATM   14  O   UNL     1      -9.050 -14.568 -39.540  1.00  0.00    -0.329 OA
BRANCH  14  15
HETATM   15  C   UNL     1      -9.818 -13.358 -39.357  1.00  0.00     0.130 C 
HETATM   16  C   UNL     1      -9.291 -12.083 -40.070  1.00  0.00     0.032 C 
HETATM   17  C   UNL     1     -10.752 -11.737 -40.401  1.00  0.00     0.005 C 
HETATM   18  C   UNL     1     -11.069 -13.236 -40.266  1.00  0.00     0.032 C 
ENDBRANCH  14  15
ENDBRANCH  10  14
ENDBRANCH   7   8
ENDBRANCH   3   7
BRANCH   1  19
HETATM   19  C   UNL     1      -3.329 -13.608 -38.407  1.00  0.00     0.119 C 
BRANCH  19  20
HETATM   20  C   UNL     1      -2.369 -12.409 -38.317  1.00  0.00     0.025 C 
HETATM   21  C   UNL     1      -0.909 -12.826 -38.443  1.00  0.00     0.007 C 
ENDBRANCH  19  20
BRANCH  19  22
HETATM   22  C   UNL     1      -4.040 -13.634 -39.749  1.00  0.00    -0.033 A 
HETATM   23  C   UNL     1      -3.436 -14.251 -40.850  1.00  0.00     0.028 A 
HETATM   24  C   UNL     1      -4.098 -14.247 -42.068  1.00  0.00     0.116 A 
HETATM   25  N   UNL     1      -5.307 -13.681 -42.265  1.00  0.00    -0.273 NA
HETATM   26  C   UNL     1      -5.881 -13.098 -41.192  1.00  0.00     0.116 A 
HETATM   27  C   UNL     1      -5.297 -13.046 -39.935  1.00  0.00     0.028 A 
ENDBRANCH  19  22
ENDBRANCH   1  19
TORSDOF 7
ENDMDL
