MODEL 1
REMARK VINA RESULT:      -7.9      0.000      0.000
REMARK  6 active torsions:
REMARK  status: ('A' for Active; 'I' for Inactive)
REMARK    1  A    between atoms: C_2  and  O_3 
REMARK    2  A    between atoms: O_3  and  C_4 
REMARK    3  A    between atoms: C_7  and  N_8 
REMARK    4  A    between atoms: C_9  and  O_10 
REMARK    5  A    between atoms: C_9  and  C_11 
REMARK       I    between atoms: C_11  and  N_12 
REMARK    6  A    between atoms: N_12  and  C_13 
ROOT
HETATM    1  N   UNL     1      -6.504   1.001 -31.850  1.00  0.00    -0.254 N 
HETATM    2  C   UNL     1      -7.000   2.313 -32.287  1.00  0.00     0.256 C 
HETATM    3  C   UNL     1      -6.371   3.407 -31.453  1.00  0.00     0.035 A 
HETATM    4  C   UNL     1      -6.245   3.136 -30.092  1.00  0.00     0.048 A 
HETATM    5  N   UNL     1      -6.535   1.845 -29.653  1.00  0.00    -0.308 N 
HETATM    6  C   UNL     1      -6.568   0.741 -30.478  1.00  0.00     0.330 C 
HETATM    7  O   UNL     1      -6.549  -0.365 -29.939  1.00  0.00    -0.246 OA
HETATM    8  C   UNL     1      -6.015   4.673 -31.937  1.00  0.00     0.034 A 
HETATM    9  C   UNL     1      -5.558   5.648 -31.049  1.00  0.00     0.011 A 
HETATM   10 BR   UNL     1      -5.077   7.355 -31.700  1.00  0.00    -0.051 Br
HETATM   11  C   UNL     1      -5.468   5.377 -29.682  1.00  0.00     0.021 A 
HETATM   12  C   UNL     1      -5.818   4.115 -29.199  1.00  0.00     0.031 A 
HETATM   13  H   UNL     1      -6.452   1.612 -28.671  1.00  0.00     0.170 HD
ENDROOT
BRANCH   1  14
HETATM   14  C   UNL     1      -6.233  -0.048 -32.779  1.00  0.00     0.043 A 
HETATM   15  C   UNL     1      -7.257  -0.805 -33.356  1.00  0.00     0.032 A 
HETATM   16  C   UNL     1      -6.963  -1.858 -34.229  1.00  0.00     0.039 A 
HETATM   17  C   UNL     1      -5.641  -2.189 -34.532  1.00  0.00     0.068 A 
HETATM   18  C   UNL     1      -4.613  -1.452 -33.950  1.00  0.00     0.039 A 
HETATM   19  C   UNL     1      -4.909  -0.396 -33.078  1.00  0.00     0.032 A 
BRANCH  17  20
HETATM   20  O   UNL     1      -5.492  -3.244 -35.388  1.00  0.00    -0.352 OA
BRANCH  20  21
HETATM   21  C   UNL     1      -5.852  -4.533 -34.896  1.00  0.00     0.171 C 
HETATM   22  C   UNL     1      -4.644  -5.120 -34.187  1.00  0.00     0.034 C 
ENDBRANCH  20  21
ENDBRANCH  17  20
ENDBRANCH   1  14
BRANCH   2  23
HETATM   23  O   UNL     1      -6.725   2.572 -33.666  1.00  0.00    -0.359 OA
HETATM   24  H   UNL     1      -6.255   1.772 -33.972  1.00  0.00     0.213 HD
ENDBRANCH   2  23
BRANCH   2  25
HETATM   25  C   UNL     1      -8.589   2.293 -32.182  1.00  0.00     0.279 C 
HETATM   26  N   UNL     1      -9.300   2.042 -33.346  1.00  0.00    -0.352 N 
HETATM   27  H   UNL     1      -8.807   1.903 -34.220  1.00  0.00     0.163 HD
HETATM   28  O   UNL     1      -9.161   2.397 -31.091  1.00  0.00    -0.268 OA
BRANCH  26  29
HETATM   29  C   UNL     1     -10.727   1.996 -33.376  1.00  0.00     0.084 A 
HETATM   30  C   UNL     1     -11.452   1.698 -34.659  1.00  0.00     0.027 A 
HETATM   31  C   UNL     1     -11.446   0.686 -33.553  1.00  0.00     0.027 A 
ENDBRANCH  26  29
ENDBRANCH   2  25
TORSDOF 6
ENDMDL
MODEL 2
REMARK VINA RESULT:      -7.6      3.121      6.169
REMARK  6 active torsions:
REMARK  status: ('A' for Active; 'I' for Inactive)
REMARK    1  A    between atoms: C_2  and  O_3 
REMARK    2  A    between atoms: O_3  and  C_4 
REMARK    3  A    between atoms: C_7  and  N_8 
REMARK    4  A    between atoms: C_9  and  O_10 
REMARK    5  A    between atoms: C_9  and  C_11 
REMARK       I    between atoms: C_11  and  N_12 
REMARK    6  A    between atoms: N_12  and  C_13 
ROOT
HETATM    1  N   UNL     1      -9.020   1.920 -32.472  1.00  0.00    -0.254 N 
HETATM    2  C   UNL     1      -7.741   1.767 -33.179  1.00  0.00     0.256 C 
HETATM    3  C   UNL     1      -6.733   1.088 -32.279  1.00  0.00     0.035 A 
HETATM    4  C   UNL     1      -6.740   1.492 -30.946  1.00  0.00     0.048 A 
HETATM    5  N   UNL     1      -7.767   2.334 -30.523  1.00  0.00    -0.308 N 
HETATM    6  C   UNL     1      -8.958   2.493 -31.199  1.00  0.00     0.330 C 
HETATM    7  O   UNL     1      -9.884   3.028 -30.590  1.00  0.00    -0.246 OA
HETATM    8  C   UNL     1      -5.757   0.181 -32.716  1.00  0.00     0.034 A 
HETATM    9  C   UNL     1      -4.798  -0.287 -31.817  1.00  0.00     0.011 A 
HETATM   10 BR   UNL     1      -3.482  -1.509 -32.405  1.00  0.00    -0.051 Br
HETATM   11  C   UNL     1      -4.793   0.151 -30.492  1.00  0.00     0.021 A 
HETATM   12  C   UNL     1      -5.767   1.050 -30.053  1.00  0.00     0.031 A 
HETATM   13  H   UNL     1      -7.805   2.646 -29.561  1.00  0.00     0.170 HD
ENDROOT
BRANCH   1  14
HETATM   14  C   UNL     1     -10.271   1.758 -33.140  1.00  0.00     0.043 A 
HETATM   15  C   UNL     1     -10.923   2.830 -33.756  1.00  0.00     0.032 A 
HETATM   16  C   UNL     1     -12.171   2.655 -34.364  1.00  0.00     0.039 A 
HETATM   17  C   UNL     1     -12.802   1.410 -34.356  1.00  0.00     0.068 A 
HETATM   18  C   UNL     1     -12.170   0.339 -33.731  1.00  0.00     0.039 A 
HETATM   19  C   UNL     1     -10.919   0.516 -33.124  1.00  0.00     0.032 A 
BRANCH  17  20
HETATM   20  O   UNL     1     -14.021   1.377 -34.973  1.00  0.00    -0.352 OA
BRANCH  20  21
HETATM   21  C   UNL     1     -15.084   0.731 -34.275  1.00  0.00     0.171 C 
HETATM   22  C   UNL     1     -15.506   1.630 -33.126  1.00  0.00     0.034 C 
ENDBRANCH  20  21
ENDBRANCH  17  20
ENDBRANCH   1  14
BRANCH   2  23
HETATM   23  O   UNL     1      -7.867   1.006 -34.383  1.00  0.00    -0.359 OA
HETATM   24  H   UNL     1      -6.956   0.711 -34.577  1.00  0.00     0.213 HD
ENDBRANCH   2  23
BRANCH   2  25
HETATM   25  C   UNL     1      -7.269   3.212 -33.653  1.00  0.00     0.279 C 
HETATM   26  N   UNL     1      -5.909   3.405 -33.849  1.00  0.00    -0.352 N 
HETATM   27  H   UNL     1      -5.260   2.648 -33.667  1.00  0.00     0.163 HD
HETATM   28  O   UNL     1      -8.088   4.094 -33.933  1.00  0.00    -0.268 OA
BRANCH  26  29
HETATM   29  C   UNL     1      -5.367   4.655 -34.276  1.00  0.00     0.084 A 
HETATM   30  C   UNL     1      -5.009   5.713 -33.269  1.00  0.00     0.027 A 
HETATM   31  C   UNL     1      -3.924   4.991 -34.012  1.00  0.00     0.027 A 
ENDBRANCH  26  29
ENDBRANCH   2  25
TORSDOF 6
ENDMDL
MODEL 3
REMARK VINA RESULT:      -7.4      3.761      7.092
REMARK  6 active torsions:
REMARK  status: ('A' for Active; 'I' for Inactive)
REMARK    1  A    between atoms: C_2  and  O_3 
REMARK    2  A    between atoms: O_3  and  C_4 
REMARK    3  A    between atoms: C_7  and  N_8 
REMARK    4  A    between atoms: C_9  and  O_10 
REMARK    5  A    between atoms: C_9  and  C_11 
REMARK       I    between atoms: C_11  and  N_12 
REMARK    6  A    between atoms: N_12  and  C_13 
ROOT
HETATM    1  N   UNL     1      -4.868   3.185 -33.007  1.00  0.00    -0.254 N 
HETATM    2  C   UNL     1      -4.989   1.873 -32.358  1.00  0.00     0.256 C 
HETATM    3  C   UNL     1      -5.485   0.848 -33.354  1.00  0.00     0.035 A 
HETATM    4  C   UNL     1      -6.483   1.282 -34.223  1.00  0.00     0.048 A 
HETATM    5  N   UNL     1      -6.807   2.637 -34.224  1.00  0.00    -0.308 N 
HETATM    6  C   UNL     1      -5.984   3.625 -33.725  1.00  0.00     0.330 C 
HETATM    7  O   UNL     1      -6.243   4.785 -34.039  1.00  0.00    -0.246 OA
HETATM    8  C   UNL     1      -5.084  -0.495 -33.383  1.00  0.00     0.034 A 
HETATM    9  C   UNL     1      -5.703  -1.380 -34.266  1.00  0.00     0.011 A 
HETATM   10 BR   UNL     1      -5.165  -3.191 -34.306  1.00  0.00    -0.051 Br
HETATM   11  C   UNL     1      -6.727  -0.943 -35.109  1.00  0.00     0.021 A 
HETATM   12  C   UNL     1      -7.124   0.395 -35.085  1.00  0.00     0.031 A 
HETATM   13  H   UNL     1      -7.526   2.988 -34.845  1.00  0.00     0.170 HD
ENDROOT
BRANCH   1  14
HETATM   14  C   UNL     1      -3.799   4.080 -32.700  1.00  0.00     0.043 A 
HETATM   15  C   UNL     1      -2.653   4.159 -33.495  1.00  0.00     0.032 A 
HETATM   16  C   UNL     1      -1.598   5.012 -33.148  1.00  0.00     0.039 A 
HETATM   17  C   UNL     1      -1.659   5.789 -31.990  1.00  0.00     0.068 A 
HETATM   18  C   UNL     1      -2.789   5.706 -31.181  1.00  0.00     0.039 A 
HETATM   19  C   UNL     1      -3.845   4.854 -31.532  1.00  0.00     0.032 A 
BRANCH  17  20
HETATM   20  O   UNL     1      -0.560   6.569 -31.760  1.00  0.00    -0.352 OA
BRANCH  20  21
HETATM   21  C   UNL     1       0.361   6.114 -30.771  1.00  0.00     0.171 C 
HETATM   22  C   UNL     1       0.371   7.125 -29.638  1.00  0.00     0.034 C 
ENDBRANCH  20  21
ENDBRANCH  17  20
ENDBRANCH   1  14
BRANCH   2  23
HETATM   23  O   UNL     1      -3.750   1.416 -31.809  1.00  0.00    -0.359 OA
HETATM   24  H   UNL     1      -3.778   1.707 -30.877  1.00  0.00     0.213 HD
ENDBRANCH   2  23
BRANCH   2  25
HETATM   25  C   UNL     1      -5.958   2.035 -31.105  1.00  0.00     0.279 C 
HETATM   26  N   UNL     1      -6.886   3.065 -31.148  1.00  0.00    -0.352 N 
HETATM   27  H   UNL     1      -6.911   3.690 -31.945  1.00  0.00     0.163 HD
HETATM   28  O   UNL     1      -5.952   1.217 -30.179  1.00  0.00    -0.268 OA
BRANCH  26  29
HETATM   29  C   UNL     1      -7.810   3.309 -30.087  1.00  0.00     0.084 A 
HETATM   30  C   UNL     1      -8.583   4.597 -30.031  1.00  0.00     0.027 A 
HETATM   31  C   UNL     1      -9.292   3.314 -30.350  1.00  0.00     0.027 A 
ENDBRANCH  26  29
ENDBRANCH   2  25
TORSDOF 6
ENDMDL
MODEL 4
REMARK VINA RESULT:      -7.2      2.965      5.989
REMARK  6 active torsions:
REMARK  status: ('A' for Active; 'I' for Inactive)
REMARK    1  A    between atoms: C_2  and  O_3 
REMARK    2  A    between atoms: O_3  and  C_4 
REMARK    3  A    between atoms: C_7  and  N_8 
REMARK    4  A    between atoms: C_9  and  O_10 
REMARK    5  A    between atoms: C_9  and  C_11 
REMARK       I    between atoms: C_11  and  N_12 
REMARK    6  A    between atoms: N_12  and  C_13 
ROOT
HETATM    1  N   UNL     1      -6.927   2.978 -31.771  1.00  0.00    -0.254 N 
HETATM    2  C   UNL     1      -7.621   2.384 -32.922  1.00  0.00     0.256 C 
HETATM    3  C   UNL     1      -9.041   2.899 -32.990  1.00  0.00     0.035 A 
HETATM    4  C   UNL     1      -9.704   3.014 -31.770  1.00  0.00     0.048 A 
HETATM    5  N   UNL     1      -8.965   2.823 -30.604  1.00  0.00    -0.308 N 
HETATM    6  C   UNL     1      -7.590   2.902 -30.543  1.00  0.00     0.330 C 
HETATM    7  O   UNL     1      -7.081   3.002 -29.427  1.00  0.00    -0.246 OA
HETATM    8  C   UNL     1      -9.739   3.159 -34.178  1.00  0.00     0.034 A 
HETATM    9  C   UNL     1     -11.088   3.511 -34.122  1.00  0.00     0.011 A 
HETATM   10 BR   UNL     1     -12.030   3.862 -35.723  1.00  0.00    -0.051 Br
HETATM   11  C   UNL     1     -11.752   3.590 -32.897  1.00  0.00     0.021 A 
HETATM   12  C   UNL     1     -11.057   3.335 -31.712  1.00  0.00     0.031 A 
HETATM   13  H   UNL     1      -9.413   2.901 -29.699  1.00  0.00     0.170 HD
ENDROOT
BRANCH   1  14
HETATM   14  C   UNL     1      -5.552   3.358 -31.836  1.00  0.00     0.043 A 
HETATM   15  C   UNL     1      -4.522   2.444 -31.600  1.00  0.00     0.032 A 
HETATM   16  C   UNL     1      -3.184   2.852 -31.624  1.00  0.00     0.039 A 
HETATM   17  C   UNL     1      -2.847   4.184 -31.869  1.00  0.00     0.068 A 
HETATM   18  C   UNL     1      -3.865   5.107 -32.090  1.00  0.00     0.039 A 
HETATM   19  C   UNL     1      -5.205   4.696 -32.067  1.00  0.00     0.032 A 
BRANCH  17  20
HETATM   20  O   UNL     1      -1.507   4.452 -31.854  1.00  0.00    -0.352 OA
BRANCH  20  21
HETATM   21  C   UNL     1      -1.068   5.603 -32.574  1.00  0.00     0.171 C 
HETATM   22  C   UNL     1      -0.341   6.517 -31.603  1.00  0.00     0.034 C 
ENDBRANCH  20  21
ENDBRANCH  17  20
ENDBRANCH   1  14
BRANCH   2  23
HETATM   23  O   UNL     1      -6.969   2.669 -34.162  1.00  0.00    -0.359 OA
HETATM   24  H   UNL     1      -7.702   2.789 -34.797  1.00  0.00     0.213 HD
ENDBRANCH   2  23
BRANCH   2  25
HETATM   25  C   UNL     1      -7.544   0.801 -32.773  1.00  0.00     0.279 C 
HETATM   26  N   UNL     1      -6.543   0.143 -33.473  1.00  0.00    -0.352 N 
HETATM   27  H   UNL     1      -5.913   0.669 -34.067  1.00  0.00     0.163 HD
HETATM   28  O   UNL     1      -8.282   0.194 -31.988  1.00  0.00    -0.268 OA
BRANCH  26  29
HETATM   29  C   UNL     1      -6.373  -1.274 -33.417  1.00  0.00     0.084 A 
HETATM   30  C   UNL     1      -6.741  -2.132 -34.595  1.00  0.00     0.027 A 
HETATM   31  C   UNL     1      -5.298  -1.946 -34.228  1.00  0.00     0.027 A 
ENDBRANCH  26  29
ENDBRANCH   2  25
TORSDOF 6
ENDMDL
MODEL 5
REMARK VINA RESULT:      -7.2      3.160      5.175
REMARK  6 active torsions:
REMARK  status: ('A' for Active; 'I' for Inactive)
REMARK    1  A    between atoms: C_2  and  O_3 
REMARK    2  A    between atoms: O_3  and  C_4 
REMARK    3  A    between atoms: C_7  and  N_8 
REMARK    4  A    between atoms: C_9  and  O_10 
REMARK    5  A    between atoms: C_9  and  C_11 
REMARK       I    between atoms: C_11  and  N_12 
REMARK    6  A    between atoms: N_12  and  C_13 
ROOT
HETATM    1  N   UNL     1      -8.340   1.093 -33.790  1.00  0.00    -0.254 N 
HETATM    2  C   UNL     1      -9.557   0.966 -32.978  1.00  0.00     0.256 C 
HETATM    3  C   UNL     1     -10.759   1.417 -33.776  1.00  0.00     0.035 A 
HETATM    4  C   UNL     1     -10.573   2.550 -34.566  1.00  0.00     0.048 A 
HETATM    5  N   UNL     1      -9.279   3.053 -34.692  1.00  0.00    -0.308 N 
HETATM    6  C   UNL     1      -8.140   2.326 -34.417  1.00  0.00     0.330 C 
HETATM    7  O   UNL     1      -7.073   2.772 -34.835  1.00  0.00    -0.246 OA
HETATM    8  C   UNL     1     -12.035   0.842 -33.691  1.00  0.00     0.034 A 
HETATM    9  C   UNL     1     -13.101   1.422 -34.381  1.00  0.00     0.011 A 
HETATM   10 BR   UNL     1     -14.821   0.648 -34.266  1.00  0.00    -0.051 Br
HETATM   11  C   UNL     1     -12.910   2.577 -35.142  1.00  0.00     0.021 A 
HETATM   12  C   UNL     1     -11.639   3.148 -35.232  1.00  0.00     0.031 A 
HETATM   13  H   UNL     1      -9.106   3.874 -35.260  1.00  0.00     0.170 HD
ENDROOT
BRANCH   1  14
HETATM   14  C   UNL     1      -7.288   0.130 -33.723  1.00  0.00     0.043 A 
HETATM   15  C   UNL     1      -7.173  -0.903 -34.658  1.00  0.00     0.032 A 
HETATM   16  C   UNL     1      -6.160  -1.862 -34.544  1.00  0.00     0.039 A 
HETATM   17  C   UNL     1      -5.250  -1.819 -33.486  1.00  0.00     0.068 A 
HETATM   18  C   UNL     1      -5.364  -0.804 -32.541  1.00  0.00     0.039 A 
HETATM   19  C   UNL     1      -6.379   0.157 -32.657  1.00  0.00     0.032 A 
BRANCH  17  20
HETATM   20  O   UNL     1      -4.318  -2.819 -33.486  1.00  0.00    -0.352 OA
BRANCH  20  21
HETATM   21  C   UNL     1      -4.336  -3.721 -34.590  1.00  0.00     0.171 C 
HETATM   22  C   UNL     1      -4.490  -5.130 -34.044  1.00  0.00     0.034 C 
ENDBRANCH  20  21
ENDBRANCH  17  20
ENDBRANCH   1  14
BRANCH   2  23
HETATM   23  O   UNL     1      -9.780  -0.374 -32.530  1.00  0.00    -0.359 OA
HETATM   24  H   UNL     1      -9.869  -0.891 -33.354  1.00  0.00     0.213 HD
ENDBRANCH   2  23
BRANCH   2  25
HETATM   25  C   UNL     1      -9.346   1.813 -31.647  1.00  0.00     0.279 C 
HETATM   26  N   UNL     1     -10.176   2.909 -31.453  1.00  0.00    -0.352 N 
HETATM   27  H   UNL     1     -10.864   3.153 -32.155  1.00  0.00     0.163 HD
HETATM   28  O   UNL     1      -8.547   1.453 -30.776  1.00  0.00    -0.268 OA
BRANCH  26  29
HETATM   29  C   UNL     1     -10.084   3.743 -30.297  1.00  0.00     0.084 A 
HETATM   30  C   UNL     1      -8.982   4.759 -30.177  1.00  0.00     0.027 A 
HETATM   31  C   UNL     1     -10.396   5.212 -30.390  1.00  0.00     0.027 A 
ENDBRANCH  26  29
ENDBRANCH   2  25
TORSDOF 6
ENDMDL
MODEL 6
REMARK VINA RESULT:      -7.1      3.595      6.206
REMARK  6 active torsions:
REMARK  status: ('A' for Active; 'I' for Inactive)
REMARK    1  A    between atoms: C_2  and  O_3 
REMARK    2  A    between atoms: O_3  and  C_4 
REMARK    3  A    between atoms: C_7  and  N_8 
REMARK    4  A    between atoms: C_9  and  O_10 
REMARK    5  A    between atoms: C_9  and  C_11 
REMARK       I    between atoms: C_11  and  N_12 
REMARK    6  A    between atoms: N_12  and  C_13 
ROOT
HETATM    1  N   UNL     1      -4.904   4.992 -33.262  1.00  0.00    -0.254 N 
HETATM    2  C   UNL     1      -4.276   5.019 -31.935  1.00  0.00     0.256 C 
HETATM    3  C   UNL     1      -3.506   6.308 -31.754  1.00  0.00     0.035 A 
HETATM    4  C   UNL     1      -2.788   6.746 -32.865  1.00  0.00     0.048 A 
HETATM    5  N   UNL     1      -2.979   6.077 -34.072  1.00  0.00    -0.308 N 
HETATM    6  C   UNL     1      -4.071   5.281 -34.347  1.00  0.00     0.330 C 
HETATM    7  O   UNL     1      -4.269   4.985 -35.524  1.00  0.00    -0.246 OA
HETATM    8  C   UNL     1      -3.393   7.006 -30.544  1.00  0.00     0.034 A 
HETATM    9  C   UNL     1      -2.552   8.117 -30.465  1.00  0.00     0.011 A 
HETATM   10 BR   UNL     1      -2.399   9.060 -28.834  1.00  0.00    -0.051 Br
HETATM   11  C   UNL     1      -1.811   8.528 -31.574  1.00  0.00     0.021 A 
HETATM   12  C   UNL     1      -1.925   7.836 -32.781  1.00  0.00     0.031 A 
HETATM   13  H   UNL     1      -2.476   6.370 -34.901  1.00  0.00     0.170 HD
ENDROOT
BRANCH   1  14
HETATM   14  C   UNL     1      -6.204   4.438 -33.468  1.00  0.00     0.043 A 
HETATM   15  C   UNL     1      -6.400   3.068 -33.658  1.00  0.00     0.032 A 
HETATM   16  C   UNL     1      -7.679   2.555 -33.904  1.00  0.00     0.039 A 
HETATM   17  C   UNL     1      -8.786   3.402 -33.982  1.00  0.00     0.068 A 
HETATM   18  C   UNL     1      -8.600   4.771 -33.811  1.00  0.00     0.039 A 
HETATM   19  C   UNL     1      -7.319   5.282 -33.563  1.00  0.00     0.032 A 
BRANCH  17  20
HETATM   20  O   UNL     1      -9.974   2.776 -34.238  1.00  0.00    -0.352 OA
BRANCH  20  21
HETATM   21  C   UNL     1     -10.649   2.189 -33.127  1.00  0.00     0.171 C 
HETATM   22  C   UNL     1     -10.890   0.724 -33.444  1.00  0.00     0.034 C 
ENDBRANCH  20  21
ENDBRANCH  17  20
ENDBRANCH   1  14
BRANCH   2  23
HETATM   23  O   UNL     1      -5.229   4.901 -30.875  1.00  0.00    -0.359 OA
HETATM   24  H   UNL     1      -5.097   3.996 -30.532  1.00  0.00     0.213 HD
ENDBRANCH   2  23
BRANCH   2  25
HETATM   25  C   UNL     1      -3.356   3.726 -31.804  1.00  0.00     0.279 C 
HETATM   26  N   UNL     1      -3.985   2.523 -31.519  1.00  0.00    -0.352 N 
HETATM   27  H   UNL     1      -4.988   2.498 -31.379  1.00  0.00     0.163 HD
HETATM   28  O   UNL     1      -2.145   3.773 -32.047  1.00  0.00    -0.268 OA
BRANCH  26  29
HETATM   29  C   UNL     1      -3.267   1.297 -31.381  1.00  0.00     0.084 A 
HETATM   30  C   UNL     1      -3.981   0.038 -30.973  1.00  0.00     0.027 A 
HETATM   31  C   UNL     1      -3.462   0.182 -32.373  1.00  0.00     0.027 A 
ENDBRANCH  26  29
ENDBRANCH   2  25
TORSDOF 6
ENDMDL
MODEL 7
REMARK VINA RESULT:      -7.1      2.460      2.909
REMARK  6 active torsions:
REMARK  status: ('A' for Active; 'I' for Inactive)
REMARK    1  A    between atoms: C_2  and  O_3 
REMARK    2  A    between atoms: O_3  and  C_4 
REMARK    3  A    between atoms: C_7  and  N_8 
REMARK    4  A    between atoms: C_9  and  O_10 
REMARK    5  A    between atoms: C_9  and  C_11 
REMARK       I    between atoms: C_11  and  N_12 
REMARK    6  A    between atoms: N_12  and  C_13 
ROOT
HETATM    1  N   UNL     1      -8.023   0.855 -32.796  1.00  0.00    -0.254 N 
HETATM    2  C   UNL     1      -9.119   1.452 -33.571  1.00  0.00     0.256 C 
HETATM    3  C   UNL     1      -9.261   2.916 -33.220  1.00  0.00     0.035 A 
HETATM    4  C   UNL     1      -9.117   3.234 -31.871  1.00  0.00     0.048 A 
HETATM    5  N   UNL     1      -8.687   2.229 -31.005  1.00  0.00    -0.308 N 
HETATM    6  C   UNL     1      -8.044   1.081 -31.417  1.00  0.00     0.330 C 
HETATM    7  O   UNL     1      -7.466   0.420 -30.556  1.00  0.00    -0.246 OA
HETATM    8  C   UNL     1      -9.618   3.923 -34.128  1.00  0.00     0.034 A 
HETATM    9  C   UNL     1      -9.843   5.220 -33.666  1.00  0.00     0.011 A 
HETATM   10 BR   UNL     1     -10.324   6.578 -34.889  1.00  0.00    -0.051 Br
HETATM   11  C   UNL     1      -9.729   5.520 -32.307  1.00  0.00     0.021 A 
HETATM   12  C   UNL     1      -9.369   4.520 -31.402  1.00  0.00     0.031 A 
HETATM   13  H   UNL     1      -8.569   2.425 -30.018  1.00  0.00     0.170 HD
ENDROOT
BRANCH   1  14
HETATM   14  C   UNL     1      -7.148  -0.122 -33.362  1.00  0.00     0.043 A 
HETATM   15  C   UNL     1      -7.620  -1.352 -33.829  1.00  0.00     0.032 A 
HETATM   16  C   UNL     1      -6.736  -2.311 -34.337  1.00  0.00     0.039 A 
HETATM   17  C   UNL     1      -5.362  -2.069 -34.373  1.00  0.00     0.068 A 
HETATM   18  C   UNL     1      -4.879  -0.854 -33.894  1.00  0.00     0.039 A 
HETATM   19  C   UNL     1      -5.766   0.106 -33.389  1.00  0.00     0.032 A 
BRANCH  17  20
HETATM   20  O   UNL     1      -4.609  -3.090 -34.881  1.00  0.00    -0.352 OA
BRANCH  20  21
HETATM   21  C   UNL     1      -4.879  -4.401 -34.388  1.00  0.00     0.171 C 
HETATM   22  C   UNL     1      -5.854  -5.071 -35.341  1.00  0.00     0.034 C 
ENDBRANCH  20  21
ENDBRANCH  17  20
ENDBRANCH   1  14
BRANCH   2  23
HETATM   23  O   UNL     1      -8.921   1.335 -34.982  1.00  0.00    -0.359 OA
HETATM   24  H   UNL     1      -7.955   1.231 -35.081  1.00  0.00     0.213 HD
ENDBRANCH   2  23
BRANCH   2  25
HETATM   25  C   UNL     1     -10.440   0.615 -33.271  1.00  0.00     0.279 C 
HETATM   26  N   UNL     1     -11.629   1.089 -33.807  1.00  0.00    -0.352 N 
HETATM   27  H   UNL     1     -11.634   1.948 -34.344  1.00  0.00     0.163 HD
HETATM   28  O   UNL     1     -10.393  -0.465 -32.672  1.00  0.00    -0.268 OA
BRANCH  26  29
HETATM   29  C   UNL     1     -12.877   0.424 -33.610  1.00  0.00     0.084 A 
HETATM   30  C   UNL     1     -14.091   1.197 -33.177  1.00  0.00     0.027 A 
HETATM   31  C   UNL     1     -14.017   0.640 -34.568  1.00  0.00     0.027 A 
ENDBRANCH  26  29
ENDBRANCH   2  25
TORSDOF 6
ENDMDL
MODEL 8
REMARK VINA RESULT:      -6.9      3.126      4.076
REMARK  6 active torsions:
REMARK  status: ('A' for Active; 'I' for Inactive)
REMARK    1  A    between atoms: C_2  and  O_3 
REMARK    2  A    between atoms: O_3  and  C_4 
REMARK    3  A    between atoms: C_7  and  N_8 
REMARK    4  A    between atoms: C_9  and  O_10 
REMARK    5  A    between atoms: C_9  and  C_11 
REMARK       I    between atoms: C_11  and  N_12 
REMARK    6  A    between atoms: N_12  and  C_13 
ROOT
HETATM    1  N   UNL     1      -9.119   2.754 -33.328  1.00  0.00    -0.254 N 
HETATM    2  C   UNL     1     -10.281   3.311 -34.033  1.00  0.00     0.256 C 
HETATM    3  C   UNL     1     -10.216   4.822 -34.022  1.00  0.00     0.035 A 
HETATM    4  C   UNL     1      -9.790   5.402 -32.829  1.00  0.00     0.048 A 
HETATM    5  N   UNL     1      -9.301   4.561 -31.831  1.00  0.00    -0.308 N 
HETATM    6  C   UNL     1      -8.858   3.275 -32.058  1.00  0.00     0.330 C 
HETATM    7  O   UNL     1      -8.192   2.745 -31.170  1.00  0.00    -0.246 OA
HETATM    8  C   UNL     1     -10.643   5.646 -35.073  1.00  0.00     0.034 A 
HETATM    9  C   UNL     1     -10.653   7.031 -34.902  1.00  0.00     0.011 A 
HETATM   10 BR   UNL     1     -11.228   8.144 -36.318  1.00  0.00    -0.051 Br
HETATM   11  C   UNL     1     -10.257   7.601 -33.691  1.00  0.00     0.021 A 
HETATM   12  C   UNL     1      -9.828   6.782 -32.645  1.00  0.00     0.031 A 
HETATM   13  H   UNL     1      -8.981   4.948 -30.952  1.00  0.00     0.170 HD
ENDROOT
BRANCH   1  14
HETATM   14  C   UNL     1      -8.463   1.569 -33.780  1.00  0.00     0.043 A 
HETATM   15  C   UNL     1      -8.851   0.299 -33.344  1.00  0.00     0.032 A 
HETATM   16  C   UNL     1      -8.162  -0.844 -33.766  1.00  0.00     0.039 A 
HETATM   17  C   UNL     1      -7.061  -0.741 -34.618  1.00  0.00     0.068 A 
HETATM   18  C   UNL     1      -6.655   0.520 -35.045  1.00  0.00     0.039 A 
HETATM   19  C   UNL     1      -7.347   1.663 -34.623  1.00  0.00     0.032 A 
BRANCH  17  20
HETATM   20  O   UNL     1      -6.472  -1.930 -34.944  1.00  0.00    -0.352 OA
BRANCH  20  21
HETATM   21  C   UNL     1      -7.000  -3.105 -34.332  1.00  0.00     0.171 C 
HETATM   22  C   UNL     1      -6.605  -4.298 -35.184  1.00  0.00     0.034 C 
ENDBRANCH  20  21
ENDBRANCH  17  20
ENDBRANCH   1  14
BRANCH   2  23
HETATM   23  O   UNL     1     -10.366   2.865 -35.390  1.00  0.00    -0.359 OA
HETATM   24  H   UNL     1      -9.492   3.083 -35.769  1.00  0.00     0.213 HD
ENDBRANCH   2  23
BRANCH   2  25
HETATM   25  C   UNL     1     -11.594   2.745 -33.333  1.00  0.00     0.279 C 
HETATM   26  N   UNL     1     -12.192   1.632 -33.907  1.00  0.00    -0.352 N 
HETATM   27  H   UNL     1     -11.803   1.228 -34.751  1.00  0.00     0.163 HD
HETATM   28  O   UNL     1     -12.006   3.214 -32.266  1.00  0.00    -0.268 OA
BRANCH  26  29
HETATM   29  C   UNL     1     -13.371   1.032 -33.368  1.00  0.00     0.084 A 
HETATM   30  C   UNL     1     -14.699   1.728 -33.482  1.00  0.00     0.027 A 
HETATM   31  C   UNL     1     -14.435   0.486 -34.281  1.00  0.00     0.027 A 
ENDBRANCH  26  29
ENDBRANCH   2  25
TORSDOF 6
ENDMDL
MODEL 9
REMARK VINA RESULT:      -6.8     15.745     17.542
REMARK  6 active torsions:
REMARK  status: ('A' for Active; 'I' for Inactive)
REMARK    1  A    between atoms: C_2  and  O_3 
REMARK    2  A    between atoms: O_3  and  C_4 
REMARK    3  A    between atoms: C_7  and  N_8 
REMARK    4  A    between atoms: C_9  and  O_10 
REMARK    5  A    between atoms: C_9  and  C_11 
REMARK       I    between atoms: C_11  and  N_12 
REMARK    6  A    between atoms: N_12  and  C_13 
ROOT
HETATM    1  N   UNL     1      -6.708 -15.253 -36.488  1.00  0.00    -0.254 N 
HETATM    2  C   UNL     1      -6.699 -14.132 -37.437  1.00  0.00     0.256 C 
HETATM    3  C   UNL     1      -7.938 -14.180 -38.303  1.00  0.00     0.035 A 
HETATM    4  C   UNL     1      -8.328 -15.446 -38.735  1.00  0.00     0.048 A 
HETATM    5  N   UNL     1      -7.668 -16.551 -38.201  1.00  0.00    -0.308 N 
HETATM    6  C   UNL     1      -6.941 -16.521 -37.029  1.00  0.00     0.330 C 
HETATM    7  O   UNL     1      -6.654 -17.602 -36.517  1.00  0.00    -0.246 OA
HETATM    8  C   UNL     1      -8.632 -13.052 -38.764  1.00  0.00     0.034 A 
HETATM    9  C   UNL     1      -9.689 -13.213 -39.662  1.00  0.00     0.011 A 
HETATM   10 BR   UNL     1     -10.626 -11.694 -40.285  1.00  0.00    -0.051 Br
HETATM   11  C   UNL     1     -10.049 -14.483 -40.115  1.00  0.00     0.021 A 
HETATM   12  C   UNL     1      -9.362 -15.607 -39.653  1.00  0.00     0.031 A 
HETATM   13  H   UNL     1      -7.927 -17.486 -38.490  1.00  0.00     0.170 HD
ENDROOT
BRANCH   1  14
HETATM   14  C   UNL     1      -6.235 -15.108 -35.148  1.00  0.00     0.043 A 
HETATM   15  C   UNL     1      -4.886 -15.267 -34.821  1.00  0.00     0.032 A 
HETATM   16  C   UNL     1      -4.455 -15.165 -33.493  1.00  0.00     0.039 A 
HETATM   17  C   UNL     1      -5.364 -14.919 -32.463  1.00  0.00     0.068 A 
HETATM   18  C   UNL     1      -6.713 -14.775 -32.776  1.00  0.00     0.039 A 
HETATM   19  C   UNL     1      -7.143 -14.875 -34.106  1.00  0.00     0.032 A 
BRANCH  17  20
HETATM   20  O   UNL     1      -4.816 -14.854 -31.213  1.00  0.00    -0.352 OA
BRANCH  20  21
HETATM   21  C   UNL     1      -4.374 -16.080 -30.635  1.00  0.00     0.171 C 
HETATM   22  C   UNL     1      -5.467 -16.583 -29.707  1.00  0.00     0.034 C 
ENDBRANCH  20  21
ENDBRANCH  17  20
ENDBRANCH   1  14
BRANCH   2  23
HETATM   23  O   UNL     1      -6.645 -12.861 -36.784  1.00  0.00    -0.359 OA
HETATM   24  H   UNL     1      -5.817 -12.459 -37.110  1.00  0.00     0.213 HD
ENDBRANCH   2  23
BRANCH   2  25
HETATM   25  C   UNL     1      -5.353 -14.218 -38.281  1.00  0.00     0.279 C 
HETATM   26  N   UNL     1      -4.271 -13.474 -37.831  1.00  0.00    -0.352 N 
HETATM   27  H   UNL     1      -4.367 -12.889 -37.010  1.00  0.00     0.163 HD
HETATM   28  O   UNL     1      -5.243 -14.993 -39.238  1.00  0.00    -0.268 OA
BRANCH  26  29
HETATM   29  C   UNL     1      -3.011 -13.472 -38.503  1.00  0.00     0.084 A 
HETATM   30  C   UNL     1      -2.034 -12.350 -38.285  1.00  0.00     0.027 A 
HETATM   31  C   UNL     1      -1.738 -13.714 -37.737  1.00  0.00     0.027 A 
ENDBRANCH  26  29
ENDBRANCH   2  25
TORSDOF 6
ENDMDL
MODEL 10
REMARK VINA RESULT:      -6.6     15.828     18.176
REMARK  6 active torsions:
REMARK  status: ('A' for Active; 'I' for Inactive)
REMARK    1  A    between atoms: C_2  and  O_3 
REMARK    2  A    between atoms: O_3  and  C_4 
REMARK    3  A    between atoms: C_7  and  N_8 
REMARK    4  A    between atoms: C_9  and  O_10 
REMARK    5  A    between atoms: C_9  and  C_11 
REMARK       I    between atoms: C_11  and  N_12 
REMARK    6  A    between atoms: N_12  and  C_13 
ROOT
HETATM    1  N   UNL     1      -4.154 -13.513 -38.663  1.00  0.00    -0.254 N 
HETATM    2  C   UNL     1      -3.633 -14.882 -38.771  1.00  0.00     0.256 C 
HETATM    3  C   UNL     1      -2.813 -15.219 -37.545  1.00  0.00     0.035 A 
HETATM    4  C   UNL     1      -1.988 -14.203 -37.069  1.00  0.00     0.048 A 
HETATM    5  N   UNL     1      -2.117 -12.936 -37.636  1.00  0.00    -0.308 N 
HETATM    6  C   UNL     1      -3.224 -12.519 -38.344  1.00  0.00     0.330 C 
HETATM    7  O   UNL     1      -3.344 -11.311 -38.542  1.00  0.00    -0.246 OA
HETATM    8  C   UNL     1      -2.761 -16.485 -36.945  1.00  0.00     0.034 A 
HETATM    9  C   UNL     1      -1.872 -16.713 -35.894  1.00  0.00     0.011 A 
HETATM   10 BR   UNL     1      -1.799 -18.419 -35.083  1.00  0.00    -0.051 Br
HETATM   11  C   UNL     1      -1.025 -15.697 -35.446  1.00  0.00     0.021 A 
HETATM   12  C   UNL     1      -1.079 -14.435 -36.040  1.00  0.00     0.031 A 
HETATM   13  H   UNL     1      -1.536 -12.173 -37.312  1.00  0.00     0.170 HD
ENDROOT
BRANCH   1  14
HETATM   14  C   UNL     1      -5.461 -13.167 -39.125  1.00  0.00     0.043 A 
HETATM   15  C   UNL     1      -5.731 -12.948 -40.478  1.00  0.00     0.032 A 
HETATM   16  C   UNL     1      -7.010 -12.566 -40.899  1.00  0.00     0.039 A 
HETATM   17  C   UNL     1      -8.041 -12.378 -39.977  1.00  0.00     0.068 A 
HETATM   18  C   UNL     1      -7.779 -12.578 -38.624  1.00  0.00     0.039 A 
HETATM   19  C   UNL     1      -6.498 -12.963 -38.204  1.00  0.00     0.032 A 
BRANCH  17  20
HETATM   20  O   UNL     1      -9.236 -11.995 -40.517  1.00  0.00    -0.352 OA
BRANCH  20  21
HETATM   21  C   UNL     1     -10.418 -12.500 -39.900  1.00  0.00     0.171 C 
HETATM   22  C   UNL     1     -10.740 -13.844 -40.529  1.00  0.00     0.034 C 
ENDBRANCH  20  21
ENDBRANCH  17  20
ENDBRANCH   1  14
BRANCH   2  23
HETATM   23  O   UNL     1      -4.672 -15.855 -38.910  1.00  0.00    -0.359 OA
HETATM   24  H   UNL     1      -5.281 -15.664 -38.171  1.00  0.00     0.213 HD
ENDBRANCH   2  23
BRANCH   2  25
HETATM   25  C   UNL     1      -2.795 -14.980 -40.120  1.00  0.00     0.279 C 
HETATM   26  N   UNL     1      -3.247 -15.867 -41.087  1.00  0.00    -0.352 N 
HETATM   27  H   UNL     1      -4.066 -16.435 -40.908  1.00  0.00     0.163 HD
HETATM   28  O   UNL     1      -1.840 -14.226 -40.340  1.00  0.00    -0.268 OA
BRANCH  26  29
HETATM   29  C   UNL     1      -2.581 -16.040 -42.339  1.00  0.00     0.084 A 
HETATM   30  C   UNL     1      -1.768 -17.277 -42.603  1.00  0.00     0.027 A 
HETATM   31  C   UNL     1      -3.066 -17.068 -43.325  1.00  0.00     0.027 A 
ENDBRANCH  26  29
ENDBRANCH   2  25
TORSDOF 6
ENDMDL
