MODEL 1
REMARK VINA RESULT:      -8.2      0.000      0.000
REMARK  7 active torsions:
REMARK  status: ('A' for Active; 'I' for Inactive)
REMARK    1  A    between atoms: C_2  and  C_3 
REMARK    2  A    between atoms: C_3  and  N_4 
REMARK       I    between atoms: N_4  and  C_5 
REMARK    3  A    between atoms: C_5  and  C_6 
REMARK    4  A    between atoms: C_8  and  N_9 
REMARK       I    between atoms: N_9  and  C_10 
REMARK    5  A    between atoms: C_10  and  C_11 
REMARK    6  A    between atoms: C_13  and  O_14 
REMARK    7  A    between atoms: O_14  and  C_15 
ROOT
HETATM    1  N   UNL     1      -4.107   3.238 -32.678  1.00  0.00    -0.323 N 
HETATM    2  C   UNL     1      -2.935   3.758 -32.155  1.00  0.00     0.256 C 
HETATM    3  O   UNL     1      -2.308   3.283 -31.210  1.00  0.00    -0.267 OA
HETATM    4  H   UNL     1      -4.647   3.809 -33.312  1.00  0.00     0.169 HD
ENDROOT
BRANCH   1   5
HETATM    5  C   UNL     1      -4.694   1.996 -32.334  1.00  0.00     0.035 A 
HETATM    6  C   UNL     1      -4.180   0.765 -32.749  1.00  0.00     0.046 A 
HETATM    7  C   UNL     1      -4.787  -0.437 -32.360  1.00  0.00     0.034 A 
HETATM    8  C   UNL     1      -5.954  -0.406 -31.593  1.00  0.00     0.017 A 
HETATM    9  C   UNL     1      -6.492   0.818 -31.197  1.00  0.00     0.003 A 
HETATM   10  C   UNL     1      -5.862   2.012 -31.563  1.00  0.00     0.029 A 
BRANCH   7  11
HETATM   11  C   UNL     1      -4.225  -1.756 -32.771  1.00  0.00     0.251 C 
HETATM   12  N   UNL     1      -4.780  -2.324 -33.902  1.00  0.00    -0.357 N 
HETATM   13  H   UNL     1      -5.344  -1.741 -34.507  1.00  0.00     0.162 HD
HETATM   14  O   UNL     1      -3.308  -2.263 -32.137  1.00  0.00    -0.268 OA
BRANCH  12  15
HETATM   15  C   UNL     1      -4.279  -3.567 -34.448  1.00  0.00     0.122 C 
BRANCH  15  16
HETATM   16  C   UNL     1      -5.388  -4.601 -34.615  1.00  0.00     0.015 C 
HETATM   17  C   UNL     1      -6.747  -3.967 -34.876  1.00  0.00     0.006 C 
ENDBRANCH  15  16
ENDBRANCH  12  15
ENDBRANCH   7  11
ENDBRANCH   1   5
BRANCH   2  18
HETATM   18  C   UNL     1      -2.400   5.011 -32.774  1.00  0.00     0.037 A 
HETATM   19  C   UNL     1      -2.500   6.271 -32.188  1.00  0.00     0.075 A 
HETATM   20  C   UNL     1      -2.029   7.356 -32.908  1.00  0.00     0.165 A 
HETATM   21  N   UNL     1      -1.473   7.273 -34.132  1.00  0.00    -0.237 NA
HETATM   22  C   UNL     1      -1.376   6.046 -34.674  1.00  0.00     0.120 A 
HETATM   23  C   UNL     1      -1.820   4.900 -34.044  1.00  0.00     0.036 A 
BRANCH  20  24
HETATM   24  O   UNL     1      -2.139   8.599 -32.312  1.00  0.00    -0.329 OA
BRANCH  24  25
HETATM   25  C   UNL     1      -2.812   8.619 -31.029  1.00  0.00     0.130 C 
HETATM   26  C   UNL     1      -3.882   9.713 -30.785  1.00  0.00     0.032 C 
HETATM   27  C   UNL     1      -2.796  10.563 -30.109  1.00  0.00     0.005 C 
HETATM   28  C   UNL     1      -1.998   9.269 -29.882  1.00  0.00     0.032 C 
ENDBRANCH  24  25
ENDBRANCH  20  24
ENDBRANCH   2  18
TORSDOF 7
ENDMDL
MODEL 2
REMARK VINA RESULT:      -8.2      1.992      2.378
REMARK  7 active torsions:
REMARK  status: ('A' for Active; 'I' for Inactive)
REMARK    1  A    between atoms: C_2  and  C_3 
REMARK    2  A    between atoms: C_3  and  N_4 
REMARK       I    between atoms: N_4  and  C_5 
REMARK    3  A    between atoms: C_5  and  C_6 
REMARK    4  A    between atoms: C_8  and  N_9 
REMARK       I    between atoms: N_9  and  C_10 
REMARK    5  A    between atoms: C_10  and  C_11 
REMARK    6  A    between atoms: C_13  and  O_14 
REMARK    7  A    between atoms: O_14  and  C_15 
ROOT
HETATM    1  N   UNL     1      -4.442   2.942 -32.747  1.00  0.00    -0.323 N 
HETATM    2  C   UNL     1      -3.227   3.054 -32.092  1.00  0.00     0.256 C 
HETATM    3  O   UNL     1      -2.820   2.290 -31.219  1.00  0.00    -0.267 OA
HETATM    4  H   UNL     1      -4.768   3.726 -33.295  1.00  0.00     0.169 HD
ENDROOT
BRANCH   1   5
HETATM    5  C   UNL     1      -5.346   1.856 -32.648  1.00  0.00     0.035 A 
HETATM    6  C   UNL     1      -5.136   0.627 -33.277  1.00  0.00     0.046 A 
HETATM    7  C   UNL     1      -6.052  -0.424 -33.126  1.00  0.00     0.034 A 
HETATM    8  C   UNL     1      -7.219  -0.224 -32.385  1.00  0.00     0.017 A 
HETATM    9  C   UNL     1      -7.453   1.010 -31.777  1.00  0.00     0.003 A 
HETATM   10  C   UNL     1      -6.518   2.042 -31.905  1.00  0.00     0.029 A 
BRANCH   7  11
HETATM   11  C   UNL     1      -5.819  -1.751 -33.766  1.00  0.00     0.251 C 
HETATM   12  N   UNL     1      -4.517  -2.212 -33.746  1.00  0.00    -0.357 N 
HETATM   13  H   UNL     1      -3.858  -1.768 -33.120  1.00  0.00     0.162 HD
HETATM   14  O   UNL     1      -6.755  -2.380 -34.245  1.00  0.00    -0.268 OA
BRANCH  12  15
HETATM   15  C   UNL     1      -4.167  -3.515 -34.270  1.00  0.00     0.122 C 
BRANCH  15  16
HETATM   16  C   UNL     1      -3.526  -4.401 -33.206  1.00  0.00     0.015 C 
HETATM   17  C   UNL     1      -3.038  -3.610 -32.001  1.00  0.00     0.006 C 
ENDBRANCH  15  16
ENDBRANCH  12  15
ENDBRANCH   7  11
ENDBRANCH   1   5
BRANCH   2  18
HETATM   18  C   UNL     1      -2.347   4.205 -32.462  1.00  0.00     0.037 A 
HETATM   19  C   UNL     1      -1.515   4.867 -31.562  1.00  0.00     0.075 A 
HETATM   20  C   UNL     1      -0.812   5.968 -32.022  1.00  0.00     0.165 A 
HETATM   21  N   UNL     1      -0.874   6.437 -33.284  1.00  0.00    -0.237 NA
HETATM   22  C   UNL     1      -1.675   5.776 -34.139  1.00  0.00     0.120 A 
HETATM   23  C   UNL     1      -2.423   4.671 -33.781  1.00  0.00     0.036 A 
BRANCH  20  24
HETATM   24  O   UNL     1       0.008   6.613 -31.115  1.00  0.00    -0.329 OA
BRANCH  24  25
HETATM   25  C   UNL     1      -0.492   6.676 -29.756  1.00  0.00     0.130 C 
HETATM   26  C   UNL     1      -0.546   8.061 -29.063  1.00  0.00     0.032 C 
HETATM   27  C   UNL     1       0.820   7.750 -28.433  1.00  0.00     0.005 C 
HETATM   28  C   UNL     1       0.532   6.258 -28.671  1.00  0.00     0.032 C 
ENDBRANCH  24  25
ENDBRANCH  20  24
ENDBRANCH   2  18
TORSDOF 7
ENDMDL
MODEL 3
REMARK VINA RESULT:      -8.0      2.801      9.574
REMARK  7 active torsions:
REMARK  status: ('A' for Active; 'I' for Inactive)
REMARK    1  A    between atoms: C_2  and  C_3 
REMARK    2  A    between atoms: C_3  and  N_4 
REMARK       I    between atoms: N_4  and  C_5 
REMARK    3  A    between atoms: C_5  and  C_6 
REMARK    4  A    between atoms: C_8  and  N_9 
REMARK       I    between atoms: N_9  and  C_10 
REMARK    5  A    between atoms: C_10  and  C_11 
REMARK    6  A    between atoms: C_13  and  O_14 
REMARK    7  A    between atoms: O_14  and  C_15 
ROOT
HETATM    1  N   UNL     1      -3.694   3.030 -32.967  1.00  0.00    -0.323 N 
HETATM    2  C   UNL     1      -5.032   3.083 -32.613  1.00  0.00     0.256 C 
HETATM    3  O   UNL     1      -5.547   3.955 -31.917  1.00  0.00    -0.267 OA
HETATM    4  H   UNL     1      -3.335   2.175 -33.365  1.00  0.00     0.169 HD
ENDROOT
BRANCH   1   5
HETATM    5  C   UNL     1      -2.730   4.041 -32.733  1.00  0.00     0.035 A 
HETATM    6  C   UNL     1      -1.964   4.112 -31.568  1.00  0.00     0.046 A 
HETATM    7  C   UNL     1      -1.005   5.121 -31.397  1.00  0.00     0.034 A 
HETATM    8  C   UNL     1      -0.850   6.102 -32.380  1.00  0.00     0.017 A 
HETATM    9  C   UNL     1      -1.631   6.057 -33.535  1.00  0.00     0.003 A 
HETATM   10  C   UNL     1      -2.563   5.029 -33.712  1.00  0.00     0.029 A 
BRANCH   7  11
HETATM   11  C   UNL     1      -0.159   5.186 -30.171  1.00  0.00     0.251 C 
HETATM   12  N   UNL     1      -0.593   6.046 -29.181  1.00  0.00    -0.357 N 
HETATM   13  H   UNL     1      -1.542   6.394 -29.227  1.00  0.00     0.162 HD
HETATM   14  O   UNL     1       0.838   4.482 -30.069  1.00  0.00    -0.268 OA
BRANCH  12  15
HETATM   15  C   UNL     1       0.096   6.151 -27.913  1.00  0.00     0.122 C 
BRANCH  15  16
HETATM   16  C   UNL     1       0.998   7.380 -27.856  1.00  0.00     0.015 C 
HETATM   17  C   UNL     1       1.551   7.637 -26.462  1.00  0.00     0.006 C 
ENDBRANCH  15  16
ENDBRANCH  12  15
ENDBRANCH   7  11
ENDBRANCH   1   5
BRANCH   2  18
HETATM   18  C   UNL     1      -5.918   1.979 -33.098  1.00  0.00     0.037 A 
HETATM   19  C   UNL     1      -5.595   0.627 -33.008  1.00  0.00     0.075 A 
HETATM   20  C   UNL     1      -6.473  -0.284 -33.569  1.00  0.00     0.165 A 
HETATM   21  N   UNL     1      -7.623   0.048 -34.188  1.00  0.00    -0.237 NA
HETATM   22  C   UNL     1      -7.920   1.358 -34.253  1.00  0.00     0.120 A 
HETATM   23  C   UNL     1      -7.111   2.349 -33.732  1.00  0.00     0.036 A 
BRANCH  20  24
HETATM   24  O   UNL     1      -6.136  -1.622 -33.471  1.00  0.00    -0.329 OA
BRANCH  24  25
HETATM   25  C   UNL     1      -5.998  -2.326 -34.730  1.00  0.00     0.130 C 
HETATM   26  C   UNL     1      -6.700  -3.699 -34.878  1.00  0.00     0.032 C 
HETATM   27  C   UNL     1      -5.376  -4.369 -34.481  1.00  0.00     0.005 C 
HETATM   28  C   UNL     1      -4.656  -3.079 -34.906  1.00  0.00     0.032 C 
ENDBRANCH  24  25
ENDBRANCH  20  24
ENDBRANCH   2  18
TORSDOF 7
ENDMDL
MODEL 4
REMARK VINA RESULT:      -7.9      2.039      2.436
REMARK  7 active torsions:
REMARK  status: ('A' for Active; 'I' for Inactive)
REMARK    1  A    between atoms: C_2  and  C_3 
REMARK    2  A    between atoms: C_3  and  N_4 
REMARK       I    between atoms: N_4  and  C_5 
REMARK    3  A    between atoms: C_5  and  C_6 
REMARK    4  A    between atoms: C_8  and  N_9 
REMARK       I    between atoms: N_9  and  C_10 
REMARK    5  A    between atoms: C_10  and  C_11 
REMARK    6  A    between atoms: C_13  and  O_14 
REMARK    7  A    between atoms: O_14  and  C_15 
ROOT
HETATM    1  N   UNL     1      -3.257   3.323 -31.221  1.00  0.00    -0.323 N 
HETATM    2  C   UNL     1      -3.219   4.204 -32.289  1.00  0.00     0.256 C 
HETATM    3  O   UNL     1      -3.754   4.018 -33.379  1.00  0.00    -0.267 OA
HETATM    4  H   UNL     1      -2.623   3.475 -30.449  1.00  0.00     0.169 HD
ENDROOT
BRANCH   1   5
HETATM    5  C   UNL     1      -4.041   2.147 -31.137  1.00  0.00     0.035 A 
HETATM    6  C   UNL     1      -3.705   0.957 -31.787  1.00  0.00     0.046 A 
HETATM    7  C   UNL     1      -4.505  -0.187 -31.652  1.00  0.00     0.034 A 
HETATM    8  C   UNL     1      -5.683  -0.124 -30.904  1.00  0.00     0.017 A 
HETATM    9  C   UNL     1      -6.043   1.069 -30.275  1.00  0.00     0.003 A 
HETATM   10  C   UNL     1      -5.223   2.196 -30.388  1.00  0.00     0.029 A 
BRANCH   7  11
HETATM   11  C   UNL     1      -4.137  -1.472 -32.315  1.00  0.00     0.251 C 
HETATM   12  N   UNL     1      -4.902  -1.830 -33.407  1.00  0.00    -0.357 N 
HETATM   13  H   UNL     1      -5.491  -1.126 -33.835  1.00  0.00     0.162 HD
HETATM   14  O   UNL     1      -3.188  -2.129 -31.905  1.00  0.00    -0.268 OA
BRANCH  12  15
HETATM   15  C   UNL     1      -4.607  -3.015 -34.183  1.00  0.00     0.122 C 
BRANCH  15  16
HETATM   16  C   UNL     1      -5.632  -3.239 -35.290  1.00  0.00     0.015 C 
HETATM   17  C   UNL     1      -6.356  -4.571 -35.157  1.00  0.00     0.006 C 
ENDBRANCH  15  16
ENDBRANCH  12  15
ENDBRANCH   7  11
ENDBRANCH   1   5
BRANCH   2  18
HETATM   18  C   UNL     1      -2.450   5.474 -32.109  1.00  0.00     0.037 A 
HETATM   19  C   UNL     1      -1.991   5.937 -30.877  1.00  0.00     0.075 A 
HETATM   20  C   UNL     1      -1.359   7.169 -30.845  1.00  0.00     0.165 A 
HETATM   21  N   UNL     1      -1.152   7.945 -31.926  1.00  0.00    -0.237 NA
HETATM   22  C   UNL     1      -1.593   7.474 -33.106  1.00  0.00     0.120 A 
HETATM   23  C   UNL     1      -2.240   6.263 -33.248  1.00  0.00     0.036 A 
BRANCH  20  24
HETATM   24  O   UNL     1      -0.912   7.612 -29.614  1.00  0.00    -0.329 OA
BRANCH  24  25
HETATM   25  C   UNL     1       0.458   7.273 -29.288  1.00  0.00     0.130 C 
HETATM   26  C   UNL     1       0.705   6.130 -28.271  1.00  0.00     0.032 C 
HETATM   27  C   UNL     1       0.818   7.196 -27.170  1.00  0.00     0.005 C 
HETATM   28  C   UNL     1       1.134   8.223 -28.269  1.00  0.00     0.032 C 
ENDBRANCH  24  25
ENDBRANCH  20  24
ENDBRANCH   2  18
TORSDOF 7
ENDMDL
MODEL 5
REMARK VINA RESULT:      -7.4      3.094      4.090
REMARK  7 active torsions:
REMARK  status: ('A' for Active; 'I' for Inactive)
REMARK    1  A    between atoms: C_2  and  C_3 
REMARK    2  A    between atoms: C_3  and  N_4 
REMARK       I    between atoms: N_4  and  C_5 
REMARK    3  A    between atoms: C_5  and  C_6 
REMARK    4  A    between atoms: C_8  and  N_9 
REMARK       I    between atoms: N_9  and  C_10 
REMARK    5  A    between atoms: C_10  and  C_11 
REMARK    6  A    between atoms: C_13  and  O_14 
REMARK    7  A    between atoms: O_14  and  C_15 
ROOT
HETATM    1  N   UNL     1      -4.245   2.979 -32.872  1.00  0.00    -0.323 N 
HETATM    2  C   UNL     1      -3.097   3.192 -32.129  1.00  0.00     0.256 C 
HETATM    3  O   UNL     1      -2.739   2.515 -31.167  1.00  0.00    -0.267 OA
HETATM    4  H   UNL     1      -4.551   3.704 -33.505  1.00  0.00     0.169 HD
ENDROOT
BRANCH   1   5
HETATM    5  C   UNL     1      -5.112   1.864 -32.765  1.00  0.00     0.035 A 
HETATM    6  C   UNL     1      -6.496   1.983 -32.616  1.00  0.00     0.046 A 
HETATM    7  C   UNL     1      -7.312   0.845 -32.539  1.00  0.00     0.034 A 
HETATM    8  C   UNL     1      -6.731  -0.426 -32.555  1.00  0.00     0.017 A 
HETATM    9  C   UNL     1      -5.347  -0.555 -32.674  1.00  0.00     0.003 A 
HETATM   10  C   UNL     1      -4.543   0.585 -32.783  1.00  0.00     0.029 A 
BRANCH   7  11
HETATM   11  C   UNL     1      -8.793   0.962 -32.413  1.00  0.00     0.251 C 
HETATM   12  N   UNL     1      -9.376   2.016 -33.088  1.00  0.00    -0.357 N 
HETATM   13  H   UNL     1      -8.834   2.494 -33.797  1.00  0.00     0.162 HD
HETATM   14  O   UNL     1      -9.426   0.138 -31.764  1.00  0.00    -0.268 OA
BRANCH  12  15
HETATM   15  C   UNL     1     -10.811   2.203 -33.106  1.00  0.00     0.122 C 
BRANCH  15  16
HETATM   16  C   UNL     1     -11.467   1.451 -34.260  1.00  0.00     0.015 C 
HETATM   17  C   UNL     1     -12.750   0.744 -33.845  1.00  0.00     0.006 C 
ENDBRANCH  15  16
ENDBRANCH  12  15
ENDBRANCH   7  11
ENDBRANCH   1   5
BRANCH   2  18
HETATM   18  C   UNL     1      -2.232   4.351 -32.512  1.00  0.00     0.037 A 
HETATM   19  C   UNL     1      -1.463   5.079 -31.606  1.00  0.00     0.075 A 
HETATM   20  C   UNL     1      -0.770   6.178 -32.086  1.00  0.00     0.165 A 
HETATM   21  N   UNL     1      -0.783   6.585 -33.370  1.00  0.00    -0.237 NA
HETATM   22  C   UNL     1      -1.524   5.861 -34.229  1.00  0.00     0.120 A 
HETATM   23  C   UNL     1      -2.257   4.753 -33.854  1.00  0.00     0.036 A 
BRANCH  20  24
HETATM   24  O   UNL     1      -0.013   6.888 -31.173  1.00  0.00    -0.329 OA
BRANCH  24  25
HETATM   25  C   UNL     1      -0.466   6.822 -29.799  1.00  0.00     0.130 C 
HETATM   26  C   UNL     1      -0.615   8.150 -29.014  1.00  0.00     0.032 C 
HETATM   27  C   UNL     1       0.796   7.923 -28.449  1.00  0.00     0.005 C 
HETATM   28  C   UNL     1       0.630   6.430 -28.775  1.00  0.00     0.032 C 
ENDBRANCH  24  25
ENDBRANCH  20  24
ENDBRANCH   2  18
TORSDOF 7
ENDMDL
MODEL 6
REMARK VINA RESULT:      -7.3      5.416      7.883
REMARK  7 active torsions:
REMARK  status: ('A' for Active; 'I' for Inactive)
REMARK    1  A    between atoms: C_2  and  C_3 
REMARK    2  A    between atoms: C_3  and  N_4 
REMARK       I    between atoms: N_4  and  C_5 
REMARK    3  A    between atoms: C_5  and  C_6 
REMARK    4  A    between atoms: C_8  and  N_9 
REMARK       I    between atoms: N_9  and  C_10 
REMARK    5  A    between atoms: C_10  and  C_11 
REMARK    6  A    between atoms: C_13  and  O_14 
REMARK    7  A    between atoms: O_14  and  C_15 
ROOT
HETATM    1  N   UNL     1      -8.274   1.846 -32.608  1.00  0.00    -0.323 N 
HETATM    2  C   UNL     1      -8.240   2.957 -33.434  1.00  0.00     0.256 C 
HETATM    3  O   UNL     1      -7.241   3.631 -33.675  1.00  0.00    -0.267 OA
HETATM    4  H   UNL     1      -9.173   1.489 -32.318  1.00  0.00     0.169 HD
ENDROOT
BRANCH   1   5
HETATM    5  C   UNL     1      -7.152   1.200 -32.033  1.00  0.00     0.035 A 
HETATM    6  C   UNL     1      -6.465   0.158 -32.660  1.00  0.00     0.046 A 
HETATM    7  C   UNL     1      -5.345  -0.431 -32.057  1.00  0.00     0.034 A 
HETATM    8  C   UNL     1      -4.942  -0.011 -30.787  1.00  0.00     0.017 A 
HETATM    9  C   UNL     1      -5.639   1.009 -30.140  1.00  0.00     0.003 A 
HETATM   10  C   UNL     1      -6.736   1.614 -30.762  1.00  0.00     0.029 A 
BRANCH   7  11
HETATM   11  C   UNL     1      -4.586  -1.522 -32.734  1.00  0.00     0.251 C 
HETATM   12  N   UNL     1      -5.160  -2.039 -33.878  1.00  0.00    -0.357 N 
HETATM   13  H   UNL     1      -5.910  -1.520 -34.319  1.00  0.00     0.162 HD
HETATM   14  O   UNL     1      -3.506  -1.891 -32.290  1.00  0.00    -0.268 OA
BRANCH  12  15
HETATM   15  C   UNL     1      -4.494  -3.052 -34.669  1.00  0.00     0.122 C 
BRANCH  15  16
HETATM   16  C   UNL     1      -5.171  -4.412 -34.537  1.00  0.00     0.015 C 
HETATM   17  C   UNL     1      -6.509  -4.475 -35.259  1.00  0.00     0.006 C 
ENDBRANCH  15  16
ENDBRANCH  12  15
ENDBRANCH   7  11
ENDBRANCH   1   5
BRANCH   2  18
HETATM   18  C   UNL     1      -9.526   3.384 -34.069  1.00  0.00     0.037 A 
HETATM   19  C   UNL     1     -10.638   2.555 -34.206  1.00  0.00     0.075 A 
HETATM   20  C   UNL     1     -11.736   3.056 -34.884  1.00  0.00     0.165 A 
HETATM   21  N   UNL     1     -11.805   4.294 -35.412  1.00  0.00    -0.237 NA
HETATM   22  C   UNL     1     -10.724   5.080 -35.259  1.00  0.00     0.120 A 
HETATM   23  C   UNL     1      -9.576   4.677 -34.606  1.00  0.00     0.036 A 
BRANCH  20  24
HETATM   24  O   UNL     1     -12.829   2.219 -35.011  1.00  0.00    -0.329 OA
BRANCH  24  25
HETATM   25  C   UNL     1     -13.168   1.449 -33.832  1.00  0.00     0.130 C 
HETATM   26  C   UNL     1     -14.233   0.333 -33.971  1.00  0.00     0.032 C 
HETATM   27  C   UNL     1     -15.287   1.339 -33.486  1.00  0.00     0.005 C 
HETATM   28  C   UNL     1     -14.145   2.155 -32.858  1.00  0.00     0.032 C 
ENDBRANCH  24  25
ENDBRANCH  20  24
ENDBRANCH   2  18
TORSDOF 7
ENDMDL
MODEL 7
REMARK VINA RESULT:      -7.2      2.908      9.145
REMARK  7 active torsions:
REMARK  status: ('A' for Active; 'I' for Inactive)
REMARK    1  A    between atoms: C_2  and  C_3 
REMARK    2  A    between atoms: C_3  and  N_4 
REMARK       I    between atoms: N_4  and  C_5 
REMARK    3  A    between atoms: C_5  and  C_6 
REMARK    4  A    between atoms: C_8  and  N_9 
REMARK       I    between atoms: N_9  and  C_10 
REMARK    5  A    between atoms: C_10  and  C_11 
REMARK    6  A    between atoms: C_13  and  O_14 
REMARK    7  A    between atoms: O_14  and  C_15 
ROOT
HETATM    1  N   UNL     1      -3.361   3.367 -32.916  1.00  0.00    -0.323 N 
HETATM    2  C   UNL     1      -3.442   2.271 -32.073  1.00  0.00     0.256 C 
HETATM    3  O   UNL     1      -2.715   2.070 -31.102  1.00  0.00    -0.267 OA
HETATM    4  H   UNL     1      -3.862   3.338 -33.792  1.00  0.00     0.169 HD
ENDROOT
BRANCH   1   5
HETATM    5  C   UNL     1      -2.553   4.513 -32.719  1.00  0.00     0.035 A 
HETATM    6  C   UNL     1      -2.371   5.116 -31.472  1.00  0.00     0.046 A 
HETATM    7  C   UNL     1      -1.539   6.236 -31.328  1.00  0.00     0.034 A 
HETATM    8  C   UNL     1      -0.928   6.793 -32.454  1.00  0.00     0.017 A 
HETATM    9  C   UNL     1      -1.127   6.216 -33.709  1.00  0.00     0.003 A 
HETATM   10  C   UNL     1      -1.932   5.079 -33.839  1.00  0.00     0.029 A 
BRANCH   7  11
HETATM   11  C   UNL     1      -1.313   6.865 -29.995  1.00  0.00     0.251 C 
HETATM   12  N   UNL     1      -0.667   6.083 -29.059  1.00  0.00    -0.357 N 
HETATM   13  H   UNL     1      -0.185   5.250 -29.375  1.00  0.00     0.162 HD
HETATM   14  O   UNL     1      -1.666   8.019 -29.789  1.00  0.00    -0.268 OA
BRANCH  12  15
HETATM   15  C   UNL     1      -0.323   6.597 -27.750  1.00  0.00     0.122 C 
BRANCH  15  16
HETATM   16  C   UNL     1       1.038   7.285 -27.750  1.00  0.00     0.015 C 
HETATM   17  C   UNL     1       1.509   7.654 -26.350  1.00  0.00     0.006 C 
ENDBRANCH  15  16
ENDBRANCH  12  15
ENDBRANCH   7  11
ENDBRANCH   1   5
BRANCH   2  18
HETATM   18  C   UNL     1      -4.481   1.240 -32.379  1.00  0.00     0.037 A 
HETATM   19  C   UNL     1      -5.745   1.537 -32.883  1.00  0.00     0.075 A 
HETATM   20  C   UNL     1      -6.637   0.490 -33.047  1.00  0.00     0.165 A 
HETATM   21  N   UNL     1      -6.360  -0.797 -32.760  1.00  0.00    -0.237 NA
HETATM   22  C   UNL     1      -5.130  -1.062 -32.284  1.00  0.00     0.120 A 
HETATM   23  C   UNL     1      -4.169  -0.092 -32.078  1.00  0.00     0.036 A 
BRANCH  20  24
HETATM   24  O   UNL     1      -7.887   0.804 -33.547  1.00  0.00    -0.329 OA
BRANCH  24  25
HETATM   25  C   UNL     1      -8.969   0.779 -32.585  1.00  0.00     0.130 C 
HETATM   26  C   UNL     1     -10.331   0.192 -33.035  1.00  0.00     0.032 C 
HETATM   27  C   UNL     1     -10.792   1.622 -33.356  1.00  0.00     0.005 C 
HETATM   28  C   UNL     1      -9.701   2.133 -32.400  1.00  0.00     0.032 C 
ENDBRANCH  24  25
ENDBRANCH  20  24
ENDBRANCH   2  18
TORSDOF 7
ENDMDL
MODEL 8
REMARK VINA RESULT:      -7.0      2.626      9.471
REMARK  7 active torsions:
REMARK  status: ('A' for Active; 'I' for Inactive)
REMARK    1  A    between atoms: C_2  and  C_3 
REMARK    2  A    between atoms: C_3  and  N_4 
REMARK       I    between atoms: N_4  and  C_5 
REMARK    3  A    between atoms: C_5  and  C_6 
REMARK    4  A    between atoms: C_8  and  N_9 
REMARK       I    between atoms: N_9  and  C_10 
REMARK    5  A    between atoms: C_10  and  C_11 
REMARK    6  A    between atoms: C_13  and  O_14 
REMARK    7  A    between atoms: O_14  and  C_15 
ROOT
HETATM    1  N   UNL     1      -6.041   3.124 -32.128  1.00  0.00    -0.323 N 
HETATM    2  C   UNL     1      -5.528   1.843 -32.250  1.00  0.00     0.256 C 
HETATM    3  O   UNL     1      -4.546   1.413 -31.649  1.00  0.00    -0.267 OA
HETATM    4  H   UNL     1      -6.717   3.438 -32.808  1.00  0.00     0.169 HD
ENDROOT
BRANCH   1   5
HETATM    5  C   UNL     1      -5.633   4.099 -31.185  1.00  0.00     0.035 A 
HETATM    6  C   UNL     1      -4.576   4.984 -31.408  1.00  0.00     0.046 A 
HETATM    7  C   UNL     1      -4.229   5.947 -30.449  1.00  0.00     0.034 A 
HETATM    8  C   UNL     1      -4.911   5.987 -29.230  1.00  0.00     0.017 A 
HETATM    9  C   UNL     1      -5.949   5.087 -28.986  1.00  0.00     0.003 A 
HETATM   10  C   UNL     1      -6.310   4.151 -29.960  1.00  0.00     0.029 A 
BRANCH   7  11
HETATM   11  C   UNL     1      -3.124   6.918 -30.693  1.00  0.00     0.251 C 
HETATM   12  N   UNL     1      -1.960   6.391 -31.217  1.00  0.00    -0.357 N 
HETATM   13  H   UNL     1      -1.989   5.462 -31.617  1.00  0.00     0.162 HD
HETATM   14  O   UNL     1      -3.285   8.110 -30.458  1.00  0.00    -0.268 OA
BRANCH  12  15
HETATM   15  C   UNL     1      -0.837   7.234 -31.566  1.00  0.00     0.122 C 
BRANCH  15  16
HETATM   16  C   UNL     1       0.484   6.653 -31.073  1.00  0.00     0.015 C 
HETATM   17  C   UNL     1       0.296   5.617 -29.974  1.00  0.00     0.006 C 
ENDBRANCH  15  16
ENDBRANCH  12  15
ENDBRANCH   7  11
ENDBRANCH   1   5
BRANCH   2  18
HETATM   18  C   UNL     1      -6.211   0.914 -33.203  1.00  0.00     0.037 A 
HETATM   19  C   UNL     1      -6.121  -0.475 -33.134  1.00  0.00     0.075 A 
HETATM   20  C   UNL     1      -6.742  -1.211 -34.128  1.00  0.00     0.165 A 
HETATM   21  N   UNL     1      -7.434  -0.676 -35.153  1.00  0.00    -0.237 NA
HETATM   22  C   UNL     1      -7.517   0.666 -35.193  1.00  0.00     0.120 A 
HETATM   23  C   UNL     1      -6.931   1.493 -34.256  1.00  0.00     0.036 A 
BRANCH  20  24
HETATM   24  O   UNL     1      -6.640  -2.588 -34.044  1.00  0.00    -0.329 OA
BRANCH  24  25
HETATM   25  C   UNL     1      -5.775  -3.212 -35.024  1.00  0.00     0.130 C 
HETATM   26  C   UNL     1      -6.037  -4.695 -35.389  1.00  0.00     0.032 C 
HETATM   27  C   UNL     1      -4.974  -5.092 -34.354  1.00  0.00     0.005 C 
HETATM   28  C   UNL     1      -4.401  -3.670 -34.474  1.00  0.00     0.032 C 
ENDBRANCH  24  25
ENDBRANCH  20  24
ENDBRANCH   2  18
TORSDOF 7
ENDMDL
MODEL 9
REMARK VINA RESULT:      -7.0      5.604      7.686
REMARK  7 active torsions:
REMARK  status: ('A' for Active; 'I' for Inactive)
REMARK    1  A    between atoms: C_2  and  C_3 
REMARK    2  A    between atoms: C_3  and  N_4 
REMARK       I    between atoms: N_4  and  C_5 
REMARK    3  A    between atoms: C_5  and  C_6 
REMARK    4  A    between atoms: C_8  and  N_9 
REMARK       I    between atoms: N_9  and  C_10 
REMARK    5  A    between atoms: C_10  and  C_11 
REMARK    6  A    between atoms: C_13  and  O_14 
REMARK    7  A    between atoms: O_14  and  C_15 
ROOT
HETATM    1  N   UNL     1      -8.689   1.020 -32.122  1.00  0.00    -0.323 N 
HETATM    2  C   UNL     1      -9.053   1.746 -33.244  1.00  0.00     0.256 C 
HETATM    3  O   UNL     1      -8.271   2.318 -34.001  1.00  0.00    -0.267 OA
HETATM    4  H   UNL     1      -9.408   0.765 -31.460  1.00  0.00     0.169 HD
ENDROOT
BRANCH   1   5
HETATM    5  C   UNL     1      -7.369   0.672 -31.745  1.00  0.00     0.035 A 
HETATM    6  C   UNL     1      -6.637  -0.340 -32.370  1.00  0.00     0.046 A 
HETATM    7  C   UNL     1      -5.323  -0.627 -31.973  1.00  0.00     0.034 A 
HETATM    8  C   UNL     1      -4.756   0.067 -30.902  1.00  0.00     0.017 A 
HETATM    9  C   UNL     1      -5.490   1.059 -30.252  1.00  0.00     0.003 A 
HETATM   10  C   UNL     1      -6.788   1.363 -30.675  1.00  0.00     0.029 A 
BRANCH   7  11
HETATM   11  C   UNL     1      -4.522  -1.683 -32.657  1.00  0.00     0.251 C 
HETATM   12  N   UNL     1      -5.093  -2.242 -33.784  1.00  0.00    -0.357 N 
HETATM   13  H   UNL     1      -5.878  -1.767 -34.212  1.00  0.00     0.162 HD
HETATM   14  O   UNL     1      -3.414  -1.991 -32.234  1.00  0.00    -0.268 OA
BRANCH  12  15
HETATM   15  C   UNL     1      -4.392  -3.226 -34.580  1.00  0.00     0.122 C 
BRANCH  15  16
HETATM   16  C   UNL     1      -5.105  -4.574 -34.574  1.00  0.00     0.015 C 
HETATM   17  C   UNL     1      -6.456  -4.527 -35.272  1.00  0.00     0.006 C 
ENDBRANCH  15  16
ENDBRANCH  12  15
ENDBRANCH   7  11
ENDBRANCH   1   5
BRANCH   2  18
HETATM   18  C   UNL     1     -10.513   1.863 -33.547  1.00  0.00     0.037 A 
HETATM   19  C   UNL     1     -11.162   3.072 -33.785  1.00  0.00     0.075 A 
HETATM   20  C   UNL     1     -12.533   3.041 -33.977  1.00  0.00     0.165 A 
HETATM   21  N   UNL     1     -13.279   1.919 -33.957  1.00  0.00    -0.237 NA
HETATM   22  C   UNL     1     -12.629   0.762 -33.736  1.00  0.00     0.120 A 
HETATM   23  C   UNL     1     -11.267   0.682 -33.527  1.00  0.00     0.036 A 
BRANCH  20  24
HETATM   24  O   UNL     1     -13.161   4.250 -34.210  1.00  0.00    -0.329 OA
BRANCH  24  25
HETATM   25  C   UNL     1     -12.452   5.165 -35.082  1.00  0.00     0.130 C 
HETATM   26  C   UNL     1     -11.912   6.483 -34.472  1.00  0.00     0.032 C 
HETATM   27  C   UNL     1     -13.192   7.180 -34.957  1.00  0.00     0.005 C 
HETATM   28  C   UNL     1     -13.363   6.042 -35.977  1.00  0.00     0.032 C 
ENDBRANCH  24  25
ENDBRANCH  20  24
ENDBRANCH   2  18
TORSDOF 7
ENDMDL
MODEL 10
REMARK VINA RESULT:      -6.8      6.403      8.770
REMARK  7 active torsions:
REMARK  status: ('A' for Active; 'I' for Inactive)
REMARK    1  A    between atoms: C_2  and  C_3 
REMARK    2  A    between atoms: C_3  and  N_4 
REMARK       I    between atoms: N_4  and  C_5 
REMARK    3  A    between atoms: C_5  and  C_6 
REMARK    4  A    between atoms: C_8  and  N_9 
REMARK       I    between atoms: N_9  and  C_10 
REMARK    5  A    between atoms: C_10  and  C_11 
REMARK    6  A    between atoms: C_13  and  O_14 
REMARK    7  A    between atoms: O_14  and  C_15 
ROOT
HETATM    1  N   UNL     1      -9.830   1.207 -32.264  1.00  0.00    -0.323 N 
HETATM    2  C   UNL     1     -10.418   1.958 -33.268  1.00  0.00     0.256 C 
HETATM    3  O   UNL     1      -9.818   2.707 -34.035  1.00  0.00    -0.267 OA
HETATM    4  H   UNL     1     -10.426   0.786 -31.565  1.00  0.00     0.169 HD
ENDROOT
BRANCH   1   5
HETATM    5  C   UNL     1      -8.439   1.044 -32.050  1.00  0.00     0.035 A 
HETATM    6  C   UNL     1      -7.641   0.197 -32.823  1.00  0.00     0.046 A 
HETATM    7  C   UNL     1      -6.263   0.091 -32.585  1.00  0.00     0.034 A 
HETATM    8  C   UNL     1      -5.688   0.796 -31.525  1.00  0.00     0.017 A 
HETATM    9  C   UNL     1      -6.482   1.621 -30.728  1.00  0.00     0.003 A 
HETATM   10  C   UNL     1      -7.849   1.747 -30.993  1.00  0.00     0.029 A 
BRANCH   7  11
HETATM   11  C   UNL     1      -5.397  -0.785 -33.426  1.00  0.00     0.251 C 
HETATM   12  N   UNL     1      -6.054  -1.724 -34.197  1.00  0.00    -0.357 N 
HETATM   13  H   UNL     1      -7.052  -1.623 -34.334  1.00  0.00     0.162 HD
HETATM   14  O   UNL     1      -4.182  -0.633 -33.431  1.00  0.00    -0.268 OA
BRANCH  12  15
HETATM   15  C   UNL     1      -5.339  -2.589 -35.111  1.00  0.00     0.122 C 
BRANCH  15  16
HETATM   16  C   UNL     1      -5.495  -4.060 -34.740  1.00  0.00     0.015 C 
HETATM   17  C   UNL     1      -6.751  -4.684 -35.330  1.00  0.00     0.006 C 
ENDBRANCH  15  16
ENDBRANCH  12  15
ENDBRANCH   7  11
ENDBRANCH   1   5
BRANCH   2  18
HETATM   18  C   UNL     1     -11.903   1.865 -33.419  1.00  0.00     0.037 A 
HETATM   19  C   UNL     1     -12.802   2.731 -32.798  1.00  0.00     0.075 A 
HETATM   20  C   UNL     1     -14.154   2.482 -32.963  1.00  0.00     0.165 A 
HETATM   21  N   UNL     1     -14.658   1.465 -33.689  1.00  0.00    -0.237 NA
HETATM   22  C   UNL     1     -13.772   0.649 -34.287  1.00  0.00     0.120 A 
HETATM   23  C   UNL     1     -12.404   0.804 -34.183  1.00  0.00     0.036 A 
BRANCH  20  24
HETATM   24  O   UNL     1     -15.031   3.350 -32.339  1.00  0.00    -0.329 OA
BRANCH  24  25
HETATM   25  C   UNL     1     -14.569   4.717 -32.206  1.00  0.00     0.130 C 
HETATM   26  C   UNL     1     -14.446   5.310 -30.780  1.00  0.00     0.032 C 
HETATM   27  C   UNL     1     -15.848   5.913 -30.957  1.00  0.00     0.005 C 
HETATM   28  C   UNL     1     -15.650   5.793 -32.477  1.00  0.00     0.032 C 
ENDBRANCH  24  25
ENDBRANCH  20  24
ENDBRANCH   2  18
TORSDOF 7
ENDMDL
