MODEL 1
REMARK VINA RESULT:     -10.4      0.000      0.000
REMARK  9 active torsions:
REMARK  status: ('A' for Active; 'I' for Inactive)
REMARK    1  A    between atoms: C_2  and  O_3 
REMARK    2  A    between atoms: O_3  and  C_4 
REMARK    3  A    between atoms: C_7  and  C_8 
REMARK    4  A    between atoms: C_9  and  C_10 
REMARK       I    between atoms: C_10  and  N_11 
REMARK    5  A    between atoms: N_11  and  C_12 
REMARK    6  A    between atoms: C_22  and  S_23 
REMARK    7  A    between atoms: S_23  and  C_24 
REMARK    8  A    between atoms: C_24  and  C_25 
REMARK       I    between atoms: C_25  and  N_26 
REMARK    9  A    between atoms: N_26  and  C_27 
ROOT
HETATM    1  C   UNL     1      -5.535   2.167 -32.645  1.00  0.00     0.106 C 
HETATM    2  C   UNL     1      -4.738   1.032 -32.025  1.00  0.00     0.046 C 
HETATM    3  C   UNL     1      -3.567   1.268 -31.392  1.00  0.00     0.019 C 
HETATM    4  C   UNL     1      -2.655   0.203 -30.837  1.00  0.00     0.069 C 
HETATM    5  N   UNL     1      -3.115   2.573 -31.273  1.00  0.00    -0.353 N 
HETATM    6  C   UNL     1      -3.626   3.657 -31.973  1.00  0.00     0.088 C 
HETATM    7  C   UNL     1      -4.755   3.490 -32.710  1.00  0.00     0.069 C 
HETATM    8  C   UNL     1      -5.320   4.522 -33.522  1.00  0.00     0.099 C 
HETATM    9  N   UNL     1      -5.786   5.338 -34.202  1.00  0.00    -0.192 NA
HETATM   10  H   UNL     1      -2.261   2.726 -30.750  1.00  0.00     0.166 HD
ENDROOT
BRANCH   1  11
HETATM   11  C   UNL     1      -6.845   2.430 -31.884  1.00  0.00    -0.044 A 
HETATM   12  C   UNL     1      -6.830   2.903 -30.559  1.00  0.00     0.011 A 
HETATM   13  C   UNL     1      -7.999   3.361 -29.950  1.00  0.00     0.037 A 
HETATM   14  C   UNL     1      -9.197   3.364 -30.662  1.00  0.00     0.068 A 
HETATM   15  C   UNL     1      -9.242   2.814 -31.942  1.00  0.00     0.037 A 
HETATM   16  C   UNL     1      -8.074   2.354 -32.555  1.00  0.00     0.011 A 
BRANCH  14  17
HETATM   17  O   UNL     1     -10.369   3.885 -30.184  1.00  0.00    -0.352 OA
BRANCH  17  18
HETATM   18  C   UNL     1     -11.256   4.353 -31.207  1.00  0.00     0.171 C 
HETATM   19  C   UNL     1     -12.682   4.208 -30.707  1.00  0.00     0.034 C 
ENDBRANCH  17  18
ENDBRANCH  14  17
ENDBRANCH   1  11
BRANCH   6  20
HETATM   20  S   UNL     1      -2.946   5.265 -31.809  1.00  0.00    -0.102 SA
BRANCH  20  21
HETATM   21  C   UNL     1      -1.212   5.070 -32.313  1.00  0.00     0.184 C 
BRANCH  21  22
HETATM   22  C   UNL     1      -0.244   5.359 -31.161  1.00  0.00     0.231 C 
HETATM   23  N   UNL     1      -0.716   6.283 -30.245  1.00  0.00    -0.327 N 
HETATM   24  H   UNL     1      -1.581   6.744 -30.508  1.00  0.00     0.169 HD
HETATM   25  O   UNL     1       0.803   4.722 -31.069  1.00  0.00    -0.272 OA
BRANCH  23  26
HETATM   26  C   UNL     1      -0.120   6.731 -29.053  1.00  0.00     0.034 A 
HETATM   27  C   UNL     1      -0.376   6.188 -27.797  1.00  0.00     0.030 A 
HETATM   28  C   UNL     1       0.264   6.699 -26.661  1.00  0.00     0.009 A 
HETATM   29  C   UNL     1       1.159   7.771 -26.766  1.00  0.00    -0.062 A 
HETATM   30  C   UNL     1       1.868   8.302 -25.556  1.00  0.00     0.048 C 
HETATM   31  C   UNL     1       1.424   8.307 -28.028  1.00  0.00     0.009 A 
HETATM   32  C   UNL     1       0.788   7.793 -29.161  1.00  0.00     0.030 A 
ENDBRANCH  23  26
ENDBRANCH  21  22
ENDBRANCH  20  21
ENDBRANCH   6  20
BRANCH   2  33
HETATM   33  C   UNL     1      -5.281  -0.334 -32.261  1.00  0.00     0.255 C 
HETATM   34  N   UNL     1      -4.747  -0.936 -33.380  1.00  0.00    -0.323 N 
HETATM   35  H   UNL     1      -4.012  -0.435 -33.859  1.00  0.00     0.169 HD
HETATM   36  O   UNL     1      -6.094  -0.794 -31.470  1.00  0.00    -0.268 OA
BRANCH  34  37
HETATM   37  C   UNL     1      -5.126  -2.168 -33.951  1.00  0.00     0.035 A 
HETATM   38  C   UNL     1      -4.319  -3.307 -33.960  1.00  0.00     0.029 A 
HETATM   39  C   UNL     1      -4.784  -4.500 -34.522  1.00  0.00     0.002 A 
HETATM   40  C   UNL     1      -6.060  -4.567 -35.076  1.00  0.00     0.000 A 
HETATM   41  C   UNL     1      -6.873  -3.437 -35.074  1.00  0.00     0.002 A 
HETATM   42  C   UNL     1      -6.407  -2.243 -34.517  1.00  0.00     0.029 A 
ENDBRANCH  34  37
ENDBRANCH   2  33
TORSDOF 9
ENDMDL
MODEL 2
REMARK VINA RESULT:     -10.1      2.287      5.668
REMARK  9 active torsions:
REMARK  status: ('A' for Active; 'I' for Inactive)
REMARK    1  A    between atoms: C_2  and  O_3 
REMARK    2  A    between atoms: O_3  and  C_4 
REMARK    3  A    between atoms: C_7  and  C_8 
REMARK    4  A    between atoms: C_9  and  C_10 
REMARK       I    between atoms: C_10  and  N_11 
REMARK    5  A    between atoms: N_11  and  C_12 
REMARK    6  A    between atoms: C_22  and  S_23 
REMARK    7  A    between atoms: S_23  and  C_24 
REMARK    8  A    between atoms: C_24  and  C_25 
REMARK       I    between atoms: C_25  and  N_26 
REMARK    9  A    between atoms: N_26  and  C_27 
ROOT
HETATM    1  C   UNL     1      -6.215   2.367 -32.283  1.00  0.00     0.106 C 
HETATM    2  C   UNL     1      -7.338   3.271 -32.764  1.00  0.00     0.046 C 
HETATM    3  C   UNL     1      -7.074   4.410 -33.441  1.00  0.00     0.019 C 
HETATM    4  C   UNL     1      -8.107   5.420 -33.869  1.00  0.00     0.069 C 
HETATM    5  N   UNL     1      -5.757   4.730 -33.735  1.00  0.00    -0.353 N 
HETATM    6  C   UNL     1      -4.646   4.117 -33.172  1.00  0.00     0.088 C 
HETATM    7  C   UNL     1      -4.826   3.013 -32.401  1.00  0.00     0.069 C 
HETATM    8  C   UNL     1      -3.757   2.352 -31.720  1.00  0.00     0.099 C 
HETATM    9  N   UNL     1      -2.909   1.809 -31.143  1.00  0.00    -0.192 NA
HETATM   10  H   UNL     1      -5.591   5.563 -34.288  1.00  0.00     0.166 HD
ENDROOT
BRANCH   1  11
HETATM   11  C   UNL     1      -6.183   1.035 -33.048  1.00  0.00    -0.044 A 
HETATM   12  C   UNL     1      -5.953  -0.181 -32.376  1.00  0.00     0.011 A 
HETATM   13  C   UNL     1      -6.154  -1.402 -33.020  1.00  0.00     0.037 A 
HETATM   14  C   UNL     1      -6.599  -1.426 -34.340  1.00  0.00     0.068 A 
HETATM   15  C   UNL     1      -6.741  -0.232 -35.044  1.00  0.00     0.037 A 
HETATM   16  C   UNL     1      -6.542   0.994 -34.403  1.00  0.00     0.011 A 
BRANCH  14  17
HETATM   17  O   UNL     1      -6.917  -2.571 -35.019  1.00  0.00    -0.352 OA
BRANCH  17  18
HETATM   18  C   UNL     1      -5.803  -3.445 -35.237  1.00  0.00     0.171 C 
HETATM   19  C   UNL     1      -6.321  -4.870 -35.319  1.00  0.00     0.034 C 
ENDBRANCH  17  18
ENDBRANCH  14  17
ENDBRANCH   1  11
BRANCH   6  20
HETATM   20  S   UNL     1      -3.014   4.634 -33.554  1.00  0.00    -0.102 SA
BRANCH  20  21
HETATM   21  C   UNL     1      -3.174   6.414 -33.877  1.00  0.00     0.184 C 
BRANCH  21  22
HETATM   22  C   UNL     1      -2.250   7.246 -32.982  1.00  0.00     0.231 C 
HETATM   23  N   UNL     1      -2.114   6.751 -31.696  1.00  0.00    -0.327 N 
HETATM   24  H   UNL     1      -2.731   5.978 -31.467  1.00  0.00     0.169 HD
HETATM   25  O   UNL     1      -1.640   8.202 -33.454  1.00  0.00    -0.272 OA
BRANCH  23  26
HETATM   26  C   UNL     1      -1.309   7.225 -30.646  1.00  0.00     0.034 A 
HETATM   27  C   UNL     1      -1.708   8.193 -29.728  1.00  0.00     0.030 A 
HETATM   28  C   UNL     1      -0.836   8.607 -28.713  1.00  0.00     0.009 A 
HETATM   29  C   UNL     1       0.451   8.067 -28.611  1.00  0.00    -0.062 A 
HETATM   30  C   UNL     1       1.376   8.486 -27.507  1.00  0.00     0.048 C 
HETATM   31  C   UNL     1       0.846   7.087 -29.524  1.00  0.00     0.009 A 
HETATM   32  C   UNL     1      -0.026   6.672 -30.534  1.00  0.00     0.030 A 
ENDBRANCH  23  26
ENDBRANCH  21  22
ENDBRANCH  20  21
ENDBRANCH   6  20
BRANCH   2  33
HETATM   33  C   UNL     1      -8.708   2.866 -32.345  1.00  0.00     0.255 C 
HETATM   34  N   UNL     1      -9.522   2.553 -33.413  1.00  0.00    -0.323 N 
HETATM   35  H   UNL     1      -9.094   2.555 -34.328  1.00  0.00     0.169 HD
HETATM   36  O   UNL     1      -8.976   2.822 -31.152  1.00  0.00    -0.268 OA
BRANCH  34  37
HETATM   37  C   UNL     1     -10.899   2.249 -33.378  1.00  0.00     0.035 A 
HETATM   38  C   UNL     1     -11.901   3.189 -33.131  1.00  0.00     0.029 A 
HETATM   39  C   UNL     1     -13.247   2.810 -33.146  1.00  0.00     0.002 A 
HETATM   40  C   UNL     1     -13.603   1.490 -33.410  1.00  0.00     0.000 A 
HETATM   41  C   UNL     1     -12.612   0.544 -33.656  1.00  0.00     0.002 A 
HETATM   42  C   UNL     1     -11.267   0.921 -33.637  1.00  0.00     0.029 A 
ENDBRANCH  34  37
ENDBRANCH   2  33
TORSDOF 9
ENDMDL
MODEL 3
REMARK VINA RESULT:      -9.8      2.741      5.722
REMARK  9 active torsions:
REMARK  status: ('A' for Active; 'I' for Inactive)
REMARK    1  A    between atoms: C_2  and  O_3 
REMARK    2  A    between atoms: O_3  and  C_4 
REMARK    3  A    between atoms: C_7  and  C_8 
REMARK    4  A    between atoms: C_9  and  C_10 
REMARK       I    between atoms: C_10  and  N_11 
REMARK    5  A    between atoms: N_11  and  C_12 
REMARK    6  A    between atoms: C_22  and  S_23 
REMARK    7  A    between atoms: S_23  and  C_24 
REMARK    8  A    between atoms: C_24  and  C_25 
REMARK       I    between atoms: C_25  and  N_26 
REMARK    9  A    between atoms: N_26  and  C_27 
ROOT
HETATM    1  C   UNL     1      -7.298   2.862 -32.424  1.00  0.00     0.106 C 
HETATM    2  C   UNL     1      -8.502   3.554 -33.042  1.00  0.00     0.046 C 
HETATM    3  C   UNL     1      -8.363   4.710 -33.730  1.00  0.00     0.019 C 
HETATM    4  C   UNL     1      -9.502   5.523 -34.291  1.00  0.00     0.069 C 
HETATM    5  N   UNL     1      -7.095   5.242 -33.906  1.00  0.00    -0.353 N 
HETATM    6  C   UNL     1      -5.961   4.836 -33.217  1.00  0.00     0.088 C 
HETATM    7  C   UNL     1      -6.031   3.731 -32.430  1.00  0.00     0.069 C 
HETATM    8  C   UNL     1      -4.942   3.272 -31.625  1.00  0.00     0.099 C 
HETATM    9  N   UNL     1      -4.078   2.892 -30.950  1.00  0.00    -0.192 NA
HETATM   10  H   UNL     1      -7.015   6.081 -34.469  1.00  0.00     0.166 HD
ENDROOT
BRANCH   1  11
HETATM   11  C   UNL     1      -6.968   1.541 -33.136  1.00  0.00    -0.044 A 
HETATM   12  C   UNL     1      -6.843   0.340 -32.412  1.00  0.00     0.011 A 
HETATM   13  C   UNL     1      -6.777  -0.888 -33.071  1.00  0.00     0.037 A 
HETATM   14  C   UNL     1      -6.846  -0.934 -34.462  1.00  0.00     0.068 A 
HETATM   15  C   UNL     1      -6.877   0.253 -35.193  1.00  0.00     0.037 A 
HETATM   16  C   UNL     1      -6.945   1.485 -34.537  1.00  0.00     0.011 A 
BRANCH  14  17
HETATM   17  O   UNL     1      -6.888  -2.093 -35.188  1.00  0.00    -0.352 OA
BRANCH  17  18
HETATM   18  C   UNL     1      -5.994  -3.107 -34.714  1.00  0.00     0.171 C 
HETATM   19  C   UNL     1      -6.518  -4.458 -35.169  1.00  0.00     0.034 C 
ENDBRANCH  17  18
ENDBRANCH  14  17
ENDBRANCH   1  11
BRANCH   6  20
HETATM   20  S   UNL     1      -4.407   5.614 -33.456  1.00  0.00    -0.102 SA
BRANCH  20  21
HETATM   21  C   UNL     1      -4.461   7.063 -32.362  1.00  0.00     0.184 C 
BRANCH  21  22
HETATM   22  C   UNL     1      -3.062   7.491 -31.908  1.00  0.00     0.231 C 
HETATM   23  N   UNL     1      -2.861   7.403 -30.541  1.00  0.00    -0.327 N 
HETATM   24  H   UNL     1      -3.691   7.186 -29.998  1.00  0.00     0.169 HD
HETATM   25  O   UNL     1      -2.211   7.786 -32.744  1.00  0.00    -0.272 OA
BRANCH  23  26
HETATM   26  C   UNL     1      -1.693   7.656 -29.800  1.00  0.00     0.034 A 
HETATM   27  C   UNL     1      -0.533   6.890 -29.879  1.00  0.00     0.030 A 
HETATM   28  C   UNL     1       0.585   7.217 -29.101  1.00  0.00     0.009 A 
HETATM   29  C   UNL     1       0.552   8.307 -28.224  1.00  0.00    -0.062 A 
HETATM   30  C   UNL     1       1.756   8.678 -27.412  1.00  0.00     0.048 C 
HETATM   31  C   UNL     1      -0.608   9.083 -28.155  1.00  0.00     0.009 A 
HETATM   32  C   UNL     1      -1.721   8.758 -28.935  1.00  0.00     0.030 A 
ENDBRANCH  23  26
ENDBRANCH  21  22
ENDBRANCH  20  21
ENDBRANCH   6  20
BRANCH   2  33
HETATM   33  C   UNL     1      -9.820   2.931 -32.745  1.00  0.00     0.255 C 
HETATM   34  N   UNL     1     -10.331   2.225 -33.813  1.00  0.00    -0.323 N 
HETATM   35  H   UNL     1      -9.739   2.143 -34.629  1.00  0.00     0.169 HD
HETATM   36  O   UNL     1     -10.304   3.068 -31.629  1.00  0.00    -0.268 OA
BRANCH  34  37
HETATM   37  C   UNL     1     -11.600   1.618 -33.909  1.00  0.00     0.035 A 
HETATM   38  C   UNL     1     -12.730   2.249 -34.431  1.00  0.00     0.029 A 
HETATM   39  C   UNL     1     -13.946   1.565 -34.520  1.00  0.00     0.002 A 
HETATM   40  C   UNL     1     -14.043   0.244 -34.091  1.00  0.00     0.000 A 
HETATM   41  C   UNL     1     -12.923  -0.395 -33.567  1.00  0.00     0.002 A 
HETATM   42  C   UNL     1     -11.708   0.290 -33.474  1.00  0.00     0.029 A 
ENDBRANCH  34  37
ENDBRANCH   2  33
TORSDOF 9
ENDMDL
MODEL 4
REMARK VINA RESULT:      -9.8      1.978      2.422
REMARK  9 active torsions:
REMARK  status: ('A' for Active; 'I' for Inactive)
REMARK    1  A    between atoms: C_2  and  O_3 
REMARK    2  A    between atoms: O_3  and  C_4 
REMARK    3  A    between atoms: C_7  and  C_8 
REMARK    4  A    between atoms: C_9  and  C_10 
REMARK       I    between atoms: C_10  and  N_11 
REMARK    5  A    between atoms: N_11  and  C_12 
REMARK    6  A    between atoms: C_22  and  S_23 
REMARK    7  A    between atoms: S_23  and  C_24 
REMARK    8  A    between atoms: C_24  and  C_25 
REMARK       I    between atoms: C_25  and  N_26 
REMARK    9  A    between atoms: N_26  and  C_27 
ROOT
HETATM    1  C   UNL     1      -5.548   1.757 -33.327  1.00  0.00     0.106 C 
HETATM    2  C   UNL     1      -4.609   0.763 -32.663  1.00  0.00     0.046 C 
HETATM    3  C   UNL     1      -3.971   1.071 -31.511  1.00  0.00     0.019 C 
HETATM    4  C   UNL     1      -2.946   0.199 -30.832  1.00  0.00     0.069 C 
HETATM    5  N   UNL     1      -4.215   2.297 -30.912  1.00  0.00    -0.353 N 
HETATM    6  C   UNL     1      -4.867   3.362 -31.518  1.00  0.00     0.088 C 
HETATM    7  C   UNL     1      -5.463   3.167 -32.722  1.00  0.00     0.069 C 
HETATM    8  C   UNL     1      -6.097   4.214 -33.461  1.00  0.00     0.099 C 
HETATM    9  N   UNL     1      -6.600   5.052 -34.087  1.00  0.00    -0.192 NA
HETATM   10  H   UNL     1      -3.763   2.480 -30.023  1.00  0.00     0.166 HD
ENDROOT
BRANCH   1  11
HETATM   11  C   UNL     1      -7.013   1.299 -33.253  1.00  0.00    -0.044 A 
HETATM   12  C   UNL     1      -7.703   1.277 -32.025  1.00  0.00     0.011 A 
HETATM   13  C   UNL     1      -9.085   1.089 -31.986  1.00  0.00     0.037 A 
HETATM   14  C   UNL     1      -9.798   0.933 -33.173  1.00  0.00     0.068 A 
HETATM   15  C   UNL     1      -9.116   0.861 -34.386  1.00  0.00     0.037 A 
HETATM   16  C   UNL     1      -7.732   1.049 -34.430  1.00  0.00     0.011 A 
BRANCH  14  17
HETATM   17  O   UNL     1     -11.162   0.843 -33.239  1.00  0.00    -0.352 OA
BRANCH  17  18
HETATM   18  C   UNL     1     -11.801   2.036 -33.710  1.00  0.00     0.171 C 
HETATM   19  C   UNL     1     -12.630   1.685 -34.932  1.00  0.00     0.034 C 
ENDBRANCH  17  18
ENDBRANCH  14  17
ENDBRANCH   1  11
BRANCH   6  20
HETATM   20  S   UNL     1      -5.072   4.902 -30.705  1.00  0.00    -0.102 SA
BRANCH  20  21
HETATM   21  C   UNL     1      -3.618   5.870 -31.207  1.00  0.00     0.184 C 
BRANCH  21  22
HETATM   22  C   UNL     1      -2.947   6.558 -30.014  1.00  0.00     0.231 C 
HETATM   23  N   UNL     1      -1.597   6.280 -29.889  1.00  0.00    -0.327 N 
HETATM   24  H   UNL     1      -1.245   5.567 -30.520  1.00  0.00     0.169 HD
HETATM   25  O   UNL     1      -3.588   7.349 -29.326  1.00  0.00    -0.272 OA
BRANCH  23  26
HETATM   26  C   UNL     1      -0.673   6.784 -28.956  1.00  0.00     0.034 A 
HETATM   27  C   UNL     1       0.308   7.725 -29.255  1.00  0.00     0.030 A 
HETATM   28  C   UNL     1       1.188   8.169 -28.260  1.00  0.00     0.009 A 
HETATM   29  C   UNL     1       1.107   7.667 -26.957  1.00  0.00    -0.062 A 
HETATM   30  C   UNL     1       2.028   8.162 -25.882  1.00  0.00     0.048 C 
HETATM   31  C   UNL     1       0.115   6.731 -26.655  1.00  0.00     0.009 A 
HETATM   32  C   UNL     1      -0.766   6.293 -27.647  1.00  0.00     0.030 A 
ENDBRANCH  23  26
ENDBRANCH  21  22
ENDBRANCH  20  21
ENDBRANCH   6  20
BRANCH   2  33
HETATM   33  C   UNL     1      -4.373  -0.497 -33.418  1.00  0.00     0.255 C 
HETATM   34  N   UNL     1      -5.487  -1.308 -33.467  1.00  0.00    -0.323 N 
HETATM   35  H   UNL     1      -6.337  -0.937 -33.065  1.00  0.00     0.169 HD
HETATM   36  O   UNL     1      -3.277  -0.687 -33.929  1.00  0.00    -0.268 OA
BRANCH  34  37
HETATM   37  C   UNL     1      -5.573  -2.613 -33.995  1.00  0.00     0.035 A 
HETATM   38  C   UNL     1      -6.678  -3.102 -34.692  1.00  0.00     0.029 A 
HETATM   39  C   UNL     1      -6.670  -4.401 -35.211  1.00  0.00     0.002 A 
HETATM   40  C   UNL     1      -5.557  -5.220 -35.039  1.00  0.00     0.000 A 
HETATM   41  C   UNL     1      -4.450  -4.743 -34.343  1.00  0.00     0.002 A 
HETATM   42  C   UNL     1      -4.459  -3.447 -33.821  1.00  0.00     0.029 A 
ENDBRANCH  34  37
ENDBRANCH   2  33
TORSDOF 9
ENDMDL
MODEL 5
REMARK VINA RESULT:      -9.5      3.327      5.780
REMARK  9 active torsions:
REMARK  status: ('A' for Active; 'I' for Inactive)
REMARK    1  A    between atoms: C_2  and  O_3 
REMARK    2  A    between atoms: O_3  and  C_4 
REMARK    3  A    between atoms: C_7  and  C_8 
REMARK    4  A    between atoms: C_9  and  C_10 
REMARK       I    between atoms: C_10  and  N_11 
REMARK    5  A    between atoms: N_11  and  C_12 
REMARK    6  A    between atoms: C_22  and  S_23 
REMARK    7  A    between atoms: S_23  and  C_24 
REMARK    8  A    between atoms: C_24  and  C_25 
REMARK       I    between atoms: C_25  and  N_26 
REMARK    9  A    between atoms: N_26  and  C_27 
ROOT
HETATM    1  C   UNL     1      -6.899   2.545 -30.608  1.00  0.00     0.106 C 
HETATM    2  C   UNL     1      -7.623   1.524 -31.470  1.00  0.00     0.046 C 
HETATM    3  C   UNL     1      -8.875   1.757 -31.923  1.00  0.00     0.019 C 
HETATM    4  C   UNL     1      -9.712   0.769 -32.694  1.00  0.00     0.069 C 
HETATM    5  N   UNL     1      -9.485   2.966 -31.627  1.00  0.00    -0.353 N 
HETATM    6  C   UNL     1      -9.029   3.876 -30.683  1.00  0.00     0.088 C 
HETATM    7  C   UNL     1      -7.815   3.673 -30.108  1.00  0.00     0.069 C 
HETATM    8  C   UNL     1      -7.288   4.510 -29.076  1.00  0.00     0.099 C 
HETATM    9  N   UNL     1      -6.848   5.164 -28.224  1.00  0.00    -0.192 NA
HETATM   10  H   UNL     1     -10.403   3.135 -32.022  1.00  0.00     0.166 HD
ENDROOT
BRANCH   1  11
HETATM   11  C   UNL     1      -5.719   3.190 -31.352  1.00  0.00    -0.044 A 
HETATM   12  C   UNL     1      -4.423   3.177 -30.802  1.00  0.00     0.011 A 
HETATM   13  C   UNL     1      -3.318   3.549 -31.568  1.00  0.00     0.037 A 
HETATM   14  C   UNL     1      -3.491   3.926 -32.899  1.00  0.00     0.068 A 
HETATM   15  C   UNL     1      -4.777   4.030 -33.427  1.00  0.00     0.037 A 
HETATM   16  C   UNL     1      -5.887   3.659 -32.663  1.00  0.00     0.011 A 
BRANCH  14  17
HETATM   17  O   UNL     1      -2.460   4.209 -33.753  1.00  0.00    -0.352 OA
BRANCH  17  18
HETATM   18  C   UNL     1      -1.633   5.297 -33.325  1.00  0.00     0.171 C 
HETATM   19  C   UNL     1      -2.040   6.541 -34.094  1.00  0.00     0.034 C 
ENDBRANCH  17  18
ENDBRANCH  14  17
ENDBRANCH   1  11
BRANCH   6  20
HETATM   20  S   UNL     1      -9.905   5.353 -30.327  1.00  0.00    -0.102 SA
BRANCH  20  21
HETATM   21  C   UNL     1      -9.766   6.332 -31.852  1.00  0.00     0.184 C 
BRANCH  21  22
HETATM   22  C   UNL     1      -8.311   6.685 -32.177  1.00  0.00     0.231 C 
HETATM   23  N   UNL     1      -7.656   7.367 -31.166  1.00  0.00    -0.327 N 
HETATM   24  H   UNL     1      -8.246   7.657 -30.392  1.00  0.00     0.169 HD
HETATM   25  O   UNL     1      -7.805   6.285 -33.223  1.00  0.00    -0.272 OA
BRANCH  23  26
HETATM   26  C   UNL     1      -6.316   7.788 -31.107  1.00  0.00     0.034 A 
HETATM   27  C   UNL     1      -5.223   6.926 -31.123  1.00  0.00     0.030 A 
HETATM   28  C   UNL     1      -3.920   7.436 -31.059  1.00  0.00     0.009 A 
HETATM   29  C   UNL     1      -3.694   8.813 -30.964  1.00  0.00    -0.062 A 
HETATM   30  C   UNL     1      -2.300   9.364 -30.925  1.00  0.00     0.048 C 
HETATM   31  C   UNL     1      -4.791   9.678 -30.960  1.00  0.00     0.009 A 
HETATM   32  C   UNL     1      -6.091   9.169 -31.029  1.00  0.00     0.030 A 
ENDBRANCH  23  26
ENDBRANCH  21  22
ENDBRANCH  20  21
ENDBRANCH   6  20
BRANCH   2  33
HETATM   33  C   UNL     1      -6.902   0.238 -31.678  1.00  0.00     0.255 C 
HETATM   34  N   UNL     1      -6.655  -0.027 -33.008  1.00  0.00    -0.323 N 
HETATM   35  H   UNL     1      -6.911   0.692 -33.671  1.00  0.00     0.169 HD
HETATM   36  O   UNL     1      -6.583  -0.429 -30.703  1.00  0.00    -0.268 OA
BRANCH  34  37
HETATM   37  C   UNL     1      -6.105  -1.203 -33.558  1.00  0.00     0.035 A 
HETATM   38  C   UNL     1      -4.754  -1.544 -33.480  1.00  0.00     0.029 A 
HETATM   39  C   UNL     1      -4.293  -2.746 -34.026  1.00  0.00     0.002 A 
HETATM   40  C   UNL     1      -5.180  -3.619 -34.652  1.00  0.00     0.000 A 
HETATM   41  C   UNL     1      -6.529  -3.289 -34.737  1.00  0.00     0.002 A 
HETATM   42  C   UNL     1      -6.989  -2.085 -34.196  1.00  0.00     0.029 A 
ENDBRANCH  34  37
ENDBRANCH   2  33
TORSDOF 9
ENDMDL
MODEL 6
REMARK VINA RESULT:      -9.5      4.029      7.829
REMARK  9 active torsions:
REMARK  status: ('A' for Active; 'I' for Inactive)
REMARK    1  A    between atoms: C_2  and  O_3 
REMARK    2  A    between atoms: O_3  and  C_4 
REMARK    3  A    between atoms: C_7  and  C_8 
REMARK    4  A    between atoms: C_9  and  C_10 
REMARK       I    between atoms: C_10  and  N_11 
REMARK    5  A    between atoms: N_11  and  C_12 
REMARK    6  A    between atoms: C_22  and  S_23 
REMARK    7  A    between atoms: S_23  and  C_24 
REMARK    8  A    between atoms: C_24  and  C_25 
REMARK       I    between atoms: C_25  and  N_26 
REMARK    9  A    between atoms: N_26  and  C_27 
ROOT
HETATM    1  C   UNL     1      -8.820   2.827 -32.703  1.00  0.00     0.106 C 
HETATM    2  C   UNL     1      -9.522   3.775 -33.662  1.00  0.00     0.046 C 
HETATM    3  C   UNL     1      -8.994   4.984 -33.957  1.00  0.00     0.019 C 
HETATM    4  C   UNL     1      -9.660   6.032 -34.811  1.00  0.00     0.069 C 
HETATM    5  N   UNL     1      -7.772   5.339 -33.405  1.00  0.00    -0.353 N 
HETATM    6  C   UNL     1      -7.148   4.671 -32.362  1.00  0.00     0.088 C 
HETATM    7  C   UNL     1      -7.662   3.487 -31.939  1.00  0.00     0.069 C 
HETATM    8  C   UNL     1      -7.136   2.758 -30.827  1.00  0.00     0.099 C 
HETATM    9  N   UNL     1      -6.739   2.158 -29.917  1.00  0.00    -0.192 NA
HETATM   10  H   UNL     1      -7.376   6.229 -33.684  1.00  0.00     0.166 HD
ENDROOT
BRANCH   1  11
HETATM   11  C   UNL     1      -8.264   1.589 -33.425  1.00  0.00    -0.044 A 
HETATM   12  C   UNL     1      -7.490   1.720 -34.593  1.00  0.00     0.011 A 
HETATM   13  C   UNL     1      -6.794   0.629 -35.115  1.00  0.00     0.037 A 
HETATM   14  C   UNL     1      -6.852  -0.605 -34.469  1.00  0.00     0.068 A 
HETATM   15  C   UNL     1      -7.686  -0.769 -33.365  1.00  0.00     0.037 A 
HETATM   16  C   UNL     1      -8.385   0.321 -32.838  1.00  0.00     0.011 A 
BRANCH  14  17
HETATM   17  O   UNL     1      -6.127  -1.702 -34.849  1.00  0.00    -0.352 OA
BRANCH  17  18
HETATM   18  C   UNL     1      -6.791  -2.948 -34.609  1.00  0.00     0.171 C 
HETATM   19  C   UNL     1      -5.850  -4.075 -34.997  1.00  0.00     0.034 C 
ENDBRANCH  17  18
ENDBRANCH  14  17
ENDBRANCH   1  11
BRANCH   6  20
HETATM   20  S   UNL     1      -5.632   5.233 -31.682  1.00  0.00    -0.102 SA
BRANCH  20  21
HETATM   21  C   UNL     1      -4.366   4.569 -32.803  1.00  0.00     0.184 C 
BRANCH  21  22
HETATM   22  C   UNL     1      -3.782   3.248 -32.291  1.00  0.00     0.231 C 
HETATM   23  N   UNL     1      -4.481   2.126 -32.700  1.00  0.00    -0.327 N 
HETATM   24  H   UNL     1      -5.356   2.317 -33.180  1.00  0.00     0.169 HD
HETATM   25  O   UNL     1      -2.729   3.250 -31.657  1.00  0.00    -0.272 OA
BRANCH  23  26
HETATM   26  C   UNL     1      -4.193   0.770 -32.466  1.00  0.00     0.034 A 
HETATM   27  C   UNL     1      -4.644   0.053 -31.361  1.00  0.00     0.030 A 
HETATM   28  C   UNL     1      -4.306  -1.298 -31.209  1.00  0.00     0.009 A 
HETATM   29  C   UNL     1      -3.501  -1.945 -32.154  1.00  0.00    -0.062 A 
HETATM   30  C   UNL     1      -3.162  -3.398 -32.009  1.00  0.00     0.048 C 
HETATM   31  C   UNL     1      -3.060  -1.228 -33.268  1.00  0.00     0.009 A 
HETATM   32  C   UNL     1      -3.402   0.118 -33.421  1.00  0.00     0.030 A 
ENDBRANCH  23  26
ENDBRANCH  21  22
ENDBRANCH  20  21
ENDBRANCH   6  20
BRANCH   2  33
HETATM   33  C   UNL     1     -10.852   3.321 -34.150  1.00  0.00     0.255 C 
HETATM   34  N   UNL     1     -11.664   2.857 -33.137  1.00  0.00    -0.323 N 
HETATM   35  H   UNL     1     -11.310   2.946 -32.194  1.00  0.00     0.169 HD
HETATM   36  O   UNL     1     -11.111   3.414 -35.342  1.00  0.00    -0.268 OA
BRANCH  34  37
HETATM   37  C   UNL     1     -12.929   2.249 -33.265  1.00  0.00     0.035 A 
HETATM   38  C   UNL     1     -14.097   2.744 -32.683  1.00  0.00     0.029 A 
HETATM   39  C   UNL     1     -15.320   2.096 -32.885  1.00  0.00     0.002 A 
HETATM   40  C   UNL     1     -15.386   0.949 -33.673  1.00  0.00     0.000 A 
HETATM   41  C   UNL     1     -14.227   0.445 -34.256  1.00  0.00     0.002 A 
HETATM   42  C   UNL     1     -13.004   1.090 -34.051  1.00  0.00     0.029 A 
ENDBRANCH  34  37
ENDBRANCH   2  33
TORSDOF 9
ENDMDL
MODEL 7
REMARK VINA RESULT:      -9.3      2.684      9.507
REMARK  9 active torsions:
REMARK  status: ('A' for Active; 'I' for Inactive)
REMARK    1  A    between atoms: C_2  and  O_3 
REMARK    2  A    between atoms: O_3  and  C_4 
REMARK    3  A    between atoms: C_7  and  C_8 
REMARK    4  A    between atoms: C_9  and  C_10 
REMARK       I    between atoms: C_10  and  N_11 
REMARK    5  A    between atoms: N_11  and  C_12 
REMARK    6  A    between atoms: C_22  and  S_23 
REMARK    7  A    between atoms: S_23  and  C_24 
REMARK    8  A    between atoms: C_24  and  C_25 
REMARK       I    between atoms: C_25  and  N_26 
REMARK    9  A    between atoms: N_26  and  C_27 
ROOT
HETATM    1  C   UNL     1      -5.040   5.635 -31.216  1.00  0.00     0.106 C 
HETATM    2  C   UNL     1      -5.332   6.458 -29.973  1.00  0.00     0.046 C 
HETATM    3  C   UNL     1      -6.566   6.961 -29.745  1.00  0.00     0.019 C 
HETATM    4  C   UNL     1      -6.930   7.871 -28.600  1.00  0.00     0.069 C 
HETATM    5  N   UNL     1      -7.585   6.682 -30.643  1.00  0.00    -0.353 N 
HETATM    6  C   UNL     1      -7.402   6.139 -31.907  1.00  0.00     0.088 C 
HETATM    7  C   UNL     1      -6.170   5.686 -32.256  1.00  0.00     0.069 C 
HETATM    8  C   UNL     1      -5.862   5.176 -33.556  1.00  0.00     0.099 C 
HETATM    9  N   UNL     1      -5.584   4.776 -34.609  1.00  0.00    -0.192 NA
HETATM   10  H   UNL     1      -8.511   7.029 -30.421  1.00  0.00     0.166 HD
ENDROOT
BRANCH   1  11
HETATM   11  C   UNL     1      -4.777   4.158 -30.878  1.00  0.00    -0.044 A 
HETATM   12  C   UNL     1      -5.731   3.396 -30.177  1.00  0.00     0.011 A 
HETATM   13  C   UNL     1      -5.602   2.010 -30.073  1.00  0.00     0.037 A 
HETATM   14  C   UNL     1      -4.524   1.367 -30.679  1.00  0.00     0.068 A 
HETATM   15  C   UNL     1      -3.526   2.119 -31.296  1.00  0.00     0.037 A 
HETATM   16  C   UNL     1      -3.652   3.507 -31.403  1.00  0.00     0.011 A 
BRANCH  14  17
HETATM   17  O   UNL     1      -4.367   0.007 -30.715  1.00  0.00    -0.352 OA
BRANCH  17  18
HETATM   18  C   UNL     1      -3.170  -0.422 -31.374  1.00  0.00     0.171 C 
HETATM   19  C   UNL     1      -3.536  -1.499 -32.379  1.00  0.00     0.034 C 
ENDBRANCH  17  18
ENDBRANCH  14  17
ENDBRANCH   1  11
BRANCH   6  20
HETATM   20  S   UNL     1      -8.747   5.881 -33.004  1.00  0.00    -0.102 SA
BRANCH  20  21
HETATM   21  C   UNL     1      -9.694   4.532 -32.239  1.00  0.00     0.184 C 
BRANCH  21  22
HETATM   22  C   UNL     1      -9.491   3.202 -32.971  1.00  0.00     0.231 C 
HETATM   23  N   UNL     1      -8.244   2.635 -32.778  1.00  0.00    -0.327 N 
HETATM   24  H   UNL     1      -7.579   3.221 -32.282  1.00  0.00     0.169 HD
HETATM   25  O   UNL     1     -10.428   2.692 -33.582  1.00  0.00    -0.272 OA
BRANCH  23  26
HETATM   26  C   UNL     1      -7.747   1.406 -33.247  1.00  0.00     0.034 A 
HETATM   27  C   UNL     1      -7.608   0.266 -32.460  1.00  0.00     0.030 A 
HETATM   28  C   UNL     1      -7.102  -0.918 -33.013  1.00  0.00     0.009 A 
HETATM   29  C   UNL     1      -6.717  -0.971 -34.357  1.00  0.00    -0.062 A 
HETATM   30  C   UNL     1      -6.203  -2.244 -34.960  1.00  0.00     0.048 C 
HETATM   31  C   UNL     1      -6.869   0.169 -35.149  1.00  0.00     0.009 A 
HETATM   32  C   UNL     1      -7.378   1.348 -34.597  1.00  0.00     0.030 A 
ENDBRANCH  23  26
ENDBRANCH  21  22
ENDBRANCH  20  21
ENDBRANCH   6  20
BRANCH   2  33
HETATM   33  C   UNL     1      -4.157   6.747 -29.107  1.00  0.00     0.255 C 
HETATM   34  N   UNL     1      -3.141   7.389 -29.782  1.00  0.00    -0.323 N 
HETATM   35  H   UNL     1      -3.328   7.656 -30.739  1.00  0.00     0.169 HD
HETATM   36  O   UNL     1      -4.197   6.432 -27.925  1.00  0.00    -0.268 OA
BRANCH  34  37
HETATM   37  C   UNL     1      -1.854   7.700 -29.296  1.00  0.00     0.035 A 
HETATM   38  C   UNL     1      -1.579   8.759 -28.430  1.00  0.00     0.029 A 
HETATM   39  C   UNL     1      -0.277   8.979 -27.971  1.00  0.00     0.002 A 
HETATM   40  C   UNL     1       0.761   8.141 -28.370  1.00  0.00     0.000 A 
HETATM   41  C   UNL     1       0.499   7.083 -29.235  1.00  0.00     0.002 A 
HETATM   42  C   UNL     1      -0.801   6.864 -29.698  1.00  0.00     0.029 A 
ENDBRANCH  34  37
ENDBRANCH   2  33
TORSDOF 9
ENDMDL
MODEL 8
REMARK VINA RESULT:      -9.1      4.166      8.937
REMARK  9 active torsions:
REMARK  status: ('A' for Active; 'I' for Inactive)
REMARK    1  A    between atoms: C_2  and  O_3 
REMARK    2  A    between atoms: O_3  and  C_4 
REMARK    3  A    between atoms: C_7  and  C_8 
REMARK    4  A    between atoms: C_9  and  C_10 
REMARK       I    between atoms: C_10  and  N_11 
REMARK    5  A    between atoms: N_11  and  C_12 
REMARK    6  A    between atoms: C_22  and  S_23 
REMARK    7  A    between atoms: S_23  and  C_24 
REMARK    8  A    between atoms: C_24  and  C_25 
REMARK       I    between atoms: C_25  and  N_26 
REMARK    9  A    between atoms: N_26  and  C_27 
ROOT
HETATM    1  C   UNL     1      -7.206   2.713 -31.424  1.00  0.00     0.106 C 
HETATM    2  C   UNL     1      -7.733   1.676 -32.402  1.00  0.00     0.046 C 
HETATM    3  C   UNL     1      -8.817   1.930 -33.168  1.00  0.00     0.019 C 
HETATM    4  C   UNL     1      -9.476   0.935 -34.089  1.00  0.00     0.069 C 
HETATM    5  N   UNL     1      -9.426   3.173 -33.085  1.00  0.00    -0.353 N 
HETATM    6  C   UNL     1      -9.183   4.112 -32.092  1.00  0.00     0.088 C 
HETATM    7  C   UNL     1      -8.165   3.896 -31.219  1.00  0.00     0.069 C 
HETATM    8  C   UNL     1      -7.879   4.763 -30.120  1.00  0.00     0.099 C 
HETATM    9  N   UNL     1      -7.640   5.443 -29.210  1.00  0.00    -0.192 NA
HETATM   10  H   UNL     1     -10.205   3.354 -33.708  1.00  0.00     0.166 HD
ENDROOT
BRANCH   1  11
HETATM   11  C   UNL     1      -5.847   3.279 -31.867  1.00  0.00    -0.044 A 
HETATM   12  C   UNL     1      -4.681   3.028 -31.119  1.00  0.00     0.011 A 
HETATM   13  C   UNL     1      -3.421   3.338 -31.634  1.00  0.00     0.037 A 
HETATM   14  C   UNL     1      -3.310   3.891 -32.909  1.00  0.00     0.068 A 
HETATM   15  C   UNL     1      -4.460   4.228 -33.620  1.00  0.00     0.037 A 
HETATM   16  C   UNL     1      -5.723   3.919 -33.108  1.00  0.00     0.011 A 
BRANCH  14  17
HETATM   17  O   UNL     1      -2.117   4.134 -33.534  1.00  0.00    -0.352 OA
BRANCH  17  18
HETATM   18  C   UNL     1      -2.197   5.114 -34.577  1.00  0.00     0.171 C 
HETATM   19  C   UNL     1      -1.446   6.354 -34.128  1.00  0.00     0.034 C 
ENDBRANCH  17  18
ENDBRANCH  14  17
ENDBRANCH   1  11
BRANCH   6  20
HETATM   20  S   UNL     1     -10.051   5.635 -32.030  1.00  0.00    -0.102 SA
BRANCH  20  21
HETATM   21  C   UNL     1     -11.523   5.353 -33.057  1.00  0.00     0.184 C 
BRANCH  21  22
HETATM   22  C   UNL     1     -11.291   5.760 -34.515  1.00  0.00     0.231 C 
HETATM   23  N   UNL     1     -11.770   7.019 -34.833  1.00  0.00    -0.327 N 
HETATM   24  H   UNL     1     -12.320   7.465 -34.105  1.00  0.00     0.169 HD
HETATM   25  O   UNL     1     -10.646   5.025 -35.260  1.00  0.00    -0.272 OA
BRANCH  23  26
HETATM   26  C   UNL     1     -11.676   7.722 -36.047  1.00  0.00     0.034 A 
HETATM   27  C   UNL     1     -10.489   8.228 -36.569  1.00  0.00     0.030 A 
HETATM   28  C   UNL     1     -10.490   8.918 -37.788  1.00  0.00     0.009 A 
HETATM   29  C   UNL     1     -11.681   9.121 -38.494  1.00  0.00    -0.062 A 
HETATM   30  C   UNL     1     -11.682   9.833 -39.814  1.00  0.00     0.048 C 
HETATM   31  C   UNL     1     -12.870   8.602 -37.976  1.00  0.00     0.009 A 
HETATM   32  C   UNL     1     -12.867   7.910 -36.762  1.00  0.00     0.030 A 
ENDBRANCH  23  26
ENDBRANCH  21  22
ENDBRANCH  20  21
ENDBRANCH   6  20
BRANCH   2  33
HETATM   33  C   UNL     1      -7.044   0.358 -32.369  1.00  0.00     0.255 C 
HETATM   34  N   UNL     1      -6.638  -0.064 -33.617  1.00  0.00    -0.323 N 
HETATM   35  H   UNL     1      -6.776   0.580 -34.383  1.00  0.00     0.169 HD
HETATM   36  O   UNL     1      -6.880  -0.201 -31.293  1.00  0.00    -0.268 OA
BRANCH  34  37
HETATM   37  C   UNL     1      -6.068  -1.309 -33.956  1.00  0.00     0.035 A 
HETATM   38  C   UNL     1      -4.724  -1.632 -33.762  1.00  0.00     0.029 A 
HETATM   39  C   UNL     1      -4.245  -2.902 -34.097  1.00  0.00     0.002 A 
HETATM   40  C   UNL     1      -5.105  -3.861 -34.625  1.00  0.00     0.000 A 
HETATM   41  C   UNL     1      -6.447  -3.550 -34.824  1.00  0.00     0.002 A 
HETATM   42  C   UNL     1      -6.925  -2.279 -34.494  1.00  0.00     0.029 A 
ENDBRANCH  34  37
ENDBRANCH   2  33
TORSDOF 9
ENDMDL
MODEL 9
REMARK VINA RESULT:      -9.1      2.739      6.155
REMARK  9 active torsions:
REMARK  status: ('A' for Active; 'I' for Inactive)
REMARK    1  A    between atoms: C_2  and  O_3 
REMARK    2  A    between atoms: O_3  and  C_4 
REMARK    3  A    between atoms: C_7  and  C_8 
REMARK    4  A    between atoms: C_9  and  C_10 
REMARK       I    between atoms: C_10  and  N_11 
REMARK    5  A    between atoms: N_11  and  C_12 
REMARK    6  A    between atoms: C_22  and  S_23 
REMARK    7  A    between atoms: S_23  and  C_24 
REMARK    8  A    between atoms: C_24  and  C_25 
REMARK       I    between atoms: C_25  and  N_26 
REMARK    9  A    between atoms: N_26  and  C_27 
ROOT
HETATM    1  C   UNL     1      -8.045   1.912 -32.286  1.00  0.00     0.106 C 
HETATM    2  C   UNL     1      -8.732   2.947 -33.161  1.00  0.00     0.046 C 
HETATM    3  C   UNL     1      -8.237   4.200 -33.276  1.00  0.00     0.019 C 
HETATM    4  C   UNL     1      -8.897   5.324 -34.033  1.00  0.00     0.069 C 
HETATM    5  N   UNL     1      -7.061   4.524 -32.617  1.00  0.00    -0.353 N 
HETATM    6  C   UNL     1      -6.466   3.752 -31.628  1.00  0.00     0.088 C 
HETATM    7  C   UNL     1      -6.955   2.509 -31.382  1.00  0.00     0.069 C 
HETATM    8  C   UNL     1      -6.461   1.665 -30.340  1.00  0.00     0.099 C 
HETATM    9  N   UNL     1      -6.089   0.970 -29.488  1.00  0.00    -0.192 NA
HETATM   10  H   UNL     1      -6.685   5.454 -32.761  1.00  0.00     0.166 HD
ENDROOT
BRANCH   1  11
HETATM   11  C   UNL     1      -7.404   0.791 -33.120  1.00  0.00    -0.044 A 
HETATM   12  C   UNL     1      -6.046   0.849 -33.488  1.00  0.00     0.011 A 
HETATM   13  C   UNL     1      -5.406  -0.263 -34.037  1.00  0.00     0.037 A 
HETATM   14  C   UNL     1      -6.111  -1.452 -34.215  1.00  0.00     0.068 A 
HETATM   15  C   UNL     1      -7.477  -1.494 -33.940  1.00  0.00     0.037 A 
HETATM   16  C   UNL     1      -8.122  -0.383 -33.389  1.00  0.00     0.011 A 
BRANCH  14  17
HETATM   17  O   UNL     1      -5.545  -2.619 -34.651  1.00  0.00    -0.352 OA
BRANCH  17  18
HETATM   18  C   UNL     1      -4.278  -2.910 -34.049  1.00  0.00     0.171 C 
HETATM   19  C   UNL     1      -4.087  -4.416 -34.039  1.00  0.00     0.034 C 
ENDBRANCH  17  18
ENDBRANCH  14  17
ENDBRANCH   1  11
BRANCH   6  20
HETATM   20  S   UNL     1      -5.012   4.275 -30.799  1.00  0.00    -0.102 SA
BRANCH  20  21
HETATM   21  C   UNL     1      -4.093   5.211 -32.056  1.00  0.00     0.184 C 
BRANCH  21  22
HETATM   22  C   UNL     1      -3.234   6.317 -31.435  1.00  0.00     0.231 C 
HETATM   23  N   UNL     1      -2.427   5.888 -30.396  1.00  0.00    -0.327 N 
HETATM   24  H   UNL     1      -2.590   4.933 -30.093  1.00  0.00     0.169 HD
HETATM   25  O   UNL     1      -3.240   7.443 -31.926  1.00  0.00    -0.272 OA
BRANCH  23  26
HETATM   26  C   UNL     1      -1.483   6.616 -29.650  1.00  0.00     0.034 A 
HETATM   27  C   UNL     1      -1.764   7.268 -28.453  1.00  0.00     0.030 A 
HETATM   28  C   UNL     1      -0.759   7.972 -27.778  1.00  0.00     0.009 A 
HETATM   29  C   UNL     1       0.538   8.043 -28.300  1.00  0.00    -0.062 A 
HETATM   30  C   UNL     1       1.624   8.770 -27.565  1.00  0.00     0.048 C 
HETATM   31  C   UNL     1       0.823   7.377 -29.494  1.00  0.00     0.009 A 
HETATM   32  C   UNL     1      -0.180   6.672 -30.164  1.00  0.00     0.030 A 
ENDBRANCH  23  26
ENDBRANCH  21  22
ENDBRANCH  20  21
ENDBRANCH   6  20
BRANCH   2  33
HETATM   33  C   UNL     1     -10.016   2.514 -33.777  1.00  0.00     0.255 C 
HETATM   34  N   UNL     1     -11.049   2.447 -32.866  1.00  0.00    -0.323 N 
HETATM   35  H   UNL     1     -10.849   2.764 -31.927  1.00  0.00     0.169 HD
HETATM   36  O   UNL     1     -10.053   2.290 -34.979  1.00  0.00    -0.268 OA
BRANCH  34  37
HETATM   37  C   UNL     1     -12.355   1.963 -33.088  1.00  0.00     0.035 A 
HETATM   38  C   UNL     1     -12.642   0.734 -33.684  1.00  0.00     0.029 A 
HETATM   39  C   UNL     1     -13.967   0.315 -33.839  1.00  0.00     0.002 A 
HETATM   40  C   UNL     1     -15.015   1.117 -33.397  1.00  0.00     0.000 A 
HETATM   41  C   UNL     1     -14.740   2.345 -32.803  1.00  0.00     0.002 A 
HETATM   42  C   UNL     1     -13.417   2.768 -32.652  1.00  0.00     0.029 A 
ENDBRANCH  34  37
ENDBRANCH   2  33
TORSDOF 9
ENDMDL
MODEL 10
REMARK VINA RESULT:      -9.1      3.770      9.270
REMARK  9 active torsions:
REMARK  status: ('A' for Active; 'I' for Inactive)
REMARK    1  A    between atoms: C_2  and  O_3 
REMARK    2  A    between atoms: O_3  and  C_4 
REMARK    3  A    between atoms: C_7  and  C_8 
REMARK    4  A    between atoms: C_9  and  C_10 
REMARK       I    between atoms: C_10  and  N_11 
REMARK    5  A    between atoms: N_11  and  C_12 
REMARK    6  A    between atoms: C_22  and  S_23 
REMARK    7  A    between atoms: S_23  and  C_24 
REMARK    8  A    between atoms: C_24  and  C_25 
REMARK       I    between atoms: C_25  and  N_26 
REMARK    9  A    between atoms: N_26  and  C_27 
ROOT
HETATM    1  C   UNL     1      -6.728   2.141 -31.255  1.00  0.00     0.106 C 
HETATM    2  C   UNL     1      -7.374   1.138 -32.196  1.00  0.00     0.046 C 
HETATM    3  C   UNL     1      -8.528   1.427 -32.837  1.00  0.00     0.019 C 
HETATM    4  C   UNL     1      -9.297   0.466 -33.707  1.00  0.00     0.069 C 
HETATM    5  N   UNL     1      -9.103   2.677 -32.660  1.00  0.00    -0.353 N 
HETATM    6  C   UNL     1      -8.741   3.585 -31.676  1.00  0.00     0.088 C 
HETATM    7  C   UNL     1      -7.640   3.332 -30.921  1.00  0.00     0.069 C 
HETATM    8  C   UNL     1      -7.225   4.167 -29.837  1.00  0.00     0.099 C 
HETATM    9  N   UNL     1      -6.880   4.818 -28.942  1.00  0.00    -0.192 NA
HETATM   10  H   UNL     1      -9.940   2.885 -33.192  1.00  0.00     0.166 HD
ENDROOT
BRANCH   1  11
HETATM   11  C   UNL     1      -5.414   2.699 -31.825  1.00  0.00    -0.044 A 
HETATM   12  C   UNL     1      -5.418   3.583 -32.921  1.00  0.00     0.011 A 
HETATM   13  C   UNL     1      -4.261   4.269 -33.290  1.00  0.00     0.037 A 
HETATM   14  C   UNL     1      -3.086   4.091 -32.561  1.00  0.00     0.068 A 
HETATM   15  C   UNL     1      -3.046   3.151 -31.533  1.00  0.00     0.037 A 
HETATM   16  C   UNL     1      -4.203   2.462 -31.159  1.00  0.00     0.011 A 
BRANCH  14  17
HETATM   17  O   UNL     1      -1.933   4.793 -32.786  1.00  0.00    -0.352 OA
BRANCH  17  18
HETATM   18  C   UNL     1      -2.070   5.839 -33.754  1.00  0.00     0.171 C 
HETATM   19  C   UNL     1      -1.104   5.568 -34.894  1.00  0.00     0.034 C 
ENDBRANCH  17  18
ENDBRANCH  14  17
ENDBRANCH   1  11
BRANCH   6  20
HETATM   20  S   UNL     1      -9.571   5.119 -31.485  1.00  0.00    -0.102 SA
BRANCH  20  21
HETATM   21  C   UNL     1     -10.111   5.546 -33.166  1.00  0.00     0.184 C 
BRANCH  21  22
HETATM   22  C   UNL     1     -11.619   5.348 -33.352  1.00  0.00     0.231 C 
HETATM   23  N   UNL     1     -12.188   4.467 -32.449  1.00  0.00    -0.327 N 
HETATM   24  H   UNL     1     -11.527   3.970 -31.860  1.00  0.00     0.169 HD
HETATM   25  O   UNL     1     -12.224   6.016 -34.187  1.00  0.00    -0.272 OA
BRANCH  23  26
HETATM   26  C   UNL     1     -13.538   4.103 -32.299  1.00  0.00     0.034 A 
HETATM   27  C   UNL     1     -14.547   4.980 -31.911  1.00  0.00     0.030 A 
HETATM   28  C   UNL     1     -15.867   4.529 -31.786  1.00  0.00     0.009 A 
HETATM   29  C   UNL     1     -16.192   3.190 -32.033  1.00  0.00    -0.062 A 
HETATM   30  C   UNL     1     -17.608   2.710 -31.928  1.00  0.00     0.048 C 
HETATM   31  C   UNL     1     -15.181   2.314 -32.433  1.00  0.00     0.009 A 
HETATM   32  C   UNL     1     -13.865   2.767 -32.563  1.00  0.00     0.030 A 
ENDBRANCH  23  26
ENDBRANCH  21  22
ENDBRANCH  20  21
ENDBRANCH   6  20
BRANCH   2  33
HETATM   33  C   UNL     1      -6.707  -0.191 -32.269  1.00  0.00     0.255 C 
HETATM   34  N   UNL     1      -6.533  -0.632 -33.563  1.00  0.00    -0.323 N 
HETATM   35  H   UNL     1      -6.795   0.008 -34.301  1.00  0.00     0.169 HD
HETATM   36  O   UNL     1      -6.365  -0.741 -31.231  1.00  0.00    -0.268 OA
BRANCH  34  37
HETATM   37  C   UNL     1      -6.048  -1.888 -33.981  1.00  0.00     0.035 A 
HETATM   38  C   UNL     1      -4.712  -2.281 -33.890  1.00  0.00     0.029 A 
HETATM   39  C   UNL     1      -4.319  -3.559 -34.299  1.00  0.00     0.002 A 
HETATM   40  C   UNL     1      -5.259  -4.457 -34.800  1.00  0.00     0.000 A 
HETATM   41  C   UNL     1      -6.593  -4.076 -34.897  1.00  0.00     0.002 A 
HETATM   42  C   UNL     1      -6.986  -2.796 -34.492  1.00  0.00     0.029 A 
ENDBRANCH  34  37
ENDBRANCH   2  33
TORSDOF 9
ENDMDL
