MODEL 1
REMARK VINA RESULT:      -9.2      0.000      0.000
REMARK  7 active torsions:
REMARK  status: ('A' for Active; 'I' for Inactive)
REMARK    1  A    between atoms: C_2  and  O_3 
REMARK    2  A    between atoms: O_3  and  C_4 
REMARK    3  A    between atoms: C_5  and  N_6 
REMARK       I    between atoms: N_6  and  C_7 
REMARK       I    between atoms: C_7  and  N_8 
REMARK    4  A    between atoms: N_8  and  C_9 
REMARK    5  A    between atoms: C_9  and  C_10 
REMARK       I    between atoms: C_10  and  N_11 
REMARK    6  A    between atoms: N_11  and  C_12 
REMARK    7  A    between atoms: C_25  and  C_26 
ROOT
HETATM    1  N   UNL     1      -7.472   0.122 -33.103  1.00  0.00    -0.306 N 
HETATM    2  C   UNL     1      -8.065   0.895 -34.081  1.00  0.00     0.321 C 
HETATM    3  N   UNL     1      -9.110   1.622 -33.578  1.00  0.00    -0.334 N 
HETATM    4  O   UNL     1      -7.677   1.018 -35.237  1.00  0.00    -0.247 OA
HETATM    5  H   UNL     1      -7.297   0.673 -32.276  1.00  0.00     0.171 HD
HETATM    6  H   UNL     1      -9.480   1.327 -32.685  1.00  0.00     0.164 HD
ENDROOT
BRANCH   3   7
HETATM    7  C   UNL     1      -9.476   2.942 -34.068  1.00  0.00     0.227 C 
BRANCH   7   8
HETATM    8  C   UNL     1      -8.418   4.055 -34.185  1.00  0.00     0.239 C 
HETATM    9  N   UNL     1      -7.143   3.656 -33.842  1.00  0.00    -0.326 N 
HETATM   10  H   UNL     1      -7.010   2.648 -33.726  1.00  0.00     0.169 HD
HETATM   11  O   UNL     1      -8.772   5.214 -34.398  1.00  0.00    -0.271 OA
BRANCH   9  12
HETATM   12  C   UNL     1      -6.035   4.465 -33.522  1.00  0.00     0.037 A 
HETATM   13  C   UNL     1      -4.982   4.723 -34.407  1.00  0.00     0.061 A 
HETATM   14  C   UNL     1      -4.008   5.600 -33.983  1.00  0.00     0.065 A 
HETATM   15  C   UNL     1      -4.040   6.205 -32.729  1.00  0.00     0.063 A 
HETATM   16  N   UNL     1      -2.880   6.064 -34.653  1.00  0.00    -0.306 N 
HETATM   17  N   UNL     1      -2.933   7.041 -32.629  1.00  0.00    -0.307 N 
HETATM   18  C   UNL     1      -5.046   5.963 -31.830  1.00  0.00     0.034 A 
HETATM   19  C   UNL     1      -2.202   6.968 -33.823  1.00  0.00     0.325 A 
HETATM   20  H   UNL     1      -2.679   7.628 -31.851  1.00  0.00     0.170 HD
HETATM   21  O   UNL     1      -1.181   7.576 -34.087  1.00  0.00    -0.247 OA
HETATM   22  C   UNL     1      -6.054   5.081 -32.241  1.00  0.00     0.032 A 
HETATM   23  H   UNL     1      -2.587   5.822 -35.585  1.00  0.00     0.170 HD
ENDBRANCH   9  12
ENDBRANCH   7   8
ENDBRANCH   3   7
BRANCH   1  24
HETATM   24  C   UNL     1      -6.435  -0.772 -33.463  1.00  0.00     0.070 A 
HETATM   25  C   UNL     1      -5.082  -0.433 -33.275  1.00  0.00     0.095 A 
HETATM   26  C   UNL     1      -4.098  -1.351 -33.650  1.00  0.00     0.040 A 
HETATM   27  C   UNL     1      -4.456  -2.601 -34.169  1.00  0.00     0.019 A 
HETATM   28  C   UNL     1      -5.803  -2.946 -34.347  1.00  0.00     0.050 A 
HETATM   29  C   UNL     1      -6.791  -2.004 -34.024  1.00  0.00     0.048 A 
BRANCH  25  30
HETATM   30  O   UNL     1      -4.829   0.824 -32.790  1.00  0.00    -0.349 OA
BRANCH  30  31
HETATM   31  C   UNL     1      -3.710   0.980 -31.920  1.00  0.00     0.171 C 
HETATM   32  C   UNL     1      -3.361   2.457 -31.872  1.00  0.00     0.034 C 
ENDBRANCH  30  31
ENDBRANCH  25  30
BRANCH  28  33
HETATM   33  C   UNL     1      -6.172  -4.320 -34.848  1.00  0.00     0.417 C 
HETATM   34  F   UNL     1      -6.141  -4.430 -36.206  1.00  0.00    -0.166 F 
HETATM   35  F   UNL     1      -5.340  -5.288 -34.377  1.00  0.00    -0.166 F 
HETATM   36  F   UNL     1      -7.428  -4.689 -34.473  1.00  0.00    -0.166 F 
ENDBRANCH  28  33
ENDBRANCH   1  24
TORSDOF 7
ENDMDL
MODEL 2
REMARK VINA RESULT:      -9.1      1.621      2.025
REMARK  7 active torsions:
REMARK  status: ('A' for Active; 'I' for Inactive)
REMARK    1  A    between atoms: C_2  and  O_3 
REMARK    2  A    between atoms: O_3  and  C_4 
REMARK    3  A    between atoms: C_5  and  N_6 
REMARK       I    between atoms: N_6  and  C_7 
REMARK       I    between atoms: C_7  and  N_8 
REMARK    4  A    between atoms: N_8  and  C_9 
REMARK    5  A    between atoms: C_9  and  C_10 
REMARK       I    between atoms: C_10  and  N_11 
REMARK    6  A    between atoms: N_11  and  C_12 
REMARK    7  A    between atoms: C_25  and  C_26 
ROOT
HETATM    1  N   UNL     1      -7.273  -0.020 -33.152  1.00  0.00    -0.306 N 
HETATM    2  C   UNL     1      -7.467   1.000 -34.062  1.00  0.00     0.321 C 
HETATM    3  N   UNL     1      -8.542   1.776 -33.720  1.00  0.00    -0.334 N 
HETATM    4  O   UNL     1      -6.739   1.269 -35.011  1.00  0.00    -0.247 OA
HETATM    5  H   UNL     1      -7.303   0.338 -32.209  1.00  0.00     0.171 HD
HETATM    6  H   UNL     1      -9.190   1.385 -33.050  1.00  0.00     0.164 HD
ENDROOT
BRANCH   3   7
HETATM    7  C   UNL     1      -8.617   3.203 -33.991  1.00  0.00     0.227 C 
BRANCH   7   8
HETATM    8  C   UNL     1      -7.487   4.147 -33.538  1.00  0.00     0.239 C 
HETATM    9  N   UNL     1      -6.279   3.917 -34.163  1.00  0.00    -0.326 N 
HETATM   10  H   UNL     1      -6.309   3.285 -34.967  1.00  0.00     0.169 HD
HETATM   11  O   UNL     1      -7.665   4.894 -32.577  1.00  0.00    -0.271 OA
BRANCH   9  12
HETATM   12  C   UNL     1      -4.999   4.350 -33.766  1.00  0.00     0.037 A 
HETATM   13  C   UNL     1      -4.412   4.016 -32.540  1.00  0.00     0.061 A 
HETATM   14  C   UNL     1      -3.121   4.445 -32.326  1.00  0.00     0.065 A 
HETATM   15  C   UNL     1      -2.414   5.190 -33.266  1.00  0.00     0.063 A 
HETATM   16  N   UNL     1      -2.286   4.233 -31.233  1.00  0.00    -0.306 N 
HETATM   17  N   UNL     1      -1.146   5.437 -32.751  1.00  0.00    -0.307 N 
HETATM   18  C   UNL     1      -2.962   5.551 -34.469  1.00  0.00     0.034 A 
HETATM   19  C   UNL     1      -1.049   4.842 -31.485  1.00  0.00     0.325 A 
HETATM   20  H   UNL     1      -0.393   5.939 -33.193  1.00  0.00     0.170 HD
HETATM   21  O   UNL     1      -0.076   4.849 -30.753  1.00  0.00    -0.247 OA
HETATM   22  C   UNL     1      -4.272   5.119 -34.715  1.00  0.00     0.032 A 
HETATM   23  H   UNL     1      -2.503   3.717 -30.396  1.00  0.00     0.170 HD
ENDBRANCH   9  12
ENDBRANCH   7   8
ENDBRANCH   3   7
BRANCH   1  24
HETATM   24  C   UNL     1      -6.265  -0.983 -33.399  1.00  0.00     0.070 A 
HETATM   25  C   UNL     1      -4.957  -0.812 -32.907  1.00  0.00     0.095 A 
HETATM   26  C   UNL     1      -4.000  -1.792 -33.183  1.00  0.00     0.040 A 
HETATM   27  C   UNL     1      -4.349  -2.941 -33.903  1.00  0.00     0.019 A 
HETATM   28  C   UNL     1      -5.653  -3.119 -34.384  1.00  0.00     0.050 A 
HETATM   29  C   UNL     1      -6.601  -2.111 -34.158  1.00  0.00     0.048 A 
BRANCH  25  30
HETATM   30  O   UNL     1      -4.703   0.358 -32.240  1.00  0.00    -0.349 OA
BRANCH  30  31
HETATM   31  C   UNL     1      -4.324   0.264 -30.869  1.00  0.00     0.171 C 
HETATM   32  C   UNL     1      -5.528   0.648 -30.027  1.00  0.00     0.034 C 
ENDBRANCH  30  31
ENDBRANCH  25  30
BRANCH  28  33
HETATM   33  C   UNL     1      -6.027  -4.392 -35.104  1.00  0.00     0.417 C 
HETATM   34  F   UNL     1      -7.259  -4.865 -34.765  1.00  0.00    -0.166 F 
HETATM   35  F   UNL     1      -6.044  -4.241 -36.456  1.00  0.00    -0.166 F 
HETATM   36  F   UNL     1      -5.155  -5.406 -34.849  1.00  0.00    -0.166 F 
ENDBRANCH  28  33
ENDBRANCH   1  24
TORSDOF 7
ENDMDL
MODEL 3
REMARK VINA RESULT:      -8.9      5.243      9.116
REMARK  7 active torsions:
REMARK  status: ('A' for Active; 'I' for Inactive)
REMARK    1  A    between atoms: C_2  and  O_3 
REMARK    2  A    between atoms: O_3  and  C_4 
REMARK    3  A    between atoms: C_5  and  N_6 
REMARK       I    between atoms: N_6  and  C_7 
REMARK       I    between atoms: C_7  and  N_8 
REMARK    4  A    between atoms: N_8  and  C_9 
REMARK    5  A    between atoms: C_9  and  C_10 
REMARK       I    between atoms: C_10  and  N_11 
REMARK    6  A    between atoms: N_11  and  C_12 
REMARK    7  A    between atoms: C_25  and  C_26 
ROOT
HETATM    1  N   UNL     1      -3.844   5.978 -31.369  1.00  0.00    -0.306 N 
HETATM    2  C   UNL     1      -4.260   4.669 -31.506  1.00  0.00     0.321 C 
HETATM    3  N   UNL     1      -5.619   4.561 -31.378  1.00  0.00    -0.334 N 
HETATM    4  O   UNL     1      -3.550   3.715 -31.801  1.00  0.00    -0.247 OA
HETATM    5  H   UNL     1      -4.412   6.591 -31.936  1.00  0.00     0.171 HD
HETATM    6  H   UNL     1      -6.099   5.343 -30.955  1.00  0.00     0.164 HD
ENDROOT
BRANCH   3   7
HETATM    7  C   UNL     1      -6.414   3.578 -32.097  1.00  0.00     0.227 C 
BRANCH   7   8
HETATM    8  C   UNL     1      -6.155   2.071 -31.907  1.00  0.00     0.239 C 
HETATM    9  N   UNL     1      -5.423   1.494 -32.925  1.00  0.00    -0.326 N 
HETATM   10  H   UNL     1      -4.990   2.146 -33.584  1.00  0.00     0.169 HD
HETATM   11  O   UNL     1      -6.725   1.463 -31.002  1.00  0.00    -0.271 OA
BRANCH   9  12
HETATM   12  C   UNL     1      -5.293   0.127 -33.235  1.00  0.00     0.037 A 
HETATM   13  C   UNL     1      -6.286  -0.620 -33.881  1.00  0.00     0.061 A 
HETATM   14  C   UNL     1      -5.984  -1.927 -34.192  1.00  0.00     0.065 A 
HETATM   15  C   UNL     1      -4.758  -2.507 -33.878  1.00  0.00     0.063 A 
HETATM   16  N   UNL     1      -6.751  -2.881 -34.855  1.00  0.00    -0.306 N 
HETATM   17  N   UNL     1      -4.771  -3.816 -34.346  1.00  0.00    -0.307 N 
HETATM   18  C   UNL     1      -3.769  -1.813 -33.230  1.00  0.00     0.034 A 
HETATM   19  C   UNL     1      -6.006  -4.063 -34.963  1.00  0.00     0.325 A 
HETATM   20  H   UNL     1      -4.029  -4.495 -34.287  1.00  0.00     0.170 HD
HETATM   21  O   UNL     1      -6.357  -5.101 -35.494  1.00  0.00    -0.247 OA
HETATM   22  C   UNL     1      -4.049  -0.478 -32.910  1.00  0.00     0.032 A 
HETATM   23  H   UNL     1      -7.680  -2.762 -35.223  1.00  0.00     0.170 HD
ENDBRANCH   9  12
ENDBRANCH   7   8
ENDBRANCH   3   7
BRANCH   1  24
HETATM   24  C   UNL     1      -2.458   6.268 -31.373  1.00  0.00     0.070 A 
HETATM   25  C   UNL     1      -1.800   6.667 -32.552  1.00  0.00     0.095 A 
HETATM   26  C   UNL     1      -0.431   6.938 -32.500  1.00  0.00     0.040 A 
HETATM   27  C   UNL     1       0.265   6.848 -31.289  1.00  0.00     0.019 A 
HETATM   28  C   UNL     1      -0.391   6.461 -30.111  1.00  0.00     0.050 A 
HETATM   29  C   UNL     1      -1.753   6.135 -30.172  1.00  0.00     0.048 A 
BRANCH  25  30
HETATM   30  O   UNL     1      -2.557   6.697 -33.694  1.00  0.00    -0.349 OA
BRANCH  30  31
HETATM   31  C   UNL     1      -2.370   5.641 -34.634  1.00  0.00     0.171 C 
HETATM   32  C   UNL     1      -3.735   5.246 -35.167  1.00  0.00     0.034 C 
ENDBRANCH  30  31
ENDBRANCH  25  30
BRANCH  28  33
HETATM   33  C   UNL     1       0.360   6.431 -28.803  1.00  0.00     0.417 C 
HETATM   34  F   UNL     1      -0.453   6.386 -27.711  1.00  0.00    -0.166 F 
HETATM   35  F   UNL     1       1.185   5.353 -28.699  1.00  0.00    -0.166 F 
HETATM   36  F   UNL     1       1.151   7.526 -28.634  1.00  0.00    -0.166 F 
ENDBRANCH  28  33
ENDBRANCH   1  24
TORSDOF 7
ENDMDL
MODEL 4
REMARK VINA RESULT:      -8.5     16.077     17.853
REMARK  7 active torsions:
REMARK  status: ('A' for Active; 'I' for Inactive)
REMARK    1  A    between atoms: C_2  and  O_3 
REMARK    2  A    between atoms: O_3  and  C_4 
REMARK    3  A    between atoms: C_5  and  N_6 
REMARK       I    between atoms: N_6  and  C_7 
REMARK       I    between atoms: C_7  and  N_8 
REMARK    4  A    between atoms: N_8  and  C_9 
REMARK    5  A    between atoms: C_9  and  C_10 
REMARK       I    between atoms: C_10  and  N_11 
REMARK    6  A    between atoms: N_11  and  C_12 
REMARK    7  A    between atoms: C_25  and  C_26 
ROOT
HETATM    1  N   UNL     1      -2.793 -13.024 -37.194  1.00  0.00    -0.306 N 
HETATM    2  C   UNL     1      -3.370 -13.903 -36.300  1.00  0.00     0.321 C 
HETATM    3  N   UNL     1      -4.013 -13.238 -35.290  1.00  0.00    -0.334 N 
HETATM    4  O   UNL     1      -3.409 -15.122 -36.411  1.00  0.00    -0.247 OA
HETATM    5  H   UNL     1      -3.451 -12.306 -37.459  1.00  0.00     0.171 HD
HETATM    6  H   UNL     1      -3.777 -12.263 -35.167  1.00  0.00     0.164 HD
ENDROOT
BRANCH   3   7
HETATM    7  C   UNL     1      -5.213 -13.739 -34.638  1.00  0.00     0.227 C 
BRANCH   7   8
HETATM    8  C   UNL     1      -6.560 -13.757 -35.385  1.00  0.00     0.239 C 
HETATM    9  N   UNL     1      -6.457 -14.087 -36.721  1.00  0.00    -0.326 N 
HETATM   10  H   UNL     1      -5.549 -14.451 -37.019  1.00  0.00     0.169 HD
HETATM   11  O   UNL     1      -7.572 -13.334 -34.828  1.00  0.00    -0.271 OA
BRANCH   9  12
HETATM   12  C   UNL     1      -7.404 -13.881 -37.743  1.00  0.00     0.037 A 
HETATM   13  C   UNL     1      -8.233 -14.890 -38.248  1.00  0.00     0.061 A 
HETATM   14  C   UNL     1      -9.168 -14.520 -39.188  1.00  0.00     0.065 A 
HETATM   15  C   UNL     1      -9.295 -13.210 -39.643  1.00  0.00     0.063 A 
HETATM   16  N   UNL     1     -10.134 -15.290 -39.830  1.00  0.00    -0.306 N 
HETATM   17  N   UNL     1     -10.337 -13.175 -40.563  1.00  0.00    -0.307 N 
HETATM   18  C   UNL     1      -8.490 -12.200 -39.185  1.00  0.00     0.034 A 
HETATM   19  C   UNL     1     -10.875 -14.465 -40.687  1.00  0.00     0.325 A 
HETATM   20  H   UNL     1     -10.686 -12.373 -41.061  1.00  0.00     0.170 HD
HETATM   21  O   UNL     1     -11.807 -14.798 -41.395  1.00  0.00    -0.247 OA
HETATM   22  C   UNL     1      -7.536 -12.549 -38.220  1.00  0.00     0.032 A 
HETATM   23  H   UNL     1     -10.306 -16.274 -39.703  1.00  0.00     0.170 HD
ENDBRANCH   9  12
ENDBRANCH   7   8
ENDBRANCH   3   7
BRANCH   1  24
HETATM   24  C   UNL     1      -2.000 -13.534 -38.251  1.00  0.00     0.070 A 
HETATM   25  C   UNL     1      -2.504 -13.622 -39.562  1.00  0.00     0.095 A 
HETATM   26  C   UNL     1      -1.680 -14.136 -40.567  1.00  0.00     0.040 A 
HETATM   27  C   UNL     1      -0.365 -14.520 -40.278  1.00  0.00     0.019 A 
HETATM   28  C   UNL     1       0.142 -14.423 -38.975  1.00  0.00     0.050 A 
HETATM   29  C   UNL     1      -0.700 -13.960 -37.955  1.00  0.00     0.048 A 
BRANCH  25  30
HETATM   30  O   UNL     1      -3.811 -13.251 -39.742  1.00  0.00    -0.349 OA
BRANCH  30  31
HETATM   31  C   UNL     1      -4.698 -14.219 -40.298  1.00  0.00     0.171 C 
HETATM   32  C   UNL     1      -5.375 -13.590 -41.503  1.00  0.00     0.034 C 
ENDBRANCH  30  31
ENDBRANCH  25  30
BRANCH  28  33
HETATM   33  C   UNL     1       1.581 -14.782 -38.695  1.00  0.00     0.417 C 
HETATM   34  F   UNL     1       2.145 -15.558 -39.662  1.00  0.00    -0.166 F 
HETATM   35  F   UNL     1       2.380 -13.686 -38.583  1.00  0.00    -0.166 F 
HETATM   36  F   UNL     1       1.725 -15.473 -37.530  1.00  0.00    -0.166 F 
ENDBRANCH  28  33
ENDBRANCH   1  24
TORSDOF 7
ENDMDL
MODEL 5
REMARK VINA RESULT:      -8.5      3.582      7.059
REMARK  7 active torsions:
REMARK  status: ('A' for Active; 'I' for Inactive)
REMARK    1  A    between atoms: C_2  and  O_3 
REMARK    2  A    between atoms: O_3  and  C_4 
REMARK    3  A    between atoms: C_5  and  N_6 
REMARK       I    between atoms: N_6  and  C_7 
REMARK       I    between atoms: C_7  and  N_8 
REMARK    4  A    between atoms: N_8  and  C_9 
REMARK    5  A    between atoms: C_9  and  C_10 
REMARK       I    between atoms: C_10  and  N_11 
REMARK    6  A    between atoms: N_11  and  C_12 
REMARK    7  A    between atoms: C_25  and  C_26 
ROOT
HETATM    1  N   UNL     1      -6.051   0.460 -34.180  1.00  0.00    -0.306 N 
HETATM    2  C   UNL     1      -6.670   1.032 -33.087  1.00  0.00     0.321 C 
HETATM    3  N   UNL     1      -7.190   2.261 -33.393  1.00  0.00    -0.334 N 
HETATM    4  O   UNL     1      -6.841   0.502 -31.995  1.00  0.00    -0.247 OA
HETATM    5  H   UNL     1      -6.644   0.522 -34.994  1.00  0.00     0.171 HD
HETATM    6  H   UNL     1      -6.848   2.701 -34.237  1.00  0.00     0.164 HD
ENDROOT
BRANCH   3   7
HETATM    7  C   UNL     1      -8.401   2.792 -32.787  1.00  0.00     0.227 C 
BRANCH   7   8
HETATM    8  C   UNL     1      -9.707   1.975 -32.801  1.00  0.00     0.239 C 
HETATM    9  N   UNL     1     -10.724   2.554 -33.530  1.00  0.00    -0.326 N 
HETATM   10  H   UNL     1     -10.454   3.349 -34.115  1.00  0.00     0.169 HD
HETATM   11  O   UNL     1      -9.821   0.996 -32.064  1.00  0.00    -0.271 OA
BRANCH   9  12
HETATM   12  C   UNL     1     -12.101   2.263 -33.484  1.00  0.00     0.037 A 
HETATM   13  C   UNL     1     -12.983   2.832 -32.556  1.00  0.00     0.061 A 
HETATM   14  C   UNL     1     -14.317   2.515 -32.685  1.00  0.00     0.065 A 
HETATM   15  C   UNL     1     -14.791   1.660 -33.677  1.00  0.00     0.063 A 
HETATM   16  N   UNL     1     -15.409   2.953 -31.941  1.00  0.00    -0.306 N 
HETATM   17  N   UNL     1     -16.173   1.572 -33.542  1.00  0.00    -0.307 N 
HETATM   18  C   UNL     1     -13.956   1.072 -34.591  1.00  0.00     0.034 A 
HETATM   19  C   UNL     1     -16.574   2.377 -32.466  1.00  0.00     0.325 A 
HETATM   20  H   UNL     1     -16.810   1.044 -34.114  1.00  0.00     0.170 HD
HETATM   21  O   UNL     1     -17.713   2.547 -32.072  1.00  0.00    -0.247 OA
HETATM   22  C   UNL     1     -12.594   1.385 -34.486  1.00  0.00     0.032 A 
HETATM   23  H   UNL     1     -15.394   3.591 -31.162  1.00  0.00     0.170 HD
ENDBRANCH   9  12
ENDBRANCH   7   8
ENDBRANCH   3   7
BRANCH   1  24
HETATM   24  C   UNL     1      -5.369  -0.771 -34.022  1.00  0.00     0.070 A 
HETATM   25  C   UNL     1      -4.131  -0.839 -33.357  1.00  0.00     0.095 A 
HETATM   26  C   UNL     1      -3.500  -2.079 -33.233  1.00  0.00     0.040 A 
HETATM   27  C   UNL     1      -4.109  -3.237 -33.729  1.00  0.00     0.019 A 
HETATM   28  C   UNL     1      -5.348  -3.174 -34.383  1.00  0.00     0.050 A 
HETATM   29  C   UNL     1      -5.956  -1.923 -34.558  1.00  0.00     0.048 A 
BRANCH  25  30
HETATM   30  O   UNL     1      -3.599   0.351 -32.933  1.00  0.00    -0.349 OA
BRANCH  30  31
HETATM   31  C   UNL     1      -3.332   0.492 -31.539  1.00  0.00     0.171 C 
HETATM   32  C   UNL     1      -3.440   1.967 -31.193  1.00  0.00     0.034 C 
ENDBRANCH  30  31
ENDBRANCH  25  30
BRANCH  28  33
HETATM   33  C   UNL     1      -6.019  -4.440 -34.855  1.00  0.00     0.417 C 
HETATM   34  F   UNL     1      -5.298  -5.567 -34.593  1.00  0.00    -0.166 F 
HETATM   35  F   UNL     1      -7.236  -4.633 -34.277  1.00  0.00    -0.166 F 
HETATM   36  F   UNL     1      -6.237  -4.440 -36.199  1.00  0.00    -0.166 F 
ENDBRANCH  28  33
ENDBRANCH   1  24
TORSDOF 7
ENDMDL
MODEL 6
REMARK VINA RESULT:      -8.4      5.502      8.856
REMARK  7 active torsions:
REMARK  status: ('A' for Active; 'I' for Inactive)
REMARK    1  A    between atoms: C_2  and  O_3 
REMARK    2  A    between atoms: O_3  and  C_4 
REMARK    3  A    between atoms: C_5  and  N_6 
REMARK       I    between atoms: N_6  and  C_7 
REMARK       I    between atoms: C_7  and  N_8 
REMARK    4  A    between atoms: N_8  and  C_9 
REMARK    5  A    between atoms: C_9  and  C_10 
REMARK       I    between atoms: C_10  and  N_11 
REMARK    6  A    between atoms: N_11  and  C_12 
REMARK    7  A    between atoms: C_25  and  C_26 
ROOT
HETATM    1  N   UNL     1      -3.679   5.911 -31.736  1.00  0.00    -0.306 N 
HETATM    2  C   UNL     1      -4.515   4.924 -31.253  1.00  0.00     0.321 C 
HETATM    3  N   UNL     1      -5.822   5.177 -31.571  1.00  0.00    -0.334 N 
HETATM    4  O   UNL     1      -4.164   3.892 -30.694  1.00  0.00    -0.247 OA
HETATM    5  H   UNL     1      -3.889   6.110 -32.703  1.00  0.00     0.171 HD
HETATM    6  H   UNL     1      -6.045   6.121 -31.857  1.00  0.00     0.164 HD
ENDROOT
BRANCH   3   7
HETATM    7  C   UNL     1      -6.797   4.132 -31.841  1.00  0.00     0.227 C 
BRANCH   7   8
HETATM    8  C   UNL     1      -6.548   3.096 -32.954  1.00  0.00     0.239 C 
HETATM    9  N   UNL     1      -6.844   1.799 -32.590  1.00  0.00    -0.326 N 
HETATM   10  H   UNL     1      -7.354   1.691 -31.710  1.00  0.00     0.169 HD
HETATM   11  O   UNL     1      -5.970   3.437 -33.985  1.00  0.00    -0.271 OA
BRANCH   9  12
HETATM   12  C   UNL     1      -6.436   0.606 -33.217  1.00  0.00     0.037 A 
HETATM   13  C   UNL     1      -5.329  -0.147 -32.806  1.00  0.00     0.061 A 
HETATM   14  C   UNL     1      -5.101  -1.335 -33.464  1.00  0.00     0.065 A 
HETATM   15  C   UNL     1      -5.912  -1.784 -34.502  1.00  0.00     0.063 A 
HETATM   16  N   UNL     1      -4.112  -2.292 -33.250  1.00  0.00    -0.306 N 
HETATM   17  N   UNL     1      -5.423  -3.014 -34.927  1.00  0.00    -0.307 N 
HETATM   18  C   UNL     1      -6.993  -1.066 -34.944  1.00  0.00     0.034 A 
HETATM   19  C   UNL     1      -4.303  -3.347 -34.151  1.00  0.00     0.325 A 
HETATM   20  H   UNL     1      -5.796  -3.603 -35.653  1.00  0.00     0.170 HD
HETATM   21  O   UNL     1      -3.633  -4.360 -34.241  1.00  0.00    -0.247 OA
HETATM   22  C   UNL     1      -7.252   0.143 -34.284  1.00  0.00     0.032 A 
HETATM   23  H   UNL     1      -3.382  -2.263 -32.557  1.00  0.00     0.170 HD
ENDBRANCH   9  12
ENDBRANCH   7   8
ENDBRANCH   3   7
BRANCH   1  24
HETATM   24  C   UNL     1      -2.300   5.866 -31.417  1.00  0.00     0.070 A 
HETATM   25  C   UNL     1      -1.383   5.187 -32.240  1.00  0.00     0.095 A 
HETATM   26  C   UNL     1      -0.034   5.171 -31.876  1.00  0.00     0.040 A 
HETATM   27  C   UNL     1       0.400   5.852 -30.733  1.00  0.00     0.019 A 
HETATM   28  C   UNL     1      -0.511   6.539 -29.917  1.00  0.00     0.050 A 
HETATM   29  C   UNL     1      -1.872   6.509 -30.249  1.00  0.00     0.048 A 
BRANCH  25  30
HETATM   30  O   UNL     1      -1.905   4.524 -33.320  1.00  0.00    -0.349 OA
BRANCH  30  31
HETATM   31  C   UNL     1      -1.798   5.156 -34.594  1.00  0.00     0.171 C 
HETATM   32  C   UNL     1      -3.201   5.331 -35.145  1.00  0.00     0.034 C 
ENDBRANCH  30  31
ENDBRANCH  25  30
BRANCH  28  33
HETATM   33  C   UNL     1      -0.017   7.320 -28.724  1.00  0.00     0.417 C 
HETATM   34  F   UNL     1       1.103   8.053 -28.980  1.00  0.00    -0.166 F 
HETATM   35  F   UNL     1      -0.942   8.204 -28.260  1.00  0.00    -0.166 F 
HETATM   36  F   UNL     1       0.296   6.516 -27.671  1.00  0.00    -0.166 F 
ENDBRANCH  28  33
ENDBRANCH   1  24
TORSDOF 7
ENDMDL
MODEL 7
REMARK VINA RESULT:      -8.4      3.870      7.068
REMARK  7 active torsions:
REMARK  status: ('A' for Active; 'I' for Inactive)
REMARK    1  A    between atoms: C_2  and  O_3 
REMARK    2  A    between atoms: O_3  and  C_4 
REMARK    3  A    between atoms: C_5  and  N_6 
REMARK       I    between atoms: N_6  and  C_7 
REMARK       I    between atoms: C_7  and  N_8 
REMARK    4  A    between atoms: N_8  and  C_9 
REMARK    5  A    between atoms: C_9  and  C_10 
REMARK       I    between atoms: C_10  and  N_11 
REMARK    6  A    between atoms: N_11  and  C_12 
REMARK    7  A    between atoms: C_25  and  C_26 
ROOT
HETATM    1  N   UNL     1      -7.614  -0.179 -33.261  1.00  0.00    -0.306 N 
HETATM    2  C   UNL     1      -7.897   0.770 -34.223  1.00  0.00     0.321 C 
HETATM    3  N   UNL     1      -9.031   1.472 -33.913  1.00  0.00    -0.334 N 
HETATM    4  O   UNL     1      -7.198   1.045 -35.191  1.00  0.00    -0.247 OA
HETATM    5  H   UNL     1      -7.670   0.226 -32.338  1.00  0.00     0.171 HD
HETATM    6  H   UNL     1      -9.641   1.066 -33.217  1.00  0.00     0.164 HD
ENDROOT
BRANCH   3   7
HETATM    7  C   UNL     1      -9.225   2.871 -34.260  1.00  0.00     0.227 C 
BRANCH   7   8
HETATM    8  C   UNL     1     -10.621   3.516 -34.163  1.00  0.00     0.239 C 
HETATM    9  N   UNL     1     -11.273   3.267 -32.973  1.00  0.00    -0.326 N 
HETATM   10  H   UNL     1     -10.703   2.847 -32.235  1.00  0.00     0.169 HD
HETATM   11  O   UNL     1     -11.121   4.040 -35.158  1.00  0.00    -0.271 OA
BRANCH   9  12
HETATM   12  C   UNL     1     -12.644   3.411 -32.687  1.00  0.00     0.037 A 
HETATM   13  C   UNL     1     -13.633   2.546 -33.171  1.00  0.00     0.061 A 
HETATM   14  C   UNL     1     -14.922   2.765 -32.738  1.00  0.00     0.065 A 
HETATM   15  C   UNL     1     -15.256   3.801 -31.870  1.00  0.00     0.063 A 
HETATM   16  N   UNL     1     -16.085   2.054 -33.021  1.00  0.00    -0.306 N 
HETATM   17  N   UNL     1     -16.621   3.728 -31.619  1.00  0.00    -0.307 N 
HETATM   18  C   UNL     1     -14.318   4.678 -31.390  1.00  0.00     0.034 A 
HETATM   19  C   UNL     1     -17.153   2.639 -32.327  1.00  0.00     0.325 A 
HETATM   20  H   UNL     1     -17.166   4.327 -31.021  1.00  0.00     0.170 HD
HETATM   21  O   UNL     1     -18.313   2.273 -32.329  1.00  0.00    -0.247 OA
HETATM   22  C   UNL     1     -12.996   4.471 -31.808  1.00  0.00     0.032 A 
HETATM   23  H   UNL     1     -16.170   1.240 -33.608  1.00  0.00     0.170 HD
ENDBRANCH   9  12
ENDBRANCH   7   8
ENDBRANCH   3   7
BRANCH   1  24
HETATM   24  C   UNL     1      -6.531  -1.069 -33.464  1.00  0.00     0.070 A 
HETATM   25  C   UNL     1      -5.263  -0.811 -32.911  1.00  0.00     0.095 A 
HETATM   26  C   UNL     1      -4.228  -1.720 -33.146  1.00  0.00     0.040 A 
HETATM   27  C   UNL     1      -4.462  -2.885 -33.886  1.00  0.00     0.019 A 
HETATM   28  C   UNL     1      -5.728  -3.149 -34.429  1.00  0.00     0.050 A 
HETATM   29  C   UNL     1      -6.753  -2.211 -34.242  1.00  0.00     0.048 A 
BRANCH  25  30
HETATM   30  O   UNL     1      -5.122   0.369 -32.228  1.00  0.00    -0.349 OA
BRANCH  30  31
HETATM   31  C   UNL     1      -4.565   0.307 -30.917  1.00  0.00     0.171 C 
HETATM   32  C   UNL     1      -5.631   0.764 -29.938  1.00  0.00     0.034 C 
ENDBRANCH  30  31
ENDBRANCH  25  30
BRANCH  28  33
HETATM   33  C   UNL     1      -5.979  -4.439 -35.170  1.00  0.00     0.417 C 
HETATM   34  F   UNL     1      -5.192  -5.469 -34.749  1.00  0.00    -0.166 F 
HETATM   35  F   UNL     1      -7.262  -4.874 -35.042  1.00  0.00    -0.166 F 
HETATM   36  F   UNL     1      -5.754  -4.321 -36.508  1.00  0.00    -0.166 F 
ENDBRANCH  28  33
ENDBRANCH   1  24
TORSDOF 7
ENDMDL
MODEL 8
REMARK VINA RESULT:      -8.3      2.429      3.114
REMARK  7 active torsions:
REMARK  status: ('A' for Active; 'I' for Inactive)
REMARK    1  A    between atoms: C_2  and  O_3 
REMARK    2  A    between atoms: O_3  and  C_4 
REMARK    3  A    between atoms: C_5  and  N_6 
REMARK       I    between atoms: N_6  and  C_7 
REMARK       I    between atoms: C_7  and  N_8 
REMARK    4  A    between atoms: N_8  and  C_9 
REMARK    5  A    between atoms: C_9  and  C_10 
REMARK       I    between atoms: C_10  and  N_11 
REMARK    6  A    between atoms: N_11  and  C_12 
REMARK    7  A    between atoms: C_25  and  C_26 
ROOT
HETATM    1  N   UNL     1      -7.958  -0.349 -33.327  1.00  0.00    -0.306 N 
HETATM    2  C   UNL     1      -8.307   0.642 -34.222  1.00  0.00     0.321 C 
HETATM    3  N   UNL     1      -9.506   1.215 -33.891  1.00  0.00    -0.334 N 
HETATM    4  O   UNL     1      -7.617   1.054 -35.147  1.00  0.00    -0.247 OA
HETATM    5  H   UNL     1      -8.068  -0.023 -32.378  1.00  0.00     0.171 HD
HETATM    6  H   UNL     1     -10.090   0.703 -33.244  1.00  0.00     0.164 HD
ENDROOT
BRANCH   3   7
HETATM    7  C   UNL     1      -9.820   2.613 -34.136  1.00  0.00     0.227 C 
BRANCH   7   8
HETATM    8  C   UNL     1      -9.084   3.728 -33.368  1.00  0.00     0.239 C 
HETATM    9  N   UNL     1      -7.851   3.351 -32.877  1.00  0.00    -0.326 N 
HETATM   10  H   UNL     1      -7.490   2.458 -33.222  1.00  0.00     0.169 HD
HETATM   11  O   UNL     1      -9.672   4.775 -33.100  1.00  0.00    -0.271 OA
BRANCH   9  12
HETATM   12  C   UNL     1      -7.082   3.983 -31.881  1.00  0.00     0.037 A 
HETATM   13  C   UNL     1      -7.539   4.211 -30.577  1.00  0.00     0.061 A 
HETATM   14  C   UNL     1      -6.645   4.765 -29.688  1.00  0.00     0.065 A 
HETATM   15  C   UNL     1      -5.343   5.104 -30.048  1.00  0.00     0.063 A 
HETATM   16  N   UNL     1      -6.807   5.067 -28.339  1.00  0.00    -0.306 N 
HETATM   17  N   UNL     1      -4.706   5.614 -28.923  1.00  0.00    -0.307 N 
HETATM   18  C   UNL     1      -4.867   4.913 -31.319  1.00  0.00     0.034 A 
HETATM   19  C   UNL     1      -5.604   5.592 -27.846  1.00  0.00     0.325 A 
HETATM   20  H   UNL     1      -3.754   5.936 -28.852  1.00  0.00     0.170 HD
HETATM   21  O   UNL     1      -5.379   5.953 -26.705  1.00  0.00    -0.247 OA
HETATM   22  C   UNL     1      -5.755   4.341 -32.241  1.00  0.00     0.032 A 
HETATM   23  H   UNL     1      -7.633   4.923 -27.781  1.00  0.00     0.170 HD
ENDBRANCH   9  12
ENDBRANCH   7   8
ENDBRANCH   3   7
BRANCH   1  24
HETATM   24  C   UNL     1      -6.794  -1.119 -33.568  1.00  0.00     0.070 A 
HETATM   25  C   UNL     1      -5.538  -0.715 -33.079  1.00  0.00     0.095 A 
HETATM   26  C   UNL     1      -4.422  -1.510 -33.348  1.00  0.00     0.040 A 
HETATM   27  C   UNL     1      -4.560  -2.708 -34.059  1.00  0.00     0.019 A 
HETATM   28  C   UNL     1      -5.812  -3.119 -34.538  1.00  0.00     0.050 A 
HETATM   29  C   UNL     1      -6.924  -2.294 -34.318  1.00  0.00     0.048 A 
BRANCH  25  30
HETATM   30  O   UNL     1      -5.497   0.487 -32.420  1.00  0.00    -0.349 OA
BRANCH  30  31
HETATM   31  C   UNL     1      -4.835   0.522 -31.158  1.00  0.00     0.171 C 
HETATM   32  C   UNL     1      -5.855   0.927 -30.109  1.00  0.00     0.034 C 
ENDBRANCH  30  31
ENDBRANCH  25  30
BRANCH  28  33
HETATM   33  C   UNL     1      -5.953  -4.443 -35.248  1.00  0.00     0.417 C 
HETATM   34  F   UNL     1      -5.059  -5.382 -34.828  1.00  0.00    -0.166 F 
HETATM   35  F   UNL     1      -7.184  -4.997 -35.079  1.00  0.00    -0.166 F 
HETATM   36  F   UNL     1      -5.772  -4.332 -36.593  1.00  0.00    -0.166 F 
ENDBRANCH  28  33
ENDBRANCH   1  24
TORSDOF 7
ENDMDL
MODEL 9
REMARK VINA RESULT:      -8.3      4.976      8.666
REMARK  7 active torsions:
REMARK  status: ('A' for Active; 'I' for Inactive)
REMARK    1  A    between atoms: C_2  and  O_3 
REMARK    2  A    between atoms: O_3  and  C_4 
REMARK    3  A    between atoms: C_5  and  N_6 
REMARK       I    between atoms: N_6  and  C_7 
REMARK       I    between atoms: C_7  and  N_8 
REMARK    4  A    between atoms: N_8  and  C_9 
REMARK    5  A    between atoms: C_9  and  C_10 
REMARK       I    between atoms: C_10  and  N_11 
REMARK    6  A    between atoms: N_11  and  C_12 
REMARK    7  A    between atoms: C_25  and  C_26 
ROOT
HETATM    1  N   UNL     1      -4.124   4.278 -31.081  1.00  0.00    -0.306 N 
HETATM    2  C   UNL     1      -4.091   2.910 -31.267  1.00  0.00     0.321 C 
HETATM    3  N   UNL     1      -5.095   2.288 -30.574  1.00  0.00    -0.334 N 
HETATM    4  O   UNL     1      -3.341   2.303 -32.021  1.00  0.00    -0.247 OA
HETATM    5  H   UNL     1      -5.061   4.630 -31.209  1.00  0.00     0.171 HD
HETATM    6  H   UNL     1      -5.540   2.824 -29.841  1.00  0.00     0.164 HD
ENDROOT
BRANCH   3   7
HETATM    7  C   UNL     1      -5.760   1.081 -31.039  1.00  0.00     0.227 C 
BRANCH   7   8
HETATM    8  C   UNL     1      -6.684   1.121 -32.271  1.00  0.00     0.239 C 
HETATM    9  N   UNL     1      -7.786   1.937 -32.120  1.00  0.00    -0.326 N 
HETATM   10  H   UNL     1      -7.775   2.550 -31.301  1.00  0.00     0.169 HD
HETATM   11  O   UNL     1      -6.495   0.338 -33.201  1.00  0.00    -0.271 OA
BRANCH   9  12
HETATM   12  C   UNL     1      -8.968   1.951 -32.884  1.00  0.00     0.037 A 
HETATM   13  C   UNL     1     -10.006   1.025 -32.724  1.00  0.00     0.061 A 
HETATM   14  C   UNL     1     -11.137   1.214 -33.487  1.00  0.00     0.065 A 
HETATM   15  C   UNL     1     -11.263   2.264 -34.393  1.00  0.00     0.063 A 
HETATM   16  N   UNL     1     -12.322   0.483 -33.512  1.00  0.00    -0.306 N 
HETATM   17  N   UNL     1     -12.523   2.179 -34.975  1.00  0.00    -0.307 N 
HETATM   18  C   UNL     1     -10.261   3.179 -34.589  1.00  0.00     0.034 A 
HETATM   19  C   UNL     1     -13.198   1.076 -34.432  1.00  0.00     0.325 A 
HETATM   20  H   UNL     1     -12.923   2.798 -35.661  1.00  0.00     0.170 HD
HETATM   21  O   UNL     1     -14.327   0.711 -34.704  1.00  0.00    -0.247 OA
HETATM   22  C   UNL     1      -9.103   3.013 -33.819  1.00  0.00     0.032 A 
HETATM   23  H   UNL     1     -12.546  -0.327 -32.959  1.00  0.00     0.170 HD
ENDBRANCH   9  12
ENDBRANCH   7   8
ENDBRANCH   3   7
BRANCH   1  24
HETATM   24  C   UNL     1      -3.098   5.076 -31.643  1.00  0.00     0.070 A 
HETATM   25  C   UNL     1      -3.328   5.854 -32.793  1.00  0.00     0.095 A 
HETATM   26  C   UNL     1      -2.281   6.621 -33.309  1.00  0.00     0.040 A 
HETATM   27  C   UNL     1      -1.036   6.643 -32.668  1.00  0.00     0.019 A 
HETATM   28  C   UNL     1      -0.808   5.877 -31.516  1.00  0.00     0.050 A 
HETATM   29  C   UNL     1      -1.840   5.063 -31.030  1.00  0.00     0.048 A 
BRANCH  25  30
HETATM   30  O   UNL     1      -4.568   5.745 -33.367  1.00  0.00    -0.349 OA
BRANCH  30  31
HETATM   31  C   UNL     1      -4.673   4.975 -34.562  1.00  0.00     0.171 C 
HETATM   32  C   UNL     1      -5.731   3.909 -34.337  1.00  0.00     0.034 C 
ENDBRANCH  30  31
ENDBRANCH  25  30
BRANCH  28  33
HETATM   33  C   UNL     1       0.520   5.961 -30.803  1.00  0.00     0.417 C 
HETATM   34  F   UNL     1       1.441   5.070 -31.264  1.00  0.00    -0.166 F 
HETATM   35  F   UNL     1       1.097   7.188 -30.919  1.00  0.00    -0.166 F 
HETATM   36  F   UNL     1       0.406   5.724 -29.467  1.00  0.00    -0.166 F 
ENDBRANCH  28  33
ENDBRANCH   1  24
TORSDOF 7
ENDMDL
MODEL 10
REMARK VINA RESULT:      -8.2      4.778      7.646
REMARK  7 active torsions:
REMARK  status: ('A' for Active; 'I' for Inactive)
REMARK    1  A    between atoms: C_2  and  O_3 
REMARK    2  A    between atoms: O_3  and  C_4 
REMARK    3  A    between atoms: C_5  and  N_6 
REMARK       I    between atoms: N_6  and  C_7 
REMARK       I    between atoms: C_7  and  N_8 
REMARK    4  A    between atoms: N_8  and  C_9 
REMARK    5  A    between atoms: C_9  and  C_10 
REMARK       I    between atoms: C_10  and  N_11 
REMARK    6  A    between atoms: N_11  and  C_12 
REMARK    7  A    between atoms: C_25  and  C_26 
ROOT
HETATM    1  N   UNL     1      -8.188   0.571 -34.965  1.00  0.00    -0.306 N 
HETATM    2  C   UNL     1      -9.283   0.650 -34.128  1.00  0.00     0.321 C 
HETATM    3  N   UNL     1     -10.215   1.531 -34.607  1.00  0.00    -0.334 N 
HETATM    4  O   UNL     1      -9.478  -0.034 -33.130  1.00  0.00    -0.247 OA
HETATM    5  H   UNL     1      -8.483   0.457 -35.923  1.00  0.00     0.171 HD
HETATM    6  H   UNL     1      -9.902   2.182 -35.314  1.00  0.00     0.164 HD
ENDROOT
BRANCH   3   7
HETATM    7  C   UNL     1     -11.647   1.365 -34.414  1.00  0.00     0.227 C 
BRANCH   7   8
HETATM    8  C   UNL     1     -12.499   2.514 -33.844  1.00  0.00     0.239 C 
HETATM    9  N   UNL     1     -13.421   2.114 -32.900  1.00  0.00    -0.326 N 
HETATM   10  H   UNL     1     -13.319   1.155 -32.558  1.00  0.00     0.169 HD
HETATM   11  O   UNL     1     -12.435   3.632 -34.353  1.00  0.00    -0.271 OA
BRANCH   9  12
HETATM   12  C   UNL     1     -14.549   2.817 -32.434  1.00  0.00     0.037 A 
HETATM   13  C   UNL     1     -14.510   4.149 -32.003  1.00  0.00     0.061 A 
HETATM   14  C   UNL     1     -15.709   4.729 -31.653  1.00  0.00     0.065 A 
HETATM   15  C   UNL     1     -16.918   4.040 -31.703  1.00  0.00     0.063 A 
HETATM   16  N   UNL     1     -15.974   6.028 -31.228  1.00  0.00    -0.306 N 
HETATM   17  N   UNL     1     -17.925   4.914 -31.310  1.00  0.00    -0.307 N 
HETATM   18  C   UNL     1     -16.993   2.731 -32.102  1.00  0.00     0.034 A 
HETATM   19  C   UNL     1     -17.353   6.160 -31.015  1.00  0.00     0.325 A 
HETATM   20  H   UNL     1     -18.912   4.723 -31.254  1.00  0.00     0.170 HD
HETATM   21  O   UNL     1     -17.943   7.162 -30.653  1.00  0.00    -0.247 OA
HETATM   22  C   UNL     1     -15.787   2.120 -32.473  1.00  0.00     0.032 A 
HETATM   23  H   UNL     1     -15.309   6.773 -31.105  1.00  0.00     0.170 HD
ENDBRANCH   9  12
ENDBRANCH   7   8
ENDBRANCH   3   7
BRANCH   1  24
HETATM   24  C   UNL     1      -7.077  -0.218 -34.578  1.00  0.00     0.070 A 
HETATM   25  C   UNL     1      -5.989   0.344 -33.884  1.00  0.00     0.095 A 
HETATM   26  C   UNL     1      -4.918  -0.480 -33.530  1.00  0.00     0.040 A 
HETATM   27  C   UNL     1      -4.947  -1.848 -33.827  1.00  0.00     0.019 A 
HETATM   28  C   UNL     1      -6.034  -2.412 -34.509  1.00  0.00     0.050 A 
HETATM   29  C   UNL     1      -7.084  -1.577 -34.915  1.00  0.00     0.048 A 
BRANCH  25  30
HETATM   30  O   UNL     1      -6.037   1.696 -33.665  1.00  0.00    -0.349 OA
BRANCH  30  31
HETATM   31  C   UNL     1      -5.284   2.211 -32.570  1.00  0.00     0.171 C 
HETATM   32  C   UNL     1      -4.793   3.596 -32.954  1.00  0.00     0.034 C 
ENDBRANCH  30  31
ENDBRANCH  25  30
BRANCH  28  33
HETATM   33  C   UNL     1      -6.077  -3.898 -34.765  1.00  0.00     0.417 C 
HETATM   34  F   UNL     1      -5.994  -4.224 -36.086  1.00  0.00    -0.166 F 
HETATM   35  F   UNL     1      -5.060  -4.563 -34.152  1.00  0.00    -0.166 F 
HETATM   36  F   UNL     1      -7.227  -4.470 -34.312  1.00  0.00    -0.166 F 
ENDBRANCH  28  33
ENDBRANCH   1  24
TORSDOF 7
ENDMDL
