MODEL 1
REMARK VINA RESULT:      -8.4      0.000      0.000
REMARK  7 active torsions:
REMARK  status: ('A' for Active; 'I' for Inactive)
REMARK    1  A    between atoms: C_3  and  C_4 
REMARK    2  A    between atoms: C_4  and  N_5 
REMARK    3  A    between atoms: C_4  and  C_9 
REMARK       I    between atoms: N_5  and  C_6 
REMARK       I    between atoms: C_6  and  N_7 
REMARK    4  A    between atoms: C_9  and  C_10 
REMARK       I    between atoms: C_10  and  N_11 
REMARK    5  A    between atoms: N_11  and  C_12 
REMARK    6  A    between atoms: C_12  and  C_13 
REMARK    7  A    between atoms: C_13  and  N_14 
ROOT
HETATM    1  C   UNL     1      -7.374  -0.163 -34.990  1.00  0.00     0.132 C 
ENDROOT
BRANCH   1   2
HETATM    2  C   UNL     1      -6.367  -0.630 -33.922  1.00  0.00     0.128 C 
BRANCH   2   3
HETATM    3  C   UNL     1      -5.936  -2.075 -34.170  1.00  0.00    -0.029 A 
HETATM    4  C   UNL     1      -4.641  -2.536 -33.842  1.00  0.00    -0.054 A 
HETATM    5  C   UNL     1      -3.596  -1.640 -33.233  1.00  0.00     0.049 C 
HETATM    6  C   UNL     1      -4.303  -3.877 -34.095  1.00  0.00     0.007 A 
HETATM    7  C   UNL     1      -5.227  -4.761 -34.648  1.00  0.00     0.001 A 
HETATM    8  C   UNL     1      -6.509  -4.321 -34.952  1.00  0.00     0.001 A 
HETATM    9  C   UNL     1      -6.862  -2.993 -34.711  1.00  0.00     0.010 A 
ENDBRANCH   2   3
BRANCH   2  10
HETATM   10  N   UNL     1      -6.919  -0.538 -32.572  1.00  0.00    -0.334 N 
HETATM   11  C   UNL     1      -6.408   0.254 -31.595  1.00  0.00     0.314 C 
HETATM   12  N   UNL     1      -7.064   0.121 -30.417  1.00  0.00    -0.352 N 
HETATM   13  O   UNL     1      -5.494   1.058 -31.733  1.00  0.00    -0.248 OA
HETATM   14  H   UNL     1      -7.491  -0.767 -30.188  1.00  0.00     0.160 HD
HETATM   15  H   UNL     1      -6.664   0.614 -29.630  1.00  0.00     0.160 HD
HETATM   16  H   UNL     1      -7.628  -1.211 -32.313  1.00  0.00     0.165 HD
ENDBRANCH   2  10
ENDBRANCH   1   2
BRANCH   1  17
HETATM   17  C   UNL     1      -8.299   0.899 -34.445  1.00  0.00     0.219 C 
HETATM   18  N   UNL     1      -7.744   2.149 -34.308  1.00  0.00    -0.359 N 
HETATM   19  H   UNL     1      -6.762   2.270 -34.540  1.00  0.00     0.162 HD
HETATM   20  O   UNL     1      -9.471   0.684 -34.144  1.00  0.00    -0.274 OA
BRANCH  18  21
HETATM   21  C   UNL     1      -8.458   3.284 -33.744  1.00  0.00     0.150 C 
BRANCH  21  22
HETATM   22  C   UNL     1      -7.737   3.995 -32.578  1.00  0.00     0.254 C 
BRANCH  22  23
HETATM   23  N   UNL     1      -6.239   4.033 -32.734  1.00  0.00    -0.065 N 
HETATM   24  H   UNL     1      -5.940   3.047 -32.886  1.00  0.00     0.280 HD
HETATM   25  C   UNL     1      -5.757   4.766 -33.970  1.00  0.00     0.274 C 
HETATM   26  C   UNL     1      -4.271   4.915 -33.993  1.00  0.00    -0.019 A 
HETATM   27  C   UNL     1      -3.489   4.677 -32.880  1.00  0.00    -0.008 A 
HETATM   28  C   UNL     1      -3.469   5.319 -35.106  1.00  0.00     0.017 A 
HETATM   29  S   UNL     1      -1.834   4.930 -33.160  1.00  0.00    -0.106 SA
HETATM   30  C   UNL     1      -4.017   4.214 -31.560  1.00  0.00     0.074 C 
HETATM   31  C   UNL     1      -2.127   5.367 -34.789  1.00  0.00     0.051 A 
HETATM   32  C   UNL     1      -5.526   4.498 -31.475  1.00  0.00     0.240 C 
ENDBRANCH  22  23
ENDBRANCH  21  22
ENDBRANCH  18  21
ENDBRANCH   1  17
TORSDOF 7
ENDMDL
MODEL 2
REMARK VINA RESULT:      -8.2      2.121      3.015
REMARK  7 active torsions:
REMARK  status: ('A' for Active; 'I' for Inactive)
REMARK    1  A    between atoms: C_3  and  C_4 
REMARK    2  A    between atoms: C_4  and  N_5 
REMARK    3  A    between atoms: C_4  and  C_9 
REMARK       I    between atoms: N_5  and  C_6 
REMARK       I    between atoms: C_6  and  N_7 
REMARK    4  A    between atoms: C_9  and  C_10 
REMARK       I    between atoms: C_10  and  N_11 
REMARK    5  A    between atoms: N_11  and  C_12 
REMARK    6  A    between atoms: C_12  and  C_13 
REMARK    7  A    between atoms: C_13  and  N_14 
ROOT
HETATM    1  C   UNL     1      -7.378   1.500 -33.762  1.00  0.00     0.132 C 
ENDROOT
BRANCH   1   2
HETATM    2  C   UNL     1      -6.204   0.831 -33.023  1.00  0.00     0.128 C 
BRANCH   2   3
HETATM    3  C   UNL     1      -5.931  -0.566 -33.580  1.00  0.00    -0.029 A 
HETATM    4  C   UNL     1      -4.636  -1.130 -33.582  1.00  0.00    -0.054 A 
HETATM    5  C   UNL     1      -3.435  -0.397 -33.045  1.00  0.00     0.049 C 
HETATM    6  C   UNL     1      -4.447  -2.420 -34.109  1.00  0.00     0.007 A 
HETATM    7  C   UNL     1      -5.517  -3.155 -34.614  1.00  0.00     0.001 A 
HETATM    8  C   UNL     1      -6.797  -2.617 -34.594  1.00  0.00     0.001 A 
HETATM    9  C   UNL     1      -7.003  -1.337 -34.078  1.00  0.00     0.010 A 
ENDBRANCH   2   3
BRANCH   2  10
HETATM   10  N   UNL     1      -6.455   0.715 -31.588  1.00  0.00    -0.334 N 
HETATM   11  C   UNL     1      -5.940   1.559 -30.657  1.00  0.00     0.314 C 
HETATM   12  N   UNL     1      -6.275   1.208 -29.392  1.00  0.00    -0.352 N 
HETATM   13  O   UNL     1      -5.289   2.569 -30.892  1.00  0.00    -0.248 OA
HETATM   14  H   UNL     1      -6.425   0.232 -29.174  1.00  0.00     0.160 HD
HETATM   15  H   UNL     1      -5.838   1.744 -28.654  1.00  0.00     0.160 HD
HETATM   16  H   UNL     1      -6.915  -0.124 -31.263  1.00  0.00     0.165 HD
ENDBRANCH   2  10
ENDBRANCH   1   2
BRANCH   1  17
HETATM   17  C   UNL     1      -7.204   2.999 -33.826  1.00  0.00     0.219 C 
HETATM   18  N   UNL     1      -5.911   3.434 -33.991  1.00  0.00    -0.359 N 
HETATM   19  H   UNL     1      -5.169   2.742 -34.021  1.00  0.00     0.162 HD
HETATM   20  O   UNL     1      -8.141   3.792 -33.744  1.00  0.00    -0.274 OA
BRANCH  18  21
HETATM   21  C   UNL     1      -5.538   4.841 -34.015  1.00  0.00     0.150 C 
BRANCH  21  22
HETATM   22  C   UNL     1      -4.147   5.136 -34.619  1.00  0.00     0.254 C 
BRANCH  22  23
HETATM   23  N   UNL     1      -3.164   5.690 -33.620  1.00  0.00    -0.065 N 
HETATM   24  H   UNL     1      -3.727   6.248 -32.943  1.00  0.00     0.280 HD
HETATM   25  C   UNL     1      -2.481   4.642 -32.766  1.00  0.00     0.274 C 
HETATM   26  C   UNL     1      -1.405   5.225 -31.911  1.00  0.00    -0.019 A 
HETATM   27  C   UNL     1      -0.914   6.501 -32.111  1.00  0.00    -0.008 A 
HETATM   28  C   UNL     1      -0.740   4.587 -30.818  1.00  0.00     0.017 A 
HETATM   29  S   UNL     1       0.312   6.924 -31.017  1.00  0.00    -0.106 SA
HETATM   30  C   UNL     1      -1.416   7.443 -33.158  1.00  0.00     0.074 C 
HETATM   31  C   UNL     1       0.215   5.400 -30.244  1.00  0.00     0.051 A 
HETATM   32  C   UNL     1      -2.174   6.661 -34.242  1.00  0.00     0.240 C 
ENDBRANCH  22  23
ENDBRANCH  21  22
ENDBRANCH  18  21
ENDBRANCH   1  17
TORSDOF 7
ENDMDL
MODEL 3
REMARK VINA RESULT:      -8.2      1.886      2.383
REMARK  7 active torsions:
REMARK  status: ('A' for Active; 'I' for Inactive)
REMARK    1  A    between atoms: C_3  and  C_4 
REMARK    2  A    between atoms: C_4  and  N_5 
REMARK    3  A    between atoms: C_4  and  C_9 
REMARK       I    between atoms: N_5  and  C_6 
REMARK       I    between atoms: C_6  and  N_7 
REMARK    4  A    between atoms: C_9  and  C_10 
REMARK       I    between atoms: C_10  and  N_11 
REMARK    5  A    between atoms: N_11  and  C_12 
REMARK    6  A    between atoms: C_12  and  C_13 
REMARK    7  A    between atoms: C_13  and  N_14 
ROOT
HETATM    1  C   UNL     1      -6.584   0.971 -34.327  1.00  0.00     0.132 C 
ENDROOT
BRANCH   1   2
HETATM    2  C   UNL     1      -7.041  -0.206 -33.445  1.00  0.00     0.128 C 
BRANCH   2   3
HETATM    3  C   UNL     1      -6.380  -1.511 -33.886  1.00  0.00    -0.029 A 
HETATM    4  C   UNL     1      -5.009  -1.769 -33.660  1.00  0.00    -0.054 A 
HETATM    5  C   UNL     1      -4.104  -0.778 -32.978  1.00  0.00     0.049 C 
HETATM    6  C   UNL     1      -4.458  -2.988 -34.090  1.00  0.00     0.007 A 
HETATM    7  C   UNL     1      -5.243  -3.952 -34.719  1.00  0.00     0.001 A 
HETATM    8  C   UNL     1      -6.596  -3.716 -34.924  1.00  0.00     0.001 A 
HETATM    9  C   UNL     1      -7.160  -2.510 -34.507  1.00  0.00     0.010 A 
ENDBRANCH   2   3
BRANCH   2  10
HETATM   10  N   UNL     1      -8.491  -0.387 -33.482  1.00  0.00    -0.334 N 
HETATM   11  C   UNL     1      -9.339   0.080 -32.530  1.00  0.00     0.314 C 
HETATM   12  N   UNL     1     -10.628  -0.264 -32.764  1.00  0.00    -0.352 N 
HETATM   13  O   UNL     1      -9.026   0.786 -31.580  1.00  0.00    -0.248 OA
HETATM   14  H   UNL     1     -10.827  -1.128 -33.252  1.00  0.00     0.160 HD
HETATM   15  H   UNL     1     -11.289  -0.027 -32.036  1.00  0.00     0.160 HD
HETATM   16  H   UNL     1      -8.862  -1.019 -34.178  1.00  0.00     0.165 HD
ENDBRANCH   2  10
ENDBRANCH   1   2
BRANCH   1  17
HETATM   17  C   UNL     1      -6.435   2.238 -33.519  1.00  0.00     0.219 C 
HETATM   18  N   UNL     1      -6.330   2.060 -32.160  1.00  0.00    -0.359 N 
HETATM   19  H   UNL     1      -6.395   1.116 -31.790  1.00  0.00     0.162 HD
HETATM   20  O   UNL     1      -6.401   3.360 -34.022  1.00  0.00    -0.274 OA
BRANCH  18  21
HETATM   21  C   UNL     1      -6.240   3.162 -31.214  1.00  0.00     0.150 C 
BRANCH  21  22
HETATM   22  C   UNL     1      -4.914   3.237 -30.424  1.00  0.00     0.254 C 
BRANCH  22  23
HETATM   23  N   UNL     1      -3.955   4.269 -30.958  1.00  0.00    -0.065 N 
HETATM   24  H   UNL     1      -3.129   4.249 -30.324  1.00  0.00     0.280 HD
HETATM   25  C   UNL     1      -3.387   3.946 -32.326  1.00  0.00     0.274 C 
HETATM   26  C   UNL     1      -2.575   5.071 -32.878  1.00  0.00    -0.019 A 
HETATM   27  C   UNL     1      -2.603   6.339 -32.331  1.00  0.00    -0.008 A 
HETATM   28  C   UNL     1      -1.698   5.020 -34.006  1.00  0.00     0.017 A 
HETATM   29  S   UNL     1      -1.603   7.441 -33.147  1.00  0.00    -0.106 SA
HETATM   30  C   UNL     1      -3.400   6.720 -31.124  1.00  0.00     0.074 C 
HETATM   31  C   UNL     1      -1.106   6.239 -34.261  1.00  0.00     0.051 A 
HETATM   32  C   UNL     1      -4.508   5.682 -30.884  1.00  0.00     0.240 C 
ENDBRANCH  22  23
ENDBRANCH  21  22
ENDBRANCH  18  21
ENDBRANCH   1  17
TORSDOF 7
ENDMDL
MODEL 4
REMARK VINA RESULT:      -8.1      3.830      5.825
REMARK  7 active torsions:
REMARK  status: ('A' for Active; 'I' for Inactive)
REMARK    1  A    between atoms: C_3  and  C_4 
REMARK    2  A    between atoms: C_4  and  N_5 
REMARK    3  A    between atoms: C_4  and  C_9 
REMARK       I    between atoms: N_5  and  C_6 
REMARK       I    between atoms: C_6  and  N_7 
REMARK    4  A    between atoms: C_9  and  C_10 
REMARK       I    between atoms: C_10  and  N_11 
REMARK    5  A    between atoms: N_11  and  C_12 
REMARK    6  A    between atoms: C_12  and  C_13 
REMARK    7  A    between atoms: C_13  and  N_14 
ROOT
HETATM    1  C   UNL     1      -7.614  -0.425 -34.757  1.00  0.00     0.132 C 
ENDROOT
BRANCH   1   2
HETATM    2  C   UNL     1      -6.430  -0.809 -33.850  1.00  0.00     0.128 C 
BRANCH   2   3
HETATM    3  C   UNL     1      -5.949  -2.229 -34.146  1.00  0.00    -0.029 A 
HETATM    4  C   UNL     1      -4.640  -2.656 -33.832  1.00  0.00    -0.054 A 
HETATM    5  C   UNL     1      -3.626  -1.746 -33.191  1.00  0.00     0.049 C 
HETATM    6  C   UNL     1      -4.255  -3.975 -34.130  1.00  0.00     0.007 A 
HETATM    7  C   UNL     1      -5.148  -4.871 -34.715  1.00  0.00     0.001 A 
HETATM    8  C   UNL     1      -6.444  -4.465 -35.006  1.00  0.00     0.001 A 
HETATM    9  C   UNL     1      -6.843  -3.160 -34.720  1.00  0.00     0.010 A 
ENDBRANCH   2   3
BRANCH   2  10
HETATM   10  N   UNL     1      -6.777  -0.726 -32.433  1.00  0.00    -0.334 N 
HETATM   11  C   UNL     1      -6.377   0.278 -31.610  1.00  0.00     0.314 C 
HETATM   12  N   UNL     1      -6.783   0.099 -30.331  1.00  0.00    -0.352 N 
HETATM   13  O   UNL     1      -5.765   1.281 -31.955  1.00  0.00    -0.248 OA
HETATM   14  H   UNL     1      -6.896  -0.841 -29.976  1.00  0.00     0.160 HD
HETATM   15  H   UNL     1      -6.430   0.765 -29.657  1.00  0.00     0.160 HD
HETATM   16  H   UNL     1      -7.215  -1.535 -32.013  1.00  0.00     0.165 HD
ENDBRANCH   2  10
ENDBRANCH   1   2
BRANCH   1  17
HETATM   17  C   UNL     1      -8.508   0.593 -34.092  1.00  0.00     0.219 C 
HETATM   18  N   UNL     1      -8.110   1.901 -34.224  1.00  0.00    -0.359 N 
HETATM   19  H   UNL     1      -7.242   2.095 -34.714  1.00  0.00     0.162 HD
HETATM   20  O   UNL     1      -9.530   0.294 -33.475  1.00  0.00    -0.274 OA
BRANCH  18  21
HETATM   21  C   UNL     1      -8.808   3.017 -33.602  1.00  0.00     0.150 C 
BRANCH  21  22
HETATM   22  C   UNL     1      -9.858   3.710 -34.498  1.00  0.00     0.254 C 
BRANCH  22  23
HETATM   23  N   UNL     1     -11.276   3.498 -34.033  1.00  0.00    -0.065 N 
HETATM   24  H   UNL     1     -11.824   4.302 -34.405  1.00  0.00     0.280 HD
HETATM   25  C   UNL     1     -11.953   2.278 -34.624  1.00  0.00     0.274 C 
HETATM   26  C   UNL     1     -13.290   2.022 -34.012  1.00  0.00    -0.019 A 
HETATM   27  C   UNL     1     -13.702   2.650 -32.852  1.00  0.00    -0.008 A 
HETATM   28  C   UNL     1     -14.296   1.128 -34.493  1.00  0.00     0.017 A 
HETATM   29  S   UNL     1     -15.254   2.181 -32.353  1.00  0.00    -0.106 SA
HETATM   30  C   UNL     1     -12.893   3.666 -32.110  1.00  0.00     0.074 C 
HETATM   31  C   UNL     1     -15.414   1.118 -33.685  1.00  0.00     0.051 A 
HETATM   32  C   UNL     1     -11.417   3.558 -32.521  1.00  0.00     0.240 C 
ENDBRANCH  22  23
ENDBRANCH  21  22
ENDBRANCH  18  21
ENDBRANCH   1  17
TORSDOF 7
ENDMDL
MODEL 5
REMARK VINA RESULT:      -8.0      2.966      3.650
REMARK  7 active torsions:
REMARK  status: ('A' for Active; 'I' for Inactive)
REMARK    1  A    between atoms: C_3  and  C_4 
REMARK    2  A    between atoms: C_4  and  N_5 
REMARK    3  A    between atoms: C_4  and  C_9 
REMARK       I    between atoms: N_5  and  C_6 
REMARK       I    between atoms: C_6  and  N_7 
REMARK    4  A    between atoms: C_9  and  C_10 
REMARK       I    between atoms: C_10  and  N_11 
REMARK    5  A    between atoms: N_11  and  C_12 
REMARK    6  A    between atoms: C_12  and  C_13 
REMARK    7  A    between atoms: C_13  and  N_14 
ROOT
HETATM    1  C   UNL     1      -6.452   1.365 -34.335  1.00  0.00     0.132 C 
ENDROOT
BRANCH   1   2
HETATM    2  C   UNL     1      -6.470   0.304 -33.218  1.00  0.00     0.128 C 
BRANCH   2   3
HETATM    3  C   UNL     1      -6.086  -1.071 -33.762  1.00  0.00    -0.029 A 
HETATM    4  C   UNL     1      -4.751  -1.535 -33.747  1.00  0.00    -0.054 A 
HETATM    5  C   UNL     1      -3.616  -0.709 -33.203  1.00  0.00     0.049 C 
HETATM    6  C   UNL     1      -4.459  -2.810 -34.263  1.00  0.00     0.007 A 
HETATM    7  C   UNL     1      -5.465  -3.628 -34.772  1.00  0.00     0.001 A 
HETATM    8  C   UNL     1      -6.782  -3.189 -34.769  1.00  0.00     0.001 A 
HETATM    9  C   UNL     1      -7.091  -1.926 -34.264  1.00  0.00     0.010 A 
ENDBRANCH   2   3
BRANCH   2  10
HETATM   10  N   UNL     1      -7.782   0.199 -32.584  1.00  0.00    -0.334 N 
HETATM   11  C   UNL     1      -8.146   0.890 -31.472  1.00  0.00     0.314 C 
HETATM   12  N   UNL     1      -9.394   0.578 -31.049  1.00  0.00    -0.352 N 
HETATM   13  O   UNL     1      -7.476   1.749 -30.916  1.00  0.00    -0.248 OA
HETATM   14  H   UNL     1      -9.755  -0.352 -31.217  1.00  0.00     0.160 HD
HETATM   15  H   UNL     1      -9.679   0.989 -30.169  1.00  0.00     0.160 HD
HETATM   16  H   UNL     1      -8.397  -0.535 -32.907  1.00  0.00     0.165 HD
ENDBRANCH   2  10
ENDBRANCH   1   2
BRANCH   1  17
HETATM   17  C   UNL     1      -6.026   2.713 -33.804  1.00  0.00     0.219 C 
HETATM   18  N   UNL     1      -5.029   2.685 -32.859  1.00  0.00    -0.359 N 
HETATM   19  H   UNL     1      -4.675   1.783 -32.557  1.00  0.00     0.162 HD
HETATM   20  O   UNL     1      -6.520   3.774 -34.182  1.00  0.00    -0.274 OA
BRANCH  18  21
HETATM   21  C   UNL     1      -4.529   3.876 -32.189  1.00  0.00     0.150 C 
BRANCH  21  22
HETATM   22  C   UNL     1      -3.008   3.882 -31.918  1.00  0.00     0.254 C 
BRANCH  22  23
HETATM   23  N   UNL     1      -2.588   4.894 -30.883  1.00  0.00    -0.065 N 
HETATM   24  H   UNL     1      -2.716   4.431 -29.959  1.00  0.00     0.280 HD
HETATM   25  C   UNL     1      -1.117   5.255 -30.922  1.00  0.00     0.274 C 
HETATM   26  C   UNL     1      -0.786   6.375 -29.991  1.00  0.00    -0.019 A 
HETATM   27  C   UNL     1      -1.761   7.161 -29.408  1.00  0.00    -0.008 A 
HETATM   28  C   UNL     1       0.519   6.796 -29.588  1.00  0.00     0.017 A 
HETATM   29  S   UNL     1      -1.129   8.373 -28.402  1.00  0.00    -0.106 SA
HETATM   30  C   UNL     1      -3.231   6.966 -29.602  1.00  0.00     0.074 C 
HETATM   31  C   UNL     1       0.476   7.871 -28.725  1.00  0.00     0.051 A 
HETATM   32  C   UNL     1      -3.481   6.123 -30.863  1.00  0.00     0.240 C 
ENDBRANCH  22  23
ENDBRANCH  21  22
ENDBRANCH  18  21
ENDBRANCH   1  17
TORSDOF 7
ENDMDL
MODEL 6
REMARK VINA RESULT:      -8.0      4.532      6.422
REMARK  7 active torsions:
REMARK  status: ('A' for Active; 'I' for Inactive)
REMARK    1  A    between atoms: C_3  and  C_4 
REMARK    2  A    between atoms: C_4  and  N_5 
REMARK    3  A    between atoms: C_4  and  C_9 
REMARK       I    between atoms: N_5  and  C_6 
REMARK       I    between atoms: C_6  and  N_7 
REMARK    4  A    between atoms: C_9  and  C_10 
REMARK       I    between atoms: C_10  and  N_11 
REMARK    5  A    between atoms: N_11  and  C_12 
REMARK    6  A    between atoms: C_12  and  C_13 
REMARK    7  A    between atoms: C_13  and  N_14 
ROOT
HETATM    1  C   UNL     1      -7.388   0.371 -35.066  1.00  0.00     0.132 C 
ENDROOT
BRANCH   1   2
HETATM    2  C   UNL     1      -6.466  -0.148 -33.946  1.00  0.00     0.128 C 
BRANCH   2   3
HETATM    3  C   UNL     1      -6.046  -1.594 -34.207  1.00  0.00    -0.029 A 
HETATM    4  C   UNL     1      -4.728  -2.044 -33.973  1.00  0.00    -0.054 A 
HETATM    5  C   UNL     1      -3.644  -1.134 -33.458  1.00  0.00     0.049 C 
HETATM    6  C   UNL     1      -4.402  -3.387 -34.233  1.00  0.00     0.007 A 
HETATM    7  C   UNL     1      -5.360  -4.282 -34.701  1.00  0.00     0.001 A 
HETATM    8  C   UNL     1      -6.664  -3.853 -34.912  1.00  0.00     0.001 A 
HETATM    9  C   UNL     1      -7.005  -2.524 -34.662  1.00  0.00     0.010 A 
ENDBRANCH   2   3
BRANCH   2  10
HETATM   10  N   UNL     1      -7.107  -0.082 -32.635  1.00  0.00    -0.334 N 
HETATM   11  C   UNL     1      -6.529   0.464 -31.534  1.00  0.00     0.314 C 
HETATM   12  N   UNL     1      -7.304   0.353 -30.428  1.00  0.00    -0.352 N 
HETATM   13  O   UNL     1      -5.455   1.051 -31.508  1.00  0.00    -0.248 OA
HETATM   14  H   UNL     1      -7.932  -0.435 -30.342  1.00  0.00     0.160 HD
HETATM   15  H   UNL     1      -6.882   0.654 -29.560  1.00  0.00     0.160 HD
HETATM   16  H   UNL     1      -7.965  -0.602 -32.511  1.00  0.00     0.165 HD
ENDBRANCH   2  10
ENDBRANCH   1   2
BRANCH   1  17
HETATM   17  C   UNL     1      -8.423   1.328 -34.525  1.00  0.00     0.219 C 
HETATM   18  N   UNL     1      -9.730   0.949 -34.716  1.00  0.00    -0.359 N 
HETATM   19  H   UNL     1      -9.915   0.091 -35.228  1.00  0.00     0.162 HD
HETATM   20  O   UNL     1      -8.139   2.375 -33.947  1.00  0.00    -0.274 OA
BRANCH  18  21
HETATM   21  C   UNL     1     -10.866   1.768 -34.320  1.00  0.00     0.150 C 
BRANCH  21  22
HETATM   22  C   UNL     1     -12.026   0.995 -33.652  1.00  0.00     0.254 C 
BRANCH  22  23
HETATM   23  N   UNL     1     -13.033   1.891 -32.978  1.00  0.00    -0.065 N 
HETATM   24  H   UNL     1     -12.906   1.749 -31.954  1.00  0.00     0.280 HD
HETATM   25  C   UNL     1     -12.790   3.372 -33.184  1.00  0.00     0.274 C 
HETATM   26  C   UNL     1     -13.900   4.208 -32.638  1.00  0.00    -0.019 A 
HETATM   27  C   UNL     1     -15.117   3.667 -32.269  1.00  0.00    -0.008 A 
HETATM   28  C   UNL     1     -13.886   5.622 -32.433  1.00  0.00     0.017 A 
HETATM   29  S   UNL     1     -16.215   4.824 -31.691  1.00  0.00    -0.106 SA
HETATM   30  C   UNL     1     -15.447   2.210 -32.334  1.00  0.00     0.074 C 
HETATM   31  C   UNL     1     -15.081   6.086 -31.922  1.00  0.00     0.051 A 
HETATM   32  C   UNL     1     -14.469   1.496 -33.281  1.00  0.00     0.240 C 
ENDBRANCH  22  23
ENDBRANCH  21  22
ENDBRANCH  18  21
ENDBRANCH   1  17
TORSDOF 7
ENDMDL
MODEL 7
REMARK VINA RESULT:      -8.0      2.991      4.007
REMARK  7 active torsions:
REMARK  status: ('A' for Active; 'I' for Inactive)
REMARK    1  A    between atoms: C_3  and  C_4 
REMARK    2  A    between atoms: C_4  and  N_5 
REMARK    3  A    between atoms: C_4  and  C_9 
REMARK       I    between atoms: N_5  and  C_6 
REMARK       I    between atoms: C_6  and  N_7 
REMARK    4  A    between atoms: C_9  and  C_10 
REMARK       I    between atoms: C_10  and  N_11 
REMARK    5  A    between atoms: N_11  and  C_12 
REMARK    6  A    between atoms: C_12  and  C_13 
REMARK    7  A    between atoms: C_13  and  N_14 
ROOT
HETATM    1  C   UNL     1      -6.583   2.298 -33.867  1.00  0.00     0.132 C 
ENDROOT
BRANCH   1   2
HETATM    2  C   UNL     1      -5.771   1.354 -32.959  1.00  0.00     0.128 C 
BRANCH   2   3
HETATM    3  C   UNL     1      -5.720  -0.058 -33.542  1.00  0.00    -0.029 A 
HETATM    4  C   UNL     1      -4.550  -0.848 -33.487  1.00  0.00    -0.054 A 
HETATM    5  C   UNL     1      -3.273  -0.355 -32.859  1.00  0.00     0.049 C 
HETATM    6  C   UNL     1      -4.564  -2.139 -34.042  1.00  0.00     0.007 A 
HETATM    7  C   UNL     1      -5.716  -2.658 -34.629  1.00  0.00     0.001 A 
HETATM    8  C   UNL     1      -6.876  -1.897 -34.667  1.00  0.00     0.001 A 
HETATM    9  C   UNL     1      -6.881  -0.612 -34.124  1.00  0.00     0.010 A 
ENDBRANCH   2   3
BRANCH   2  10
HETATM   10  N   UNL     1      -6.330   1.277 -31.611  1.00  0.00    -0.334 N 
HETATM   11  C   UNL     1      -5.745   1.823 -30.514  1.00  0.00     0.314 C 
HETATM   12  N   UNL     1      -6.431   1.568 -29.374  1.00  0.00    -0.352 N 
HETATM   13  O   UNL     1      -4.741   2.525 -30.516  1.00  0.00    -0.248 OA
HETATM   14  H   UNL     1      -6.962   0.711 -29.300  1.00  0.00     0.160 HD
HETATM   15  H   UNL     1      -5.988   1.867 -28.515  1.00  0.00     0.160 HD
HETATM   16  H   UNL     1      -7.117   0.659 -31.469  1.00  0.00     0.165 HD
ENDBRANCH   2  10
ENDBRANCH   1   2
BRANCH   1  17
HETATM   17  C   UNL     1      -6.032   3.703 -33.829  1.00  0.00     0.219 C 
HETATM   18  N   UNL     1      -4.768   3.826 -33.305  1.00  0.00    -0.359 N 
HETATM   19  H   UNL     1      -4.310   2.993 -32.949  1.00  0.00     0.162 HD
HETATM   20  O   UNL     1      -6.652   4.683 -34.240  1.00  0.00    -0.274 OA
BRANCH  18  21
HETATM   21  C   UNL     1      -4.095   5.105 -33.130  1.00  0.00     0.150 C 
BRANCH  21  22
HETATM   22  C   UNL     1      -2.559   5.060 -33.286  1.00  0.00     0.254 C 
BRANCH  22  23
HETATM   23  N   UNL     1      -1.827   5.873 -32.250  1.00  0.00    -0.065 N 
HETATM   24  H   UNL     1      -1.620   6.790 -32.697  1.00  0.00     0.280 HD
HETATM   25  C   UNL     1      -2.657   6.228 -31.033  1.00  0.00     0.274 C 
HETATM   26  C   UNL     1      -1.844   6.889 -29.969  1.00  0.00    -0.019 A 
HETATM   27  C   UNL     1      -0.463   6.892 -29.992  1.00  0.00    -0.008 A 
HETATM   28  C   UNL     1      -2.338   7.574 -28.816  1.00  0.00     0.017 A 
HETATM   29  S   UNL     1       0.226   7.697 -28.666  1.00  0.00    -0.106 SA
HETATM   30  C   UNL     1       0.365   6.283 -31.079  1.00  0.00     0.074 C 
HETATM   31  C   UNL     1      -1.319   8.062 -28.024  1.00  0.00     0.051 A 
HETATM   32  C   UNL     1      -0.481   5.276 -31.874  1.00  0.00     0.240 C 
ENDBRANCH  22  23
ENDBRANCH  21  22
ENDBRANCH  18  21
ENDBRANCH   1  17
TORSDOF 7
ENDMDL
MODEL 8
REMARK VINA RESULT:      -7.5      3.475      7.342
REMARK  7 active torsions:
REMARK  status: ('A' for Active; 'I' for Inactive)
REMARK    1  A    between atoms: C_3  and  C_4 
REMARK    2  A    between atoms: C_4  and  N_5 
REMARK    3  A    between atoms: C_4  and  C_9 
REMARK       I    between atoms: N_5  and  C_6 
REMARK       I    between atoms: C_6  and  N_7 
REMARK    4  A    between atoms: C_9  and  C_10 
REMARK       I    between atoms: C_10  and  N_11 
REMARK    5  A    between atoms: N_11  and  C_12 
REMARK    6  A    between atoms: C_12  and  C_13 
REMARK    7  A    between atoms: C_13  and  N_14 
ROOT
HETATM    1  C   UNL     1      -3.364   1.922 -31.584  1.00  0.00     0.132 C 
ENDROOT
BRANCH   1   2
HETATM    2  C   UNL     1      -4.098   3.260 -31.793  1.00  0.00     0.128 C 
BRANCH   2   3
HETATM    3  C   UNL     1      -3.293   4.192 -32.697  1.00  0.00    -0.029 A 
HETATM    4  C   UNL     1      -3.839   4.746 -33.877  1.00  0.00    -0.054 A 
HETATM    5  C   UNL     1      -5.245   4.453 -34.330  1.00  0.00     0.049 C 
HETATM    6  C   UNL     1      -3.048   5.596 -34.669  1.00  0.00     0.007 A 
HETATM    7  C   UNL     1      -1.742   5.914 -34.302  1.00  0.00     0.001 A 
HETATM    8  C   UNL     1      -1.206   5.393 -33.132  1.00  0.00     0.001 A 
HETATM    9  C   UNL     1      -1.975   4.545 -32.335  1.00  0.00     0.010 A 
ENDBRANCH   2   3
BRANCH   2  10
HETATM   10  N   UNL     1      -4.352   3.949 -30.529  1.00  0.00    -0.334 N 
HETATM   11  C   UNL     1      -5.493   3.813 -29.806  1.00  0.00     0.314 C 
HETATM   12  N   UNL     1      -5.508   4.597 -28.701  1.00  0.00    -0.352 N 
HETATM   13  O   UNL     1      -6.407   3.038 -30.055  1.00  0.00    -0.248 OA
HETATM   14  H   UNL     1      -5.009   5.476 -28.714  1.00  0.00     0.160 HD
HETATM   15  H   UNL     1      -6.374   4.609 -28.179  1.00  0.00     0.160 HD
HETATM   16  H   UNL     1      -3.703   4.675 -30.258  1.00  0.00     0.165 HD
ENDBRANCH   2  10
ENDBRANCH   1   2
BRANCH   1  17
HETATM   17  C   UNL     1      -4.246   0.750 -31.945  1.00  0.00     0.219 C 
HETATM   18  N   UNL     1      -5.465   1.077 -32.489  1.00  0.00    -0.359 N 
HETATM   19  H   UNL     1      -5.707   2.059 -32.577  1.00  0.00     0.162 HD
HETATM   20  O   UNL     1      -3.913  -0.422 -31.778  1.00  0.00    -0.274 OA
BRANCH  18  21
HETATM   21  C   UNL     1      -6.473   0.089 -32.843  1.00  0.00     0.150 C 
BRANCH  21  22
HETATM   22  C   UNL     1      -7.834   0.262 -32.132  1.00  0.00     0.254 C 
BRANCH  22  23
HETATM   23  N   UNL     1      -8.931   0.743 -33.047  1.00  0.00    -0.065 N 
HETATM   24  H   UNL     1      -8.684   0.398 -33.998  1.00  0.00     0.280 HD
HETATM   25  C   UNL     1     -10.290   0.136 -32.768  1.00  0.00     0.274 C 
HETATM   26  C   UNL     1     -11.368   0.763 -33.589  1.00  0.00    -0.019 A 
HETATM   27  C   UNL     1     -11.174   1.942 -34.282  1.00  0.00    -0.008 A 
HETATM   28  C   UNL     1     -12.700   0.276 -33.770  1.00  0.00     0.017 A 
HETATM   29  S   UNL     1     -12.554   2.454 -35.128  1.00  0.00    -0.106 SA
HETATM   30  C   UNL     1      -9.883   2.694 -34.324  1.00  0.00     0.074 C 
HETATM   31  C   UNL     1     -13.449   1.100 -34.583  1.00  0.00     0.051 A 
HETATM   32  C   UNL     1      -8.988   2.258 -33.153  1.00  0.00     0.240 C 
ENDBRANCH  22  23
ENDBRANCH  21  22
ENDBRANCH  18  21
ENDBRANCH   1  17
TORSDOF 7
ENDMDL
MODEL 9
REMARK VINA RESULT:      -7.5      3.634      5.149
REMARK  7 active torsions:
REMARK  status: ('A' for Active; 'I' for Inactive)
REMARK    1  A    between atoms: C_3  and  C_4 
REMARK    2  A    between atoms: C_4  and  N_5 
REMARK    3  A    between atoms: C_4  and  C_9 
REMARK       I    between atoms: N_5  and  C_6 
REMARK       I    between atoms: C_6  and  N_7 
REMARK    4  A    between atoms: C_9  and  C_10 
REMARK       I    between atoms: C_10  and  N_11 
REMARK    5  A    between atoms: N_11  and  C_12 
REMARK    6  A    between atoms: C_12  and  C_13 
REMARK    7  A    between atoms: C_13  and  N_14 
ROOT
HETATM    1  C   UNL     1      -5.558   3.398 -33.590  1.00  0.00     0.132 C 
ENDROOT
BRANCH   1   2
HETATM    2  C   UNL     1      -5.725   2.195 -32.643  1.00  0.00     0.128 C 
BRANCH   2   3
HETATM    3  C   UNL     1      -6.168   0.950 -33.411  1.00  0.00    -0.029 A 
HETATM    4  C   UNL     1      -5.794  -0.351 -33.007  1.00  0.00    -0.054 A 
HETATM    5  C   UNL     1      -4.931  -0.604 -31.799  1.00  0.00     0.049 C 
HETATM    6  C   UNL     1      -6.232  -1.458 -33.756  1.00  0.00     0.007 A 
HETATM    7  C   UNL     1      -7.040  -1.293 -34.878  1.00  0.00     0.001 A 
HETATM    8  C   UNL     1      -7.431  -0.019 -35.269  1.00  0.00     0.001 A 
HETATM    9  C   UNL     1      -7.004   1.091 -34.540  1.00  0.00     0.010 A 
ENDBRANCH   2   3
BRANCH   2  10
HETATM   10  N   UNL     1      -6.702   2.459 -31.589  1.00  0.00    -0.334 N 
HETATM   11  C   UNL     1      -6.389   2.562 -30.272  1.00  0.00     0.314 C 
HETATM   12  N   UNL     1      -7.478   2.755 -29.490  1.00  0.00    -0.352 N 
HETATM   13  O   UNL     1      -5.258   2.546 -29.804  1.00  0.00    -0.248 OA
HETATM   14  H   UNL     1      -8.368   2.370 -29.778  1.00  0.00     0.160 HD
HETATM   15  H   UNL     1      -7.314   2.741 -28.492  1.00  0.00     0.160 HD
HETATM   16  H   UNL     1      -7.680   2.416 -31.841  1.00  0.00     0.165 HD
ENDBRANCH   2  10
ENDBRANCH   1   2
BRANCH   1  17
HETATM   17  C   UNL     1      -4.692   4.468 -32.969  1.00  0.00     0.219 C 
HETATM   18  N   UNL     1      -3.414   4.553 -33.468  1.00  0.00    -0.359 N 
HETATM   19  H   UNL     1      -3.127   3.885 -34.176  1.00  0.00     0.162 HD
HETATM   20  O   UNL     1      -5.084   5.225 -32.083  1.00  0.00    -0.274 OA
BRANCH  18  21
HETATM   21  C   UNL     1      -2.415   5.479 -32.956  1.00  0.00     0.150 C 
BRANCH  21  22
HETATM   22  C   UNL     1      -1.407   4.865 -31.959  1.00  0.00     0.254 C 
BRANCH  22  23
HETATM   23  N   UNL     1      -1.460   5.493 -30.590  1.00  0.00    -0.065 N 
HETATM   24  H   UNL     1      -1.955   4.808 -29.979  1.00  0.00     0.280 HD
HETATM   25  C   UNL     1      -0.108   5.675 -29.931  1.00  0.00     0.274 C 
HETATM   26  C   UNL     1      -0.201   6.444 -28.655  1.00  0.00    -0.019 A 
HETATM   27  C   UNL     1      -1.336   7.145 -28.298  1.00  0.00    -0.008 A 
HETATM   28  C   UNL     1       0.818   6.580 -27.661  1.00  0.00     0.017 A 
HETATM   29  S   UNL     1      -1.187   7.946 -26.809  1.00  0.00    -0.106 SA
HETATM   30  C   UNL     1      -2.593   7.185 -29.108  1.00  0.00     0.074 C 
HETATM   31  C   UNL     1       0.412   7.370 -26.605  1.00  0.00     0.051 A 
HETATM   32  C   UNL     1      -2.293   6.763 -30.555  1.00  0.00     0.240 C 
ENDBRANCH  22  23
ENDBRANCH  21  22
ENDBRANCH  18  21
ENDBRANCH   1  17
TORSDOF 7
ENDMDL
MODEL 10
REMARK VINA RESULT:      -7.5      2.350      3.540
REMARK  7 active torsions:
REMARK  status: ('A' for Active; 'I' for Inactive)
REMARK    1  A    between atoms: C_3  and  C_4 
REMARK    2  A    between atoms: C_4  and  N_5 
REMARK    3  A    between atoms: C_4  and  C_9 
REMARK       I    between atoms: N_5  and  C_6 
REMARK       I    between atoms: C_6  and  N_7 
REMARK    4  A    between atoms: C_9  and  C_10 
REMARK       I    between atoms: C_10  and  N_11 
REMARK    5  A    between atoms: N_11  and  C_12 
REMARK    6  A    between atoms: C_12  and  C_13 
REMARK    7  A    between atoms: C_13  and  N_14 
ROOT
HETATM    1  C   UNL     1      -6.319   0.550 -30.589  1.00  0.00     0.132 C 
ENDROOT
BRANCH   1   2
HETATM    2  C   UNL     1      -5.381   0.552 -31.811  1.00  0.00     0.128 C 
BRANCH   2   3
HETATM    3  C   UNL     1      -6.124   0.115 -33.072  1.00  0.00    -0.029 A 
HETATM    4  C   UNL     1      -6.527   1.040 -34.062  1.00  0.00    -0.054 A 
HETATM    5  C   UNL     1      -6.260   2.517 -33.942  1.00  0.00     0.049 C 
HETATM    6  C   UNL     1      -7.209   0.577 -35.201  1.00  0.00     0.007 A 
HETATM    7  C   UNL     1      -7.479  -0.778 -35.377  1.00  0.00     0.001 A 
HETATM    8  C   UNL     1      -7.067  -1.696 -34.421  1.00  0.00     0.001 A 
HETATM    9  C   UNL     1      -6.392  -1.255 -33.282  1.00  0.00     0.010 A 
ENDBRANCH   2   3
BRANCH   2  10
HETATM   10  N   UNL     1      -4.233  -0.332 -31.622  1.00  0.00    -0.334 N 
HETATM   11  C   UNL     1      -2.990   0.098 -31.284  1.00  0.00     0.314 C 
HETATM   12  N   UNL     1      -2.087  -0.909 -31.222  1.00  0.00    -0.352 N 
HETATM   13  O   UNL     1      -2.687   1.251 -31.002  1.00  0.00    -0.248 OA
HETATM   14  H   UNL     1      -2.207  -1.716 -31.820  1.00  0.00     0.160 HD
HETATM   15  H   UNL     1      -1.126  -0.633 -31.072  1.00  0.00     0.160 HD
HETATM   16  H   UNL     1      -4.340  -1.298 -31.900  1.00  0.00     0.165 HD
ENDBRANCH   2  10
ENDBRANCH   1   2
BRANCH   1  17
HETATM   17  C   UNL     1      -6.994   1.889 -30.412  1.00  0.00     0.219 C 
HETATM   18  N   UNL     1      -6.296   2.805 -29.662  1.00  0.00    -0.359 N 
HETATM   19  H   UNL     1      -5.412   2.521 -29.252  1.00  0.00     0.162 HD
HETATM   20  O   UNL     1      -8.088   2.164 -30.902  1.00  0.00    -0.274 OA
BRANCH  18  21
HETATM   21  C   UNL     1      -6.810   4.126 -29.332  1.00  0.00     0.150 C 
BRANCH  21  22
HETATM   22  C   UNL     1      -5.755   5.255 -29.330  1.00  0.00     0.254 C 
BRANCH  22  23
HETATM   23  N   UNL     1      -5.138   5.502 -30.683  1.00  0.00    -0.065 N 
HETATM   24  H   UNL     1      -4.766   6.474 -30.656  1.00  0.00     0.280 HD
HETATM   25  C   UNL     1      -3.927   4.644 -30.985  1.00  0.00     0.274 C 
HETATM   26  C   UNL     1      -3.455   4.809 -32.392  1.00  0.00    -0.019 A 
HETATM   27  C   UNL     1      -4.219   5.436 -33.357  1.00  0.00    -0.008 A 
HETATM   28  C   UNL     1      -2.212   4.359 -32.937  1.00  0.00     0.017 A 
HETATM   29  S   UNL     1      -3.467   5.485 -34.877  1.00  0.00    -0.106 SA
HETATM   30  C   UNL     1      -5.562   6.045 -33.106  1.00  0.00     0.074 C 
HETATM   31  C   UNL     1      -2.091   4.663 -34.277  1.00  0.00     0.051 A 
HETATM   32  C   UNL     1      -6.158   5.474 -31.810  1.00  0.00     0.240 C 
ENDBRANCH  22  23
ENDBRANCH  21  22
ENDBRANCH  18  21
ENDBRANCH   1  17
TORSDOF 7
ENDMDL
