MODEL 1
REMARK VINA RESULT:      -9.1      0.000      0.000
REMARK  6 active torsions:
REMARK  status: ('A' for Active; 'I' for Inactive)
REMARK    1  A    between atoms: N_4  and  C_5 
REMARK    2  A    between atoms: C_13  and  C_14 
REMARK       I    between atoms: C_14  and  N_15 
REMARK    3  A    between atoms: N_15  and  C_16 
REMARK    4  A    between atoms: C_16  and  C_17 
REMARK    5  A    between atoms: C_17  and  O_18 
REMARK    6  A    between atoms: C_17  and  C_19 
ROOT
HETATM    1  C   UNL     1      -5.247   2.633 -32.718  1.00  0.00     0.257 C 
HETATM    2  N   UNL     1      -5.301   3.549 -33.741  1.00  0.00    -0.354 N 
HETATM    3  O   UNL     1      -4.837   2.962 -31.607  1.00  0.00    -0.267 OA
HETATM    4  H   UNL     1      -5.634   3.250 -34.650  1.00  0.00     0.162 HD
ENDROOT
BRANCH   1   5
HETATM    5  C   UNL     1      -5.709   1.286 -33.002  1.00  0.00     0.098 C 
HETATM    6  C   UNL     1      -7.065   0.871 -33.099  1.00  0.00     0.070 C 
HETATM    7  C   UNL     1      -8.291   1.697 -32.932  1.00  0.00     0.073 C 
HETATM    8  N   UNL     1      -7.182  -0.438 -33.328  1.00  0.00    -0.170 NA
HETATM    9  N   UNL     1      -5.910  -0.895 -33.502  1.00  0.00    -0.221 N 
HETATM   10  C   UNL     1      -5.004   0.115 -33.207  1.00  0.00     0.145 C 
HETATM   11 CL   UNL     1      -3.327  -0.173 -33.023  1.00  0.00    -0.061 Cl
BRANCH   9  12
HETATM   12  C   UNL     1      -5.735  -2.242 -33.952  1.00  0.00     0.060 A 
HETATM   13  C   UNL     1      -4.518  -2.926 -33.847  1.00  0.00     0.031 A 
HETATM   14  C   UNL     1      -4.401  -4.238 -34.323  1.00  0.00     0.002 A 
HETATM   15  C   UNL     1      -5.489  -4.875 -34.915  1.00  0.00     0.000 A 
HETATM   16  C   UNL     1      -6.697  -4.198 -35.047  1.00  0.00     0.002 A 
HETATM   17  C   UNL     1      -6.818  -2.888 -34.576  1.00  0.00     0.031 A 
ENDBRANCH   9  12
ENDBRANCH   1   5
BRANCH   2  18
HETATM   18  C   UNL     1      -4.782   4.906 -33.599  1.00  0.00     0.159 C 
BRANCH  18  19
HETATM   19  C   UNL     1      -3.398   5.112 -34.259  1.00  0.00     0.169 C 
BRANCH  19  20
HETATM   20  O   UNL     1      -3.443   6.026 -35.355  1.00  0.00    -0.389 OA
HETATM   21  H   UNL     1      -3.556   6.931 -34.996  1.00  0.00     0.210 HD
ENDBRANCH  19  20
BRANCH  19  22
HETATM   22  C   UNL     1      -2.396   5.643 -33.251  1.00  0.00    -0.025 A 
HETATM   23  C   UNL     1      -1.901   4.810 -32.237  1.00  0.00     0.053 A 
HETATM   24  C   UNL     1      -0.995   5.308 -31.301  1.00  0.00     0.138 A 
HETATM   25  F   UNL     1      -0.545   4.480 -30.344  1.00  0.00    -0.204 F 
HETATM   26  C   UNL     1      -0.569   6.632 -31.353  1.00  0.00     0.072 A 
HETATM   27 CL   UNL     1       0.549   7.245 -30.196  1.00  0.00    -0.081 Cl
HETATM   28  C   UNL     1      -1.056   7.474 -32.349  1.00  0.00     0.028 A 
HETATM   29  C   UNL     1      -1.967   6.982 -33.289  1.00  0.00     0.012 A 
ENDBRANCH  19  22
ENDBRANCH  18  19
ENDBRANCH   2  18
TORSDOF 6
ENDMDL
MODEL 2
REMARK VINA RESULT:      -8.9      1.374      1.669
REMARK  6 active torsions:
REMARK  status: ('A' for Active; 'I' for Inactive)
REMARK    1  A    between atoms: N_4  and  C_5 
REMARK    2  A    between atoms: C_13  and  C_14 
REMARK       I    between atoms: C_14  and  N_15 
REMARK    3  A    between atoms: N_15  and  C_16 
REMARK    4  A    between atoms: C_16  and  C_17 
REMARK    5  A    between atoms: C_17  and  O_18 
REMARK    6  A    between atoms: C_17  and  C_19 
ROOT
HETATM    1  C   UNL     1      -4.314   2.634 -32.078  1.00  0.00     0.257 C 
HETATM    2  N   UNL     1      -3.913   3.665 -32.894  1.00  0.00    -0.354 N 
HETATM    3  O   UNL     1      -4.166   2.708 -30.860  1.00  0.00    -0.267 OA
HETATM    4  H   UNL     1      -4.039   3.575 -33.895  1.00  0.00     0.162 HD
ENDROOT
BRANCH   1   5
HETATM    5  C   UNL     1      -4.932   1.482 -32.712  1.00  0.00     0.098 C 
HETATM    6  C   UNL     1      -6.075   1.505 -33.555  1.00  0.00     0.070 C 
HETATM    7  C   UNL     1      -6.886   2.682 -33.970  1.00  0.00     0.073 C 
HETATM    8  N   UNL     1      -6.437   0.285 -33.956  1.00  0.00    -0.170 NA
HETATM    9  N   UNL     1      -5.475  -0.557 -33.482  1.00  0.00    -0.221 N 
HETATM   10  C   UNL     1      -4.615   0.139 -32.643  1.00  0.00     0.145 C 
HETATM   11 CL   UNL     1      -3.475  -0.645 -31.635  1.00  0.00    -0.061 Cl
BRANCH   9  12
HETATM   12  C   UNL     1      -5.500  -1.920 -33.918  1.00  0.00     0.060 A 
HETATM   13  C   UNL     1      -4.366  -2.741 -33.910  1.00  0.00     0.031 A 
HETATM   14  C   UNL     1      -4.447  -4.062 -34.367  1.00  0.00     0.002 A 
HETATM   15  C   UNL     1      -5.651  -4.572 -34.847  1.00  0.00     0.000 A 
HETATM   16  C   UNL     1      -6.779  -3.759 -34.883  1.00  0.00     0.002 A 
HETATM   17  C   UNL     1      -6.704  -2.440 -34.429  1.00  0.00     0.031 A 
ENDBRANCH   9  12
ENDBRANCH   1   5
BRANCH   2  18
HETATM   18  C   UNL     1      -3.204   4.832 -32.381  1.00  0.00     0.159 C 
BRANCH  18  19
HETATM   19  C   UNL     1      -1.668   4.748 -32.552  1.00  0.00     0.169 C 
BRANCH  19  20
HETATM   20  O   UNL     1      -1.230   5.225 -33.825  1.00  0.00    -0.389 OA
HETATM   21  H   UNL     1      -1.500   4.574 -34.506  1.00  0.00     0.210 HD
ENDBRANCH  19  20
BRANCH  19  22
HETATM   22  C   UNL     1      -0.963   5.560 -31.483  1.00  0.00    -0.025 A 
HETATM   23  C   UNL     1      -0.136   4.928 -30.542  1.00  0.00     0.053 A 
HETATM   24  C   UNL     1       0.495   5.677 -29.548  1.00  0.00     0.138 A 
HETATM   25  F   UNL     1       1.276   5.036 -28.664  1.00  0.00    -0.204 F 
HETATM   26  C   UNL     1       0.316   7.055 -29.470  1.00  0.00     0.072 A 
HETATM   27 CL   UNL     1       1.095   7.977 -28.243  1.00  0.00    -0.081 Cl
HETATM   28  C   UNL     1      -0.506   7.697 -30.393  1.00  0.00     0.028 A 
HETATM   29  C   UNL     1      -1.144   6.952 -31.390  1.00  0.00     0.012 A 
ENDBRANCH  19  22
ENDBRANCH  18  19
ENDBRANCH   2  18
TORSDOF 6
ENDMDL
MODEL 3
REMARK VINA RESULT:      -8.8      3.875      9.792
REMARK  6 active torsions:
REMARK  status: ('A' for Active; 'I' for Inactive)
REMARK    1  A    between atoms: N_4  and  C_5 
REMARK    2  A    between atoms: C_13  and  C_14 
REMARK       I    between atoms: C_14  and  N_15 
REMARK    3  A    between atoms: N_15  and  C_16 
REMARK    4  A    between atoms: C_16  and  C_17 
REMARK    5  A    between atoms: C_17  and  O_18 
REMARK    6  A    between atoms: C_17  and  C_19 
ROOT
HETATM    1  C   UNL     1      -2.248   4.375 -31.825  1.00  0.00     0.257 C 
HETATM    2  N   UNL     1      -2.988   3.310 -31.373  1.00  0.00    -0.354 N 
HETATM    3  O   UNL     1      -1.958   4.474 -33.016  1.00  0.00    -0.267 OA
HETATM    4  H   UNL     1      -3.206   3.247 -30.386  1.00  0.00     0.162 HD
ENDROOT
BRANCH   1   5
HETATM    5  C   UNL     1      -1.850   5.375 -30.849  1.00  0.00     0.098 C 
HETATM    6  C   UNL     1      -2.669   6.416 -30.339  1.00  0.00     0.070 C 
HETATM    7  C   UNL     1      -4.086   6.721 -30.679  1.00  0.00     0.073 C 
HETATM    8  N   UNL     1      -2.015   7.208 -29.485  1.00  0.00    -0.170 NA
HETATM    9  N   UNL     1      -0.788   6.638 -29.326  1.00  0.00    -0.221 N 
HETATM   10  C   UNL     1      -0.638   5.588 -30.221  1.00  0.00     0.145 C 
HETATM   11 CL   UNL     1       0.872   4.836 -30.518  1.00  0.00    -0.061 Cl
BRANCH   9  12
HETATM   12  C   UNL     1       0.074   7.170 -28.314  1.00  0.00     0.060 A 
HETATM   13  C   UNL     1       0.038   6.738 -26.982  1.00  0.00     0.031 A 
HETATM   14  C   UNL     1       0.892   7.309 -26.031  1.00  0.00     0.002 A 
HETATM   15  C   UNL     1       1.779   8.320 -26.394  1.00  0.00     0.000 A 
HETATM   16  C   UNL     1       1.808   8.774 -27.708  1.00  0.00     0.002 A 
HETATM   17  C   UNL     1       0.957   8.209 -28.661  1.00  0.00     0.031 A 
ENDBRANCH   9  12
ENDBRANCH   1   5
BRANCH   2  18
HETATM   18  C   UNL     1      -3.369   2.202 -32.244  1.00  0.00     0.159 C 
BRANCH  18  19
HETATM   19  C   UNL     1      -4.898   1.986 -32.339  1.00  0.00     0.169 C 
BRANCH  19  20
HETATM   20  O   UNL     1      -5.556   3.027 -33.063  1.00  0.00    -0.389 OA
HETATM   21  H   UNL     1      -5.053   3.858 -32.930  1.00  0.00     0.210 HD
ENDBRANCH  19  20
BRANCH  19  22
HETATM   22  C   UNL     1      -5.214   0.671 -33.026  1.00  0.00    -0.025 A 
HETATM   23  C   UNL     1      -6.253   0.593 -33.965  1.00  0.00     0.053 A 
HETATM   24  C   UNL     1      -6.552  -0.623 -34.580  1.00  0.00     0.138 A 
HETATM   25  F   UNL     1      -7.556  -0.658 -35.472  1.00  0.00    -0.204 F 
HETATM   26  C   UNL     1      -5.832  -1.774 -34.274  1.00  0.00     0.072 A 
HETATM   27 CL   UNL     1      -6.203  -3.274 -35.034  1.00  0.00    -0.081 Cl
HETATM   28  C   UNL     1      -4.801  -1.715 -33.341  1.00  0.00     0.028 A 
HETATM   29  C   UNL     1      -4.498  -0.500 -32.718  1.00  0.00     0.012 A 
ENDBRANCH  19  22
ENDBRANCH  18  19
ENDBRANCH   2  18
TORSDOF 6
ENDMDL
MODEL 4
REMARK VINA RESULT:      -8.8      5.351      7.682
REMARK  6 active torsions:
REMARK  status: ('A' for Active; 'I' for Inactive)
REMARK    1  A    between atoms: N_4  and  C_5 
REMARK    2  A    between atoms: C_13  and  C_14 
REMARK       I    between atoms: C_14  and  N_15 
REMARK    3  A    between atoms: N_15  and  C_16 
REMARK    4  A    between atoms: C_16  and  C_17 
REMARK    5  A    between atoms: C_17  and  O_18 
REMARK    6  A    between atoms: C_17  and  C_19 
ROOT
HETATM    1  C   UNL     1      -7.610   2.507 -32.390  1.00  0.00     0.257 C 
HETATM    2  N   UNL     1      -8.946   2.545 -32.069  1.00  0.00    -0.354 N 
HETATM    3  O   UNL     1      -6.980   3.547 -32.569  1.00  0.00    -0.267 OA
HETATM    4  H   UNL     1      -9.443   1.673 -31.936  1.00  0.00     0.162 HD
ENDROOT
BRANCH   1   5
HETATM    5  C   UNL     1      -6.983   1.200 -32.484  1.00  0.00     0.098 C 
HETATM    6  C   UNL     1      -6.347   0.501 -31.424  1.00  0.00     0.070 C 
HETATM    7  C   UNL     1      -6.176   0.934 -30.011  1.00  0.00     0.073 C 
HETATM    8  N   UNL     1      -5.824  -0.662 -31.821  1.00  0.00    -0.170 NA
HETATM    9  N   UNL     1      -6.203  -0.808 -33.122  1.00  0.00    -0.221 N 
HETATM   10  C   UNL     1      -6.817   0.356 -33.565  1.00  0.00     0.145 C 
HETATM   11 CL   UNL     1      -7.151   0.651 -35.218  1.00  0.00    -0.061 Cl
BRANCH   9  12
HETATM   12  C   UNL     1      -5.942  -2.062 -33.761  1.00  0.00     0.060 A 
HETATM   13  C   UNL     1      -4.654  -2.594 -33.894  1.00  0.00     0.031 A 
HETATM   14  C   UNL     1      -4.458  -3.817 -34.547  1.00  0.00     0.002 A 
HETATM   15  C   UNL     1      -5.539  -4.513 -35.083  1.00  0.00     0.000 A 
HETATM   16  C   UNL     1      -6.821  -3.984 -34.978  1.00  0.00     0.002 A 
HETATM   17  C   UNL     1      -7.022  -2.763 -34.329  1.00  0.00     0.031 A 
ENDBRANCH   9  12
ENDBRANCH   1   5
BRANCH   2  18
HETATM   18  C   UNL     1      -9.701   3.793 -32.033  1.00  0.00     0.159 C 
BRANCH  18  19
HETATM   19  C   UNL     1     -10.371   4.152 -33.382  1.00  0.00     0.169 C 
BRANCH  19  20
HETATM   20  O   UNL     1      -9.475   4.035 -34.488  1.00  0.00    -0.389 OA
HETATM   21  H   UNL     1      -8.653   4.523 -34.270  1.00  0.00     0.210 HD
ENDBRANCH  19  20
BRANCH  19  22
HETATM   22  C   UNL     1     -11.559   3.248 -33.648  1.00  0.00    -0.025 A 
HETATM   23  C   UNL     1     -12.630   3.200 -32.743  1.00  0.00     0.053 A 
HETATM   24  C   UNL     1     -13.713   2.353 -32.982  1.00  0.00     0.138 A 
HETATM   25  F   UNL     1     -14.717   2.333 -32.091  1.00  0.00    -0.204 F 
HETATM   26  C   UNL     1     -13.750   1.544 -34.114  1.00  0.00     0.072 A 
HETATM   27 CL   UNL     1     -15.086   0.499 -34.407  1.00  0.00    -0.081 Cl
HETATM   28  C   UNL     1     -12.693   1.576 -35.019  1.00  0.00     0.028 A 
HETATM   29  C   UNL     1     -11.603   2.420 -34.784  1.00  0.00     0.012 A 
ENDBRANCH  19  22
ENDBRANCH  18  19
ENDBRANCH   2  18
TORSDOF 6
ENDMDL
MODEL 5
REMARK VINA RESULT:      -8.8      5.419      7.719
REMARK  6 active torsions:
REMARK  status: ('A' for Active; 'I' for Inactive)
REMARK    1  A    between atoms: N_4  and  C_5 
REMARK    2  A    between atoms: C_13  and  C_14 
REMARK       I    between atoms: C_14  and  N_15 
REMARK    3  A    between atoms: N_15  and  C_16 
REMARK    4  A    between atoms: C_16  and  C_17 
REMARK    5  A    between atoms: C_17  and  O_18 
REMARK    6  A    between atoms: C_17  and  C_19 
ROOT
HETATM    1  C   UNL     1      -6.639   0.474 -30.963  1.00  0.00     0.257 C 
HETATM    2  N   UNL     1      -5.372   0.743 -31.424  1.00  0.00    -0.354 N 
HETATM    3  O   UNL     1      -6.819  -0.374 -30.092  1.00  0.00    -0.267 OA
HETATM    4  H   UNL     1      -5.251   1.440 -32.149  1.00  0.00     0.162 HD
ENDROOT
BRANCH   1   5
HETATM    5  C   UNL     1      -7.733   1.243 -31.530  1.00  0.00     0.098 C 
HETATM    6  C   UNL     1      -8.207   2.496 -31.056  1.00  0.00     0.070 C 
HETATM    7  C   UNL     1      -7.709   3.287 -29.898  1.00  0.00     0.073 C 
HETATM    8  N   UNL     1      -9.254   2.941 -31.753  1.00  0.00    -0.170 NA
HETATM    9  N   UNL     1      -9.420   2.052 -32.772  1.00  0.00    -0.221 N 
HETATM   10  C   UNL     1      -8.574   0.967 -32.591  1.00  0.00     0.145 C 
HETATM   11 CL   UNL     1      -8.716  -0.478 -33.499  1.00  0.00    -0.061 Cl
BRANCH   9  12
HETATM   12  C   UNL     1     -10.361   2.376 -33.801  1.00  0.00     0.060 A 
HETATM   13  C   UNL     1     -10.298   3.561 -34.544  1.00  0.00     0.031 A 
HETATM   14  C   UNL     1     -11.258   3.833 -35.525  1.00  0.00     0.002 A 
HETATM   15  C   UNL     1     -12.295   2.935 -35.767  1.00  0.00     0.000 A 
HETATM   16  C   UNL     1     -12.384   1.765 -35.020  1.00  0.00     0.002 A 
HETATM   17  C   UNL     1     -11.429   1.490 -34.038  1.00  0.00     0.031 A 
ENDBRANCH   9  12
ENDBRANCH   1   5
BRANCH   2  18
HETATM   18  C   UNL     1      -4.209  -0.026 -30.993  1.00  0.00     0.159 C 
BRANCH  18  19
HETATM   19  C   UNL     1      -3.313  -0.503 -32.161  1.00  0.00     0.169 C 
BRANCH  19  20
HETATM   20  O   UNL     1      -2.087  -1.081 -31.712  1.00  0.00    -0.389 OA
HETATM   21  H   UNL     1      -2.197  -1.346 -30.775  1.00  0.00     0.210 HD
ENDBRANCH  19  20
BRANCH  19  22
HETATM   22  C   UNL     1      -4.035  -1.537 -33.004  1.00  0.00    -0.025 A 
HETATM   23  C   UNL     1      -3.620  -2.877 -32.990  1.00  0.00     0.053 A 
HETATM   24  C   UNL     1      -4.274  -3.822 -33.781  1.00  0.00     0.138 A 
HETATM   25  F   UNL     1      -3.846  -5.094 -33.743  1.00  0.00    -0.204 F 
HETATM   26  C   UNL     1      -5.343  -3.454 -34.595  1.00  0.00     0.072 A 
HETATM   27 CL   UNL     1      -6.148  -4.622 -35.572  1.00  0.00    -0.081 Cl
HETATM   28  C   UNL     1      -5.763  -2.128 -34.625  1.00  0.00     0.028 A 
HETATM   29  C   UNL     1      -5.109  -1.175 -33.836  1.00  0.00     0.012 A 
ENDBRANCH  19  22
ENDBRANCH  18  19
ENDBRANCH   2  18
TORSDOF 6
ENDMDL
MODEL 6
REMARK VINA RESULT:      -8.7      3.373      8.527
REMARK  6 active torsions:
REMARK  status: ('A' for Active; 'I' for Inactive)
REMARK    1  A    between atoms: N_4  and  C_5 
REMARK    2  A    between atoms: C_13  and  C_14 
REMARK       I    between atoms: C_14  and  N_15 
REMARK    3  A    between atoms: N_15  and  C_16 
REMARK    4  A    between atoms: C_16  and  C_17 
REMARK    5  A    between atoms: C_17  and  O_18 
REMARK    6  A    between atoms: C_17  and  C_19 
ROOT
HETATM    1  C   UNL     1      -6.181   1.861 -31.802  1.00  0.00     0.257 C 
HETATM    2  N   UNL     1      -6.417   1.132 -32.943  1.00  0.00    -0.354 N 
HETATM    3  O   UNL     1      -7.016   1.899 -30.901  1.00  0.00    -0.267 OA
HETATM    4  H   UNL     1      -5.716   1.125 -33.674  1.00  0.00     0.162 HD
ENDROOT
BRANCH   1   5
HETATM    5  C   UNL     1      -4.908   2.555 -31.703  1.00  0.00     0.098 C 
HETATM    6  C   UNL     1      -3.652   1.958 -31.416  1.00  0.00     0.070 C 
HETATM    7  C   UNL     1      -3.355   0.524 -31.153  1.00  0.00     0.073 C 
HETATM    8  N   UNL     1      -2.665   2.855 -31.349  1.00  0.00    -0.170 NA
HETATM    9  N   UNL     1      -3.227   4.045 -31.703  1.00  0.00    -0.221 N 
HETATM   10  C   UNL     1      -4.603   3.897 -31.821  1.00  0.00     0.145 C 
HETATM   11 CL   UNL     1      -5.666   5.232 -31.955  1.00  0.00    -0.061 Cl
BRANCH   9  12
HETATM   12  C   UNL     1      -2.359   5.165 -31.903  1.00  0.00     0.060 A 
HETATM   13  C   UNL     1      -1.878   5.952 -30.849  1.00  0.00     0.031 A 
HETATM   14  C   UNL     1      -1.047   7.048 -31.107  1.00  0.00     0.002 A 
HETATM   15  C   UNL     1      -0.698   7.378 -32.415  1.00  0.00     0.000 A 
HETATM   16  C   UNL     1      -1.188   6.620 -33.472  1.00  0.00     0.002 A 
HETATM   17  C   UNL     1      -2.019   5.525 -33.220  1.00  0.00     0.031 A 
ENDBRANCH   9  12
ENDBRANCH   1   5
BRANCH   2  18
HETATM   18  C   UNL     1      -7.692   0.467 -33.191  1.00  0.00     0.159 C 
BRANCH  18  19
HETATM   19  C   UNL     1      -7.700  -0.399 -34.473  1.00  0.00     0.169 C 
BRANCH  19  20
HETATM   20  O   UNL     1      -7.470   0.369 -35.656  1.00  0.00    -0.389 OA
HETATM   21  H   UNL     1      -8.335   0.687 -35.988  1.00  0.00     0.210 HD
ENDBRANCH  19  20
BRANCH  19  22
HETATM   22  C   UNL     1      -6.634  -1.475 -34.402  1.00  0.00    -0.025 A 
HETATM   23  C   UNL     1      -6.920  -2.786 -34.813  1.00  0.00     0.053 A 
HETATM   24  C   UNL     1      -5.942  -3.777 -34.727  1.00  0.00     0.138 A 
HETATM   25  F   UNL     1      -6.256  -5.020 -35.127  1.00  0.00    -0.204 F 
HETATM   26  C   UNL     1      -4.673  -3.487 -34.234  1.00  0.00     0.072 A 
HETATM   27 CL   UNL     1      -3.468  -4.712 -34.128  1.00  0.00    -0.081 Cl
HETATM   28  C   UNL     1      -4.374  -2.193 -33.817  1.00  0.00     0.028 A 
HETATM   29  C   UNL     1      -5.351  -1.195 -33.897  1.00  0.00     0.012 A 
ENDBRANCH  19  22
ENDBRANCH  18  19
ENDBRANCH   2  18
TORSDOF 6
ENDMDL
MODEL 7
REMARK VINA RESULT:      -8.6      1.980      2.623
REMARK  6 active torsions:
REMARK  status: ('A' for Active; 'I' for Inactive)
REMARK    1  A    between atoms: N_4  and  C_5 
REMARK    2  A    between atoms: C_13  and  C_14 
REMARK       I    between atoms: C_14  and  N_15 
REMARK    3  A    between atoms: N_15  and  C_16 
REMARK    4  A    between atoms: C_16  and  C_17 
REMARK    5  A    between atoms: C_17  and  O_18 
REMARK    6  A    between atoms: C_17  and  C_19 
ROOT
HETATM    1  C   UNL     1      -6.188   2.724 -33.143  1.00  0.00     0.257 C 
HETATM    2  N   UNL     1      -5.307   3.711 -33.515  1.00  0.00    -0.354 N 
HETATM    3  O   UNL     1      -7.325   3.010 -32.772  1.00  0.00    -0.267 OA
HETATM    4  H   UNL     1      -4.373   3.450 -33.808  1.00  0.00     0.162 HD
ENDROOT
BRANCH   1   5
HETATM    5  C   UNL     1      -5.727   1.350 -33.229  1.00  0.00     0.098 C 
HETATM    6  C   UNL     1      -4.708   0.760 -32.434  1.00  0.00     0.070 C 
HETATM    7  C   UNL     1      -3.896   1.397 -31.361  1.00  0.00     0.073 C 
HETATM    8  N   UNL     1      -4.472  -0.510 -32.769  1.00  0.00    -0.170 NA
HETATM    9  N   UNL     1      -5.406  -0.820 -33.711  1.00  0.00    -0.221 N 
HETATM   10  C   UNL     1      -6.105   0.323 -34.072  1.00  0.00     0.145 C 
HETATM   11 CL   UNL     1      -7.142   0.380 -35.434  1.00  0.00    -0.061 Cl
BRANCH   9  12
HETATM   12  C   UNL     1      -5.517  -2.186 -34.125  1.00  0.00     0.060 A 
HETATM   13  C   UNL     1      -6.711  -2.743 -34.597  1.00  0.00     0.031 A 
HETATM   14  C   UNL     1      -6.763  -4.092 -34.969  1.00  0.00     0.002 A 
HETATM   15  C   UNL     1      -5.633  -4.899 -34.864  1.00  0.00     0.000 A 
HETATM   16  C   UNL     1      -4.446  -4.364 -34.374  1.00  0.00     0.002 A 
HETATM   17  C   UNL     1      -4.389  -3.019 -33.999  1.00  0.00     0.031 A 
ENDBRANCH   9  12
ENDBRANCH   1   5
BRANCH   2  18
HETATM   18  C   UNL     1      -5.627   5.129 -33.388  1.00  0.00     0.159 C 
BRANCH  18  19
HETATM   19  C   UNL     1      -5.353   5.702 -31.977  1.00  0.00     0.169 C 
BRANCH  19  20
HETATM   20  O   UNL     1      -5.758   4.814 -30.934  1.00  0.00    -0.389 OA
HETATM   21  H   UNL     1      -6.195   5.341 -30.234  1.00  0.00     0.210 HD
ENDBRANCH  19  20
BRANCH  19  22
HETATM   22  C   UNL     1      -3.876   5.993 -31.793  1.00  0.00    -0.025 A 
HETATM   23  C   UNL     1      -3.368   7.276 -32.049  1.00  0.00     0.053 A 
HETATM   24  C   UNL     1      -2.006   7.534 -31.897  1.00  0.00     0.138 A 
HETATM   25  F   UNL     1      -1.558   8.774 -32.154  1.00  0.00    -0.204 F 
HETATM   26  C   UNL     1      -1.129   6.530 -31.495  1.00  0.00     0.072 A 
HETATM   27 CL   UNL     1       0.552   6.851 -31.309  1.00  0.00    -0.081 Cl
HETATM   28  C   UNL     1      -1.616   5.251 -31.242  1.00  0.00     0.028 A 
HETATM   29  C   UNL     1      -2.980   4.984 -31.395  1.00  0.00     0.012 A 
ENDBRANCH  19  22
ENDBRANCH  18  19
ENDBRANCH   2  18
TORSDOF 6
ENDMDL
MODEL 8
REMARK VINA RESULT:      -8.5      1.607      2.081
REMARK  6 active torsions:
REMARK  status: ('A' for Active; 'I' for Inactive)
REMARK    1  A    between atoms: N_4  and  C_5 
REMARK    2  A    between atoms: C_13  and  C_14 
REMARK       I    between atoms: C_14  and  N_15 
REMARK    3  A    between atoms: N_15  and  C_16 
REMARK    4  A    between atoms: C_16  and  C_17 
REMARK    5  A    between atoms: C_17  and  O_18 
REMARK    6  A    between atoms: C_17  and  C_19 
ROOT
HETATM    1  C   UNL     1      -4.930   2.183 -32.355  1.00  0.00     0.257 C 
HETATM    2  N   UNL     1      -4.102   3.085 -32.978  1.00  0.00    -0.354 N 
HETATM    3  O   UNL     1      -5.805   2.568 -31.582  1.00  0.00    -0.267 OA
HETATM    4  H   UNL     1      -3.383   2.741 -33.602  1.00  0.00     0.162 HD
ENDROOT
BRANCH   1   5
HETATM    5  C   UNL     1      -4.740   0.777 -32.665  1.00  0.00     0.098 C 
HETATM    6  C   UNL     1      -3.791  -0.091 -32.061  1.00  0.00     0.070 C 
HETATM    7  C   UNL     1      -2.797   0.232 -31.001  1.00  0.00     0.073 C 
HETATM    8  N   UNL     1      -3.820  -1.320 -32.581  1.00  0.00    -0.170 NA
HETATM    9  N   UNL     1      -4.864  -1.322 -33.457  1.00  0.00    -0.221 N 
HETATM   10  C   UNL     1      -5.364  -0.034 -33.594  1.00  0.00     0.145 C 
HETATM   11 CL   UNL     1      -6.471   0.401 -34.825  1.00  0.00    -0.061 Cl
BRANCH   9  12
HETATM   12  C   UNL     1      -5.256  -2.572 -34.033  1.00  0.00     0.060 A 
HETATM   13  C   UNL     1      -4.379  -3.654 -34.170  1.00  0.00     0.031 A 
HETATM   14  C   UNL     1      -4.814  -4.847 -34.759  1.00  0.00     0.002 A 
HETATM   15  C   UNL     1      -6.121  -4.969 -35.226  1.00  0.00     0.000 A 
HETATM   16  C   UNL     1      -6.996  -3.893 -35.118  1.00  0.00     0.002 A 
HETATM   17  C   UNL     1      -6.565  -2.700 -34.532  1.00  0.00     0.031 A 
ENDBRANCH   9  12
ENDBRANCH   1   5
BRANCH   2  18
HETATM   18  C   UNL     1      -4.141   4.513 -32.677  1.00  0.00     0.159 C 
BRANCH  18  19
HETATM   19  C   UNL     1      -2.971   5.311 -33.302  1.00  0.00     0.169 C 
BRANCH  19  20
HETATM   20  O   UNL     1      -3.420   6.394 -34.118  1.00  0.00    -0.389 OA
HETATM   21  H   UNL     1      -2.633   6.842 -34.493  1.00  0.00     0.210 HD
ENDBRANCH  19  20
BRANCH  19  22
HETATM   22  C   UNL     1      -2.073   5.881 -32.222  1.00  0.00    -0.025 A 
HETATM   23  C   UNL     1      -2.571   6.102 -30.929  1.00  0.00     0.053 A 
HETATM   24  C   UNL     1      -1.746   6.645 -29.944  1.00  0.00     0.138 A 
HETATM   25  F   UNL     1      -2.260   6.844 -28.719  1.00  0.00    -0.204 F 
HETATM   26  C   UNL     1      -0.423   6.978 -30.223  1.00  0.00     0.072 A 
HETATM   27 CL   UNL     1       0.592   7.649 -29.006  1.00  0.00    -0.081 Cl
HETATM   28  C   UNL     1       0.084   6.771 -31.502  1.00  0.00     0.028 A 
HETATM   29  C   UNL     1      -0.738   6.229 -32.496  1.00  0.00     0.012 A 
ENDBRANCH  19  22
ENDBRANCH  18  19
ENDBRANCH   2  18
TORSDOF 6
ENDMDL
MODEL 9
REMARK VINA RESULT:      -8.4      3.338      8.521
REMARK  6 active torsions:
REMARK  status: ('A' for Active; 'I' for Inactive)
REMARK    1  A    between atoms: N_4  and  C_5 
REMARK    2  A    between atoms: C_13  and  C_14 
REMARK       I    between atoms: C_14  and  N_15 
REMARK    3  A    between atoms: N_15  and  C_16 
REMARK    4  A    between atoms: C_16  and  C_17 
REMARK    5  A    between atoms: C_17  and  O_18 
REMARK    6  A    between atoms: C_17  and  C_19 
ROOT
HETATM    1  C   UNL     1      -6.596   2.613 -32.042  1.00  0.00     0.257 C 
HETATM    2  N   UNL     1      -6.404   1.538 -32.878  1.00  0.00    -0.354 N 
HETATM    3  O   UNL     1      -7.576   2.660 -31.301  1.00  0.00    -0.267 OA
HETATM    4  H   UNL     1      -5.594   1.528 -33.485  1.00  0.00     0.162 HD
ENDROOT
BRANCH   1   5
HETATM    5  C   UNL     1      -5.592   3.662 -32.060  1.00  0.00     0.098 C 
HETATM    6  C   UNL     1      -5.780   4.989 -32.529  1.00  0.00     0.070 C 
HETATM    7  C   UNL     1      -7.014   5.596 -33.099  1.00  0.00     0.073 C 
HETATM    8  N   UNL     1      -4.663   5.717 -32.461  1.00  0.00    -0.170 NA
HETATM    9  N   UNL     1      -3.746   4.922 -31.840  1.00  0.00    -0.221 N 
HETATM   10  C   UNL     1      -4.263   3.643 -31.684  1.00  0.00     0.145 C 
HETATM   11 CL   UNL     1      -3.297   2.307 -31.221  1.00  0.00    -0.061 Cl
BRANCH   9  12
HETATM   12  C   UNL     1      -2.497   5.508 -31.458  1.00  0.00     0.060 A 
HETATM   13  C   UNL     1      -2.391   6.494 -30.469  1.00  0.00     0.031 A 
HETATM   14  C   UNL     1      -1.143   7.044 -30.151  1.00  0.00     0.002 A 
HETATM   15  C   UNL     1       0.005   6.628 -30.821  1.00  0.00     0.000 A 
HETATM   16  C   UNL     1      -0.090   5.667 -31.822  1.00  0.00     0.002 A 
HETATM   17  C   UNL     1      -1.333   5.115 -32.144  1.00  0.00     0.031 A 
ENDBRANCH   9  12
ENDBRANCH   1   5
BRANCH   2  18
HETATM   18  C   UNL     1      -7.389   0.470 -33.009  1.00  0.00     0.159 C 
BRANCH  18  19
HETATM   19  C   UNL     1      -7.339  -0.254 -34.376  1.00  0.00     0.169 C 
BRANCH  19  20
HETATM   20  O   UNL     1      -6.942   0.611 -35.441  1.00  0.00    -0.389 OA
HETATM   21  H   UNL     1      -7.627   0.571 -36.141  1.00  0.00     0.210 HD
ENDBRANCH  19  20
BRANCH  19  22
HETATM   22  C   UNL     1      -6.367  -1.417 -34.334  1.00  0.00    -0.025 A 
HETATM   23  C   UNL     1      -6.741  -2.673 -34.836  1.00  0.00     0.053 A 
HETATM   24  C   UNL     1      -5.851  -3.745 -34.778  1.00  0.00     0.138 A 
HETATM   25  F   UNL     1      -6.246  -4.931 -35.266  1.00  0.00    -0.204 F 
HETATM   26  C   UNL     1      -4.584  -3.591 -34.221  1.00  0.00     0.072 A 
HETATM   27 CL   UNL     1      -3.487  -4.916 -34.149  1.00  0.00    -0.081 Cl
HETATM   28  C   UNL     1      -4.199  -2.354 -33.713  1.00  0.00     0.028 A 
HETATM   29  C   UNL     1      -5.088  -1.275 -33.766  1.00  0.00     0.012 A 
ENDBRANCH  19  22
ENDBRANCH  18  19
ENDBRANCH   2  18
TORSDOF 6
ENDMDL
MODEL 10
REMARK VINA RESULT:      -8.3      1.689      2.319
REMARK  6 active torsions:
REMARK  status: ('A' for Active; 'I' for Inactive)
REMARK    1  A    between atoms: N_4  and  C_5 
REMARK    2  A    between atoms: C_13  and  C_14 
REMARK       I    between atoms: C_14  and  N_15 
REMARK    3  A    between atoms: N_15  and  C_16 
REMARK    4  A    between atoms: C_16  and  C_17 
REMARK    5  A    between atoms: C_17  and  O_18 
REMARK    6  A    between atoms: C_17  and  C_19 
ROOT
HETATM    1  C   UNL     1      -6.564   2.659 -33.226  1.00  0.00     0.257 C 
HETATM    2  N   UNL     1      -6.611   3.051 -31.910  1.00  0.00    -0.354 N 
HETATM    3  O   UNL     1      -6.399   3.489 -34.119  1.00  0.00    -0.267 OA
HETATM    4  H   UNL     1      -6.758   2.350 -31.194  1.00  0.00     0.162 HD
ENDROOT
BRANCH   1   5
HETATM    5  C   UNL     1      -6.695   1.240 -33.506  1.00  0.00     0.098 C 
HETATM    6  C   UNL     1      -7.878   0.579 -33.934  1.00  0.00     0.070 C 
HETATM    7  C   UNL     1      -9.220   1.170 -34.184  1.00  0.00     0.073 C 
HETATM    8  N   UNL     1      -7.705  -0.737 -34.070  1.00  0.00    -0.170 NA
HETATM    9  N   UNL     1      -6.378  -0.957 -33.847  1.00  0.00    -0.221 N 
HETATM   10  C   UNL     1      -5.777   0.213 -33.405  1.00  0.00     0.145 C 
HETATM   11 CL   UNL     1      -4.198   0.247 -32.743  1.00  0.00    -0.061 Cl
BRANCH   9  12
HETATM   12  C   UNL     1      -5.860  -2.265 -34.111  1.00  0.00     0.060 A 
HETATM   13  C   UNL     1      -4.515  -2.602 -33.920  1.00  0.00     0.031 A 
HETATM   14  C   UNL     1      -4.061  -3.894 -34.213  1.00  0.00     0.002 A 
HETATM   15  C   UNL     1      -4.938  -4.855 -34.709  1.00  0.00     0.000 A 
HETATM   16  C   UNL     1      -6.272  -4.527 -34.926  1.00  0.00     0.002 A 
HETATM   17  C   UNL     1      -6.729  -3.239 -34.636  1.00  0.00     0.031 A 
ENDBRANCH   9  12
ENDBRANCH   1   5
BRANCH   2  18
HETATM   18  C   UNL     1      -6.579   4.456 -31.515  1.00  0.00     0.159 C 
BRANCH  18  19
HETATM   19  C   UNL     1      -5.293   4.856 -30.753  1.00  0.00     0.169 C 
BRANCH  19  20
HETATM   20  O   UNL     1      -4.844   3.837 -29.859  1.00  0.00    -0.389 OA
HETATM   21  H   UNL     1      -5.431   3.059 -29.962  1.00  0.00     0.210 HD
ENDBRANCH  19  20
BRANCH  19  22
HETATM   22  C   UNL     1      -4.166   5.155 -31.722  1.00  0.00    -0.025 A 
HETATM   23  C   UNL     1      -2.840   4.840 -31.387  1.00  0.00     0.053 A 
HETATM   24  C   UNL     1      -1.804   5.134 -32.273  1.00  0.00     0.138 A 
HETATM   25  F   UNL     1      -0.548   4.820 -31.915  1.00  0.00    -0.204 F 
HETATM   26  C   UNL     1      -2.063   5.744 -33.498  1.00  0.00     0.072 A 
HETATM   27 CL   UNL     1      -0.783   6.107 -34.590  1.00  0.00    -0.081 Cl
HETATM   28  C   UNL     1      -3.372   6.068 -33.843  1.00  0.00     0.028 A 
HETATM   29  C   UNL     1      -4.416   5.779 -32.958  1.00  0.00     0.012 A 
ENDBRANCH  19  22
ENDBRANCH  18  19
ENDBRANCH   2  18
TORSDOF 6
ENDMDL
