MODEL 1
REMARK VINA RESULT:      -7.7      0.000      0.000
REMARK  5 active torsions:
REMARK  status: ('A' for Active; 'I' for Inactive)
REMARK    1  A    between atoms: C_2  and  O_3 
REMARK    2  A    between atoms: O_3  and  C_4 
REMARK    3  A    between atoms: C_9  and  C_10 
REMARK       I    between atoms: C_10  and  N_11 
REMARK    4  A    between atoms: N_11  and  C_12 
REMARK    5  A    between atoms: C_12  and  C_13 
ROOT
HETATM    1  C   UNL     1      -6.470  -0.820 -34.319  1.00  0.00     0.256 C 
HETATM    2  N   UNL     1      -6.709  -0.275 -33.082  1.00  0.00    -0.348 N 
HETATM    3  O   UNL     1      -6.703  -0.214 -35.361  1.00  0.00    -0.267 OA
HETATM    4  H   UNL     1      -6.453  -0.806 -32.256  1.00  0.00     0.163 HD
ENDROOT
BRANCH   1   5
HETATM    5  C   UNL     1      -5.930  -2.209 -34.374  1.00  0.00     0.084 A 
HETATM    6  C   UNL     1      -4.657  -2.596 -33.950  1.00  0.00     0.180 A 
HETATM    7  N   UNL     1      -4.205  -3.875 -34.003  1.00  0.00    -0.236 NA
HETATM    8  C   UNL     1      -5.046  -4.810 -34.494  1.00  0.00     0.119 A 
HETATM    9  C   UNL     1      -6.322  -4.531 -34.943  1.00  0.00     0.020 A 
HETATM   10  C   UNL     1      -6.767  -3.213 -34.882  1.00  0.00     0.023 A 
BRANCH   6  11
HETATM   11  O   UNL     1      -3.799  -1.629 -33.458  1.00  0.00    -0.334 OA
BRANCH  11  12
HETATM   12  C   UNL     1      -3.415  -1.824 -32.095  1.00  0.00     0.173 C 
HETATM   13  C   UNL     1      -3.396  -0.461 -31.426  1.00  0.00     0.034 C 
ENDBRANCH  11  12
ENDBRANCH   6  11
ENDBRANCH   1   5
BRANCH   2  14
HETATM   14  C   UNL     1      -7.235   1.063 -32.890  1.00  0.00     0.114 C 
HETATM   15  C   UNL     1      -6.878   1.597 -31.501  1.00  0.00     0.037 C 
BRANCH  14  16
HETATM   16  C   UNL     1      -8.728   1.042 -33.180  1.00  0.00    -0.036 A 
HETATM   17  C   UNL     1      -9.576   0.035 -32.695  1.00  0.00     0.010 A 
HETATM   18  C   UNL     1     -10.933   0.022 -33.029  1.00  0.00     0.019 A 
HETATM   19  C   UNL     1     -11.451   1.009 -33.863  1.00  0.00     0.011 A 
HETATM   20 BR   UNL     1     -13.283   0.983 -34.325  1.00  0.00    -0.051 Br
HETATM   21  C   UNL     1     -10.625   2.009 -34.370  1.00  0.00     0.019 A 
HETATM   22  C   UNL     1      -9.269   2.021 -34.032  1.00  0.00     0.010 A 
ENDBRANCH  14  16
ENDBRANCH   2  14
TORSDOF 5
ENDMDL
MODEL 2
REMARK VINA RESULT:      -7.4      3.915      5.010
REMARK  5 active torsions:
REMARK  status: ('A' for Active; 'I' for Inactive)
REMARK    1  A    between atoms: C_2  and  O_3 
REMARK    2  A    between atoms: O_3  and  C_4 
REMARK    3  A    between atoms: C_9  and  C_10 
REMARK       I    between atoms: C_10  and  N_11 
REMARK    4  A    between atoms: N_11  and  C_12 
REMARK    5  A    between atoms: C_12  and  C_13 
ROOT
HETATM    1  C   UNL     1      -6.423  -0.015 -33.038  1.00  0.00     0.256 C 
HETATM    2  N   UNL     1      -5.965   1.154 -33.593  1.00  0.00    -0.348 N 
HETATM    3  O   UNL     1      -7.153  -0.033 -32.051  1.00  0.00    -0.267 OA
HETATM    4  H   UNL     1      -5.403   1.107 -34.437  1.00  0.00     0.163 HD
ENDROOT
BRANCH   1   5
HETATM    5  C   UNL     1      -5.987  -1.298 -33.662  1.00  0.00     0.084 A 
HETATM    6  C   UNL     1      -4.664  -1.733 -33.767  1.00  0.00     0.180 A 
HETATM    7  N   UNL     1      -4.306  -2.916 -34.329  1.00  0.00    -0.236 NA
HETATM    8  C   UNL     1      -5.295  -3.699 -34.808  1.00  0.00     0.119 A 
HETATM    9  C   UNL     1      -6.634  -3.360 -34.757  1.00  0.00     0.020 A 
HETATM   10  C   UNL     1      -6.980  -2.142 -34.178  1.00  0.00     0.023 A 
BRANCH   6  11
HETATM   11  O   UNL     1      -3.657  -0.919 -33.283  1.00  0.00    -0.334 OA
BRANCH  11  12
HETATM   12  C   UNL     1      -3.162  -1.298 -31.996  1.00  0.00     0.173 C 
HETATM   13  C   UNL     1      -2.967  -0.027 -31.188  1.00  0.00     0.034 C 
ENDBRANCH  11  12
ENDBRANCH   6  11
ENDBRANCH   1   5
BRANCH   2  14
HETATM   14  C   UNL     1      -6.311   2.467 -33.082  1.00  0.00     0.114 C 
HETATM   15  C   UNL     1      -7.640   2.949 -33.668  1.00  0.00     0.037 C 
BRANCH  14  16
HETATM   16  C   UNL     1      -5.144   3.408 -33.336  1.00  0.00    -0.036 A 
HETATM   17  C   UNL     1      -5.198   4.434 -34.292  1.00  0.00     0.010 A 
HETATM   18  C   UNL     1      -4.086   5.244 -34.535  1.00  0.00     0.019 A 
HETATM   19  C   UNL     1      -2.904   5.027 -33.830  1.00  0.00     0.011 A 
HETATM   20 BR   UNL     1      -1.396   6.115 -34.168  1.00  0.00    -0.051 Br
HETATM   21  C   UNL     1      -2.822   4.005 -32.889  1.00  0.00     0.019 A 
HETATM   22  C   UNL     1      -3.937   3.198 -32.647  1.00  0.00     0.010 A 
ENDBRANCH  14  16
ENDBRANCH   2  14
TORSDOF 5
ENDMDL
MODEL 3
REMARK VINA RESULT:      -7.2      3.313      5.060
REMARK  5 active torsions:
REMARK  status: ('A' for Active; 'I' for Inactive)
REMARK    1  A    between atoms: C_2  and  O_3 
REMARK    2  A    between atoms: O_3  and  C_4 
REMARK    3  A    between atoms: C_9  and  C_10 
REMARK       I    between atoms: C_10  and  N_11 
REMARK    4  A    between atoms: N_11  and  C_12 
REMARK    5  A    between atoms: C_12  and  C_13 
ROOT
HETATM    1  C   UNL     1      -3.684  -1.282 -32.000  1.00  0.00     0.256 C 
HETATM    2  N   UNL     1      -4.755  -0.566 -31.528  1.00  0.00    -0.348 N 
HETATM    3  O   UNL     1      -2.523  -0.980 -31.739  1.00  0.00    -0.267 OA
HETATM    4  H   UNL     1      -5.693  -0.891 -31.740  1.00  0.00     0.163 HD
ENDROOT
BRANCH   1   5
HETATM    5  C   UNL     1      -3.965  -2.453 -32.880  1.00  0.00     0.084 A 
HETATM    6  C   UNL     1      -4.790  -2.435 -34.007  1.00  0.00     0.180 A 
HETATM    7  N   UNL     1      -5.011  -3.520 -34.793  1.00  0.00    -0.236 NA
HETATM    8  C   UNL     1      -4.393  -4.670 -34.450  1.00  0.00     0.119 A 
HETATM    9  C   UNL     1      -3.562  -4.795 -33.353  1.00  0.00     0.020 A 
HETATM   10  C   UNL     1      -3.349  -3.672 -32.559  1.00  0.00     0.023 A 
BRANCH   6  11
HETATM   11  O   UNL     1      -5.426  -1.255 -34.344  1.00  0.00    -0.334 OA
BRANCH  11  12
HETATM   12  C   UNL     1      -6.805  -1.409 -34.688  1.00  0.00     0.173 C 
HETATM   13  C   UNL     1      -7.319  -0.053 -35.139  1.00  0.00     0.034 C 
ENDBRANCH  11  12
ENDBRANCH   6  11
ENDBRANCH   1   5
BRANCH   2  14
HETATM   14  C   UNL     1      -4.619   0.595 -30.668  1.00  0.00     0.114 C 
HETATM   15  C   UNL     1      -5.843   0.751 -29.763  1.00  0.00     0.037 C 
BRANCH  14  16
HETATM   16  C   UNL     1      -4.331   1.810 -31.536  1.00  0.00    -0.036 A 
HETATM   17  C   UNL     1      -3.159   2.570 -31.403  1.00  0.00     0.010 A 
HETATM   18  C   UNL     1      -2.955   3.712 -32.181  1.00  0.00     0.019 A 
HETATM   19  C   UNL     1      -3.930   4.112 -33.093  1.00  0.00     0.011 A 
HETATM   20 BR   UNL     1      -3.660   5.664 -34.137  1.00  0.00    -0.051 Br
HETATM   21  C   UNL     1      -5.108   3.383 -33.230  1.00  0.00     0.019 A 
HETATM   22  C   UNL     1      -5.308   2.240 -32.451  1.00  0.00     0.010 A 
ENDBRANCH  14  16
ENDBRANCH   2  14
TORSDOF 5
ENDMDL
MODEL 4
REMARK VINA RESULT:      -7.0      4.269      6.920
REMARK  5 active torsions:
REMARK  status: ('A' for Active; 'I' for Inactive)
REMARK    1  A    between atoms: C_2  and  O_3 
REMARK    2  A    between atoms: O_3  and  C_4 
REMARK    3  A    between atoms: C_9  and  C_10 
REMARK       I    between atoms: C_10  and  N_11 
REMARK    4  A    between atoms: N_11  and  C_12 
REMARK    5  A    between atoms: C_12  and  C_13 
ROOT
HETATM    1  C   UNL     1      -4.275   2.852 -32.238  1.00  0.00     0.256 C 
HETATM    2  N   UNL     1      -4.165   1.548 -32.652  1.00  0.00    -0.348 N 
HETATM    3  O   UNL     1      -4.844   3.166 -31.196  1.00  0.00    -0.267 OA
HETATM    4  H   UNL     1      -3.644   1.347 -33.499  1.00  0.00     0.163 HD
ENDROOT
BRANCH   1   5
HETATM    5  C   UNL     1      -3.695   3.911 -33.113  1.00  0.00     0.084 A 
HETATM    6  C   UNL     1      -4.391   4.611 -34.101  1.00  0.00     0.180 A 
HETATM    7  N   UNL     1      -3.831   5.580 -34.870  1.00  0.00    -0.236 NA
HETATM    8  C   UNL     1      -2.530   5.867 -34.654  1.00  0.00     0.119 A 
HETATM    9  C   UNL     1      -1.752   5.231 -33.706  1.00  0.00     0.020 A 
HETATM   10  C   UNL     1      -2.344   4.240 -32.929  1.00  0.00     0.023 A 
BRANCH   6  11
HETATM   11  O   UNL     1      -5.720   4.302 -34.321  1.00  0.00    -0.334 OA
BRANCH  11  12
HETATM   12  C   UNL     1      -6.643   5.185 -33.679  1.00  0.00     0.173 C 
HETATM   13  C   UNL     1      -7.694   4.329 -32.993  1.00  0.00     0.034 C 
ENDBRANCH  11  12
ENDBRANCH   6  11
ENDBRANCH   1   5
BRANCH   2  14
HETATM   14  C   UNL     1      -4.689   0.426 -31.897  1.00  0.00     0.114 C 
HETATM   15  C   UNL     1      -3.682  -0.044 -30.846  1.00  0.00     0.037 C 
BRANCH  14  16
HETATM   16  C   UNL     1      -5.116  -0.658 -32.874  1.00  0.00    -0.036 A 
HETATM   17  C   UNL     1      -6.417  -0.731 -33.397  1.00  0.00     0.010 A 
HETATM   18  C   UNL     1      -6.787  -1.775 -34.250  1.00  0.00     0.019 A 
HETATM   19  C   UNL     1      -5.861  -2.763 -34.578  1.00  0.00     0.011 A 
HETATM   20 BR   UNL     1      -6.365  -4.180 -35.721  1.00  0.00    -0.051 Br
HETATM   21  C   UNL     1      -4.570  -2.719 -34.058  1.00  0.00     0.019 A 
HETATM   22  C   UNL     1      -4.203  -1.673 -33.207  1.00  0.00     0.010 A 
ENDBRANCH  14  16
ENDBRANCH   2  14
TORSDOF 5
ENDMDL
MODEL 5
REMARK VINA RESULT:      -6.9      3.427      6.992
REMARK  5 active torsions:
REMARK  status: ('A' for Active; 'I' for Inactive)
REMARK    1  A    between atoms: C_2  and  O_3 
REMARK    2  A    between atoms: O_3  and  C_4 
REMARK    3  A    between atoms: C_9  and  C_10 
REMARK       I    between atoms: C_10  and  N_11 
REMARK    4  A    between atoms: N_11  and  C_12 
REMARK    5  A    between atoms: C_12  and  C_13 
ROOT
HETATM    1  C   UNL     1      -9.547   0.942 -32.989  1.00  0.00     0.256 C 
HETATM    2  N   UNL     1      -8.511   0.998 -33.887  1.00  0.00    -0.348 N 
HETATM    3  O   UNL     1      -9.364   0.884 -31.776  1.00  0.00    -0.267 OA
HETATM    4  H   UNL     1      -8.725   1.092 -34.875  1.00  0.00     0.163 HD
ENDROOT
BRANCH   1   5
HETATM    5  C   UNL     1     -10.936   0.930 -33.531  1.00  0.00     0.084 A 
HETATM    6  C   UNL     1     -11.490   1.915 -34.351  1.00  0.00     0.180 A 
HETATM    7  N   UNL     1     -12.757   1.862 -34.837  1.00  0.00    -0.236 NA
HETATM    8  C   UNL     1     -13.506   0.792 -34.499  1.00  0.00     0.119 A 
HETATM    9  C   UNL     1     -13.055  -0.234 -33.691  1.00  0.00     0.020 A 
HETATM   10  C   UNL     1     -11.754  -0.161 -33.201  1.00  0.00     0.023 A 
BRANCH   6  11
HETATM   11  O   UNL     1     -10.718   3.013 -34.684  1.00  0.00    -0.334 OA
BRANCH  11  12
HETATM   12  C   UNL     1     -11.351   3.924 -35.585  1.00  0.00     0.173 C 
HETATM   13  C   UNL     1     -10.846   5.318 -35.254  1.00  0.00     0.034 C 
ENDBRANCH  11  12
ENDBRANCH   6  11
ENDBRANCH   1   5
BRANCH   2  14
HETATM   14  C   UNL     1      -7.115   1.013 -33.493  1.00  0.00     0.114 C 
HETATM   15  C   UNL     1      -6.374   2.181 -34.147  1.00  0.00     0.037 C 
BRANCH  14  16
HETATM   16  C   UNL     1      -6.512  -0.350 -33.794  1.00  0.00    -0.036 A 
HETATM   17  C   UNL     1      -7.218  -1.352 -34.478  1.00  0.00     0.010 A 
HETATM   18  C   UNL     1      -6.649  -2.611 -34.688  1.00  0.00     0.019 A 
HETATM   19  C   UNL     1      -5.371  -2.883 -34.204  1.00  0.00     0.011 A 
HETATM   20 BR   UNL     1      -4.608  -4.590 -34.478  1.00  0.00    -0.051 Br
HETATM   21  C   UNL     1      -4.659  -1.910 -33.510  1.00  0.00     0.019 A 
HETATM   22  C   UNL     1      -5.230  -0.651 -33.303  1.00  0.00     0.010 A 
ENDBRANCH  14  16
ENDBRANCH   2  14
TORSDOF 5
ENDMDL
MODEL 6
REMARK VINA RESULT:      -6.8      3.296      6.838
REMARK  5 active torsions:
REMARK  status: ('A' for Active; 'I' for Inactive)
REMARK    1  A    between atoms: C_2  and  O_3 
REMARK    2  A    between atoms: O_3  and  C_4 
REMARK    3  A    between atoms: C_9  and  C_10 
REMARK       I    between atoms: C_10  and  N_11 
REMARK    4  A    between atoms: N_11  and  C_12 
REMARK    5  A    between atoms: C_12  and  C_13 
ROOT
HETATM    1  C   UNL     1      -6.510   1.843 -30.666  1.00  0.00     0.256 C 
HETATM    2  N   UNL     1      -6.145   1.267 -31.857  1.00  0.00    -0.348 N 
HETATM    3  O   UNL     1      -5.873   1.672 -29.630  1.00  0.00    -0.267 OA
HETATM    4  H   UNL     1      -6.685   1.481 -32.689  1.00  0.00     0.163 HD
ENDROOT
BRANCH   1   5
HETATM    5  C   UNL     1      -7.742   2.684 -30.649  1.00  0.00     0.084 A 
HETATM    6  C   UNL     1      -8.978   2.312 -31.180  1.00  0.00     0.180 A 
HETATM    7  N   UNL     1     -10.083   3.101 -31.134  1.00  0.00    -0.236 NA
HETATM    8  C   UNL     1      -9.959   4.306 -30.539  1.00  0.00     0.119 A 
HETATM    9  C   UNL     1      -8.780   4.770 -29.987  1.00  0.00     0.020 A 
HETATM   10  C   UNL     1      -7.659   3.947 -30.045  1.00  0.00     0.023 A 
BRANCH   6  11
HETATM   11  O   UNL     1      -9.092   1.080 -31.797  1.00  0.00    -0.334 OA
BRANCH  11  12
HETATM   12  C   UNL     1      -9.934   1.077 -32.953  1.00  0.00     0.173 C 
HETATM   13  C   UNL     1      -9.094   1.540 -34.131  1.00  0.00     0.034 C 
ENDBRANCH  11  12
ENDBRANCH   6  11
ENDBRANCH   1   5
BRANCH   2  14
HETATM   14  C   UNL     1      -4.974   0.424 -32.008  1.00  0.00     0.114 C 
HETATM   15  C   UNL     1      -3.771   1.242 -32.483  1.00  0.00     0.037 C 
BRANCH  14  16
HETATM   16  C   UNL     1      -5.329  -0.741 -32.918  1.00  0.00    -0.036 A 
HETATM   17  C   UNL     1      -6.646  -1.004 -33.327  1.00  0.00     0.010 A 
HETATM   18  C   UNL     1      -6.939  -2.117 -34.119  1.00  0.00     0.019 A 
HETATM   19  C   UNL     1      -5.918  -2.985 -34.500  1.00  0.00     0.011 A 
HETATM   20 BR   UNL     1      -6.318  -4.496 -35.561  1.00  0.00    -0.051 Br
HETATM   21  C   UNL     1      -4.608  -2.753 -34.093  1.00  0.00     0.019 A 
HETATM   22  C   UNL     1      -4.317  -1.638 -33.302  1.00  0.00     0.010 A 
ENDBRANCH  14  16
ENDBRANCH   2  14
TORSDOF 5
ENDMDL
MODEL 7
REMARK VINA RESULT:      -6.8      4.841      6.858
REMARK  5 active torsions:
REMARK  status: ('A' for Active; 'I' for Inactive)
REMARK    1  A    between atoms: C_2  and  O_3 
REMARK    2  A    between atoms: O_3  and  C_4 
REMARK    3  A    between atoms: C_9  and  C_10 
REMARK       I    between atoms: C_10  and  N_11 
REMARK    4  A    between atoms: N_11  and  C_12 
REMARK    5  A    between atoms: C_12  and  C_13 
ROOT
HETATM    1  C   UNL     1      -5.008   4.281 -33.795  1.00  0.00     0.256 C 
HETATM    2  N   UNL     1      -5.342   3.124 -33.136  1.00  0.00    -0.348 N 
HETATM    3  O   UNL     1      -5.792   4.865 -34.538  1.00  0.00    -0.267 OA
HETATM    4  H   UNL     1      -4.668   2.712 -32.499  1.00  0.00     0.163 HD
ENDROOT
BRANCH   1   5
HETATM    5  C   UNL     1      -3.629   4.815 -33.605  1.00  0.00     0.084 A 
HETATM    6  C   UNL     1      -3.011   5.031 -32.371  1.00  0.00     0.180 A 
HETATM    7  N   UNL     1      -1.746   5.506 -32.237  1.00  0.00    -0.236 NA
HETATM    8  C   UNL     1      -1.065   5.780 -33.370  1.00  0.00     0.119 A 
HETATM    9  C   UNL     1      -1.585   5.606 -34.638  1.00  0.00     0.020 A 
HETATM   10  C   UNL     1      -2.884   5.119 -34.754  1.00  0.00     0.023 A 
BRANCH   6  11
HETATM   11  O   UNL     1      -3.722   4.757 -31.217  1.00  0.00    -0.334 OA
BRANCH  11  12
HETATM   12  C   UNL     1      -4.047   5.911 -30.440  1.00  0.00     0.173 C 
HETATM   13  C   UNL     1      -5.518   6.215 -30.667  1.00  0.00     0.034 C 
ENDBRANCH  11  12
ENDBRANCH   6  11
ENDBRANCH   1   5
BRANCH   2  14
HETATM   14  C   UNL     1      -6.647   2.498 -33.238  1.00  0.00     0.114 C 
HETATM   15  C   UNL     1      -7.423   2.636 -31.926  1.00  0.00     0.037 C 
BRANCH  14  16
HETATM   16  C   UNL     1      -6.461   1.062 -33.699  1.00  0.00    -0.036 A 
HETATM   17  C   UNL     1      -7.231   0.495 -34.727  1.00  0.00     0.010 A 
HETATM   18  C   UNL     1      -7.067  -0.846 -35.086  1.00  0.00     0.019 A 
HETATM   19  C   UNL     1      -6.139  -1.636 -34.411  1.00  0.00     0.011 A 
HETATM   20 BR   UNL     1      -5.927  -3.451 -34.889  1.00  0.00    -0.051 Br
HETATM   21  C   UNL     1      -5.375  -1.099 -33.379  1.00  0.00     0.019 A 
HETATM   22  C   UNL     1      -5.540   0.243 -33.023  1.00  0.00     0.010 A 
ENDBRANCH  14  16
ENDBRANCH   2  14
TORSDOF 5
ENDMDL
MODEL 8
REMARK VINA RESULT:      -6.8      3.597      6.912
REMARK  5 active torsions:
REMARK  status: ('A' for Active; 'I' for Inactive)
REMARK    1  A    between atoms: C_2  and  O_3 
REMARK    2  A    between atoms: O_3  and  C_4 
REMARK    3  A    between atoms: C_9  and  C_10 
REMARK       I    between atoms: C_10  and  N_11 
REMARK    4  A    between atoms: N_11  and  C_12 
REMARK    5  A    between atoms: C_12  and  C_13 
ROOT
HETATM    1  C   UNL     1      -6.268   2.636 -33.251  1.00  0.00     0.256 C 
HETATM    2  N   UNL     1      -6.621   1.309 -33.259  1.00  0.00    -0.348 N 
HETATM    3  O   UNL     1      -6.056   3.267 -34.282  1.00  0.00    -0.267 OA
HETATM    4  H   UNL     1      -6.828   0.853 -32.377  1.00  0.00     0.163 HD
ENDROOT
BRANCH   1   5
HETATM    5  C   UNL     1      -6.121   3.307 -31.927  1.00  0.00     0.084 A 
HETATM    6  C   UNL     1      -6.937   3.085 -30.816  1.00  0.00     0.180 A 
HETATM    7  N   UNL     1      -6.763   3.706 -29.620  1.00  0.00    -0.236 NA
HETATM    8  C   UNL     1      -5.740   4.581 -29.520  1.00  0.00     0.119 A 
HETATM    9  C   UNL     1      -4.878   4.874 -30.559  1.00  0.00     0.020 A 
HETATM   10  C   UNL     1      -5.074   4.228 -31.777  1.00  0.00     0.023 A 
BRANCH   6  11
HETATM   11  O   UNL     1      -7.988   2.194 -30.932  1.00  0.00    -0.334 OA
BRANCH  11  12
HETATM   12  C   UNL     1      -9.281   2.798 -30.851  1.00  0.00     0.173 C 
HETATM   13  C   UNL     1      -9.914   2.711 -32.229  1.00  0.00     0.034 C 
ENDBRANCH  11  12
ENDBRANCH   6  11
ENDBRANCH   1   5
BRANCH   2  14
HETATM   14  C   UNL     1      -6.794   0.540 -34.477  1.00  0.00     0.114 C 
HETATM   15  C   UNL     1      -8.278   0.337 -34.789  1.00  0.00     0.037 C 
BRANCH  14  16
HETATM   16  C   UNL     1      -6.005  -0.754 -34.348  1.00  0.00    -0.036 A 
HETATM   17  C   UNL     1      -6.438  -1.960 -34.921  1.00  0.00     0.010 A 
HETATM   18  C   UNL     1      -5.713  -3.141 -34.734  1.00  0.00     0.019 A 
HETATM   19  C   UNL     1      -4.554  -3.127 -33.961  1.00  0.00     0.011 A 
HETATM   20 BR   UNL     1      -3.582  -4.725 -33.699  1.00  0.00    -0.051 Br
HETATM   21  C   UNL     1      -4.115  -1.946 -33.370  1.00  0.00     0.019 A 
HETATM   22  C   UNL     1      -4.841  -0.767 -33.560  1.00  0.00     0.010 A 
ENDBRANCH  14  16
ENDBRANCH   2  14
TORSDOF 5
ENDMDL
MODEL 9
REMARK VINA RESULT:      -6.7     13.096     14.507
REMARK  5 active torsions:
REMARK  status: ('A' for Active; 'I' for Inactive)
REMARK    1  A    between atoms: C_2  and  O_3 
REMARK    2  A    between atoms: O_3  and  C_4 
REMARK    3  A    between atoms: C_9  and  C_10 
REMARK       I    between atoms: C_10  and  N_11 
REMARK    4  A    between atoms: N_11  and  C_12 
REMARK    5  A    between atoms: C_12  and  C_13 
ROOT
HETATM    1  C   UNL     1      -3.700 -13.186 -37.805  1.00  0.00     0.256 C 
HETATM    2  N   UNL     1      -4.667 -14.115 -37.514  1.00  0.00    -0.348 N 
HETATM    3  O   UNL     1      -3.768 -12.022 -37.420  1.00  0.00    -0.267 OA
HETATM    4  H   UNL     1      -4.533 -15.073 -37.821  1.00  0.00     0.163 HD
ENDROOT
BRANCH   1   5
HETATM    5  C   UNL     1      -2.545 -13.624 -38.642  1.00  0.00     0.084 A 
HETATM    6  C   UNL     1      -2.644 -14.268 -39.876  1.00  0.00     0.180 A 
HETATM    7  N   UNL     1      -1.568 -14.640 -40.617  1.00  0.00    -0.236 NA
HETATM    8  C   UNL     1      -0.346 -14.364 -40.116  1.00  0.00     0.119 A 
HETATM    9  C   UNL     1      -0.139 -13.734 -38.903  1.00  0.00     0.020 A 
HETATM   10  C   UNL     1      -1.255 -13.362 -38.158  1.00  0.00     0.023 A 
BRANCH   6  11
HETATM   11  O   UNL     1      -3.900 -14.557 -40.376  1.00  0.00    -0.334 OA
BRANCH  11  12
HETATM   12  C   UNL     1      -4.264 -13.791 -41.527  1.00  0.00     0.173 C 
HETATM   13  C   UNL     1      -5.357 -12.823 -41.106  1.00  0.00     0.034 C 
ENDBRANCH  11  12
ENDBRANCH   6  11
ENDBRANCH   1   5
BRANCH   2  14
HETATM   14  C   UNL     1      -5.841 -13.819 -36.715  1.00  0.00     0.114 C 
HETATM   15  C   UNL     1      -6.016 -14.849 -35.597  1.00  0.00     0.037 C 
BRANCH  14  16
HETATM   16  C   UNL     1      -7.041 -13.699 -37.641  1.00  0.00    -0.036 A 
HETATM   17  C   UNL     1      -7.438 -12.477 -38.206  1.00  0.00     0.010 A 
HETATM   18  C   UNL     1      -8.579 -12.399 -39.010  1.00  0.00     0.019 A 
HETATM   19  C   UNL     1      -9.341 -13.542 -39.245  1.00  0.00     0.011 A 
HETATM   20 BR   UNL     1     -10.890 -13.432 -40.321  1.00  0.00    -0.051 Br
HETATM   21  C   UNL     1      -8.974 -14.761 -38.682  1.00  0.00     0.019 A 
HETATM   22  C   UNL     1      -7.832 -14.836 -37.880  1.00  0.00     0.010 A 
ENDBRANCH  14  16
ENDBRANCH   2  14
TORSDOF 5
ENDMDL
MODEL 10
REMARK VINA RESULT:      -6.7      3.798      6.029
REMARK  5 active torsions:
REMARK  status: ('A' for Active; 'I' for Inactive)
REMARK    1  A    between atoms: C_2  and  O_3 
REMARK    2  A    between atoms: O_3  and  C_4 
REMARK    3  A    between atoms: C_9  and  C_10 
REMARK       I    between atoms: C_10  and  N_11 
REMARK    4  A    between atoms: N_11  and  C_12 
REMARK    5  A    between atoms: C_12  and  C_13 
ROOT
HETATM    1  C   UNL     1      -4.546   2.829 -32.371  1.00  0.00     0.256 C 
HETATM    2  N   UNL     1      -4.910   1.684 -33.034  1.00  0.00    -0.348 N 
HETATM    3  O   UNL     1      -4.789   3.005 -31.180  1.00  0.00    -0.267 OA
HETATM    4  H   UNL     1      -4.640   1.576 -34.007  1.00  0.00     0.163 HD
ENDROOT
BRANCH   1   5
HETATM    5  C   UNL     1      -3.851   3.893 -33.151  1.00  0.00     0.084 A 
HETATM    6  C   UNL     1      -4.440   4.680 -34.143  1.00  0.00     0.180 A 
HETATM    7  N   UNL     1      -3.778   5.651 -34.823  1.00  0.00    -0.236 NA
HETATM    8  C   UNL     1      -2.480   5.851 -34.510  1.00  0.00     0.119 A 
HETATM    9  C   UNL     1      -1.803   5.125 -33.550  1.00  0.00     0.020 A 
HETATM   10  C   UNL     1      -2.499   4.133 -32.864  1.00  0.00     0.023 A 
BRANCH   6  11
HETATM   11  O   UNL     1      -5.767   4.461 -34.463  1.00  0.00    -0.334 OA
BRANCH  11  12
HETATM   12  C   UNL     1      -6.696   5.158 -33.629  1.00  0.00     0.173 C 
HETATM   13  C   UNL     1      -7.951   4.309 -33.533  1.00  0.00     0.034 C 
ENDBRANCH  11  12
ENDBRANCH   6  11
ENDBRANCH   1   5
BRANCH   2  14
HETATM   14  C   UNL     1      -5.593   0.576 -32.395  1.00  0.00     0.114 C 
HETATM   15  C   UNL     1      -4.922  -0.754 -32.742  1.00  0.00     0.037 C 
BRANCH  14  16
HETATM   16  C   UNL     1      -7.067   0.640 -32.761  1.00  0.00    -0.036 A 
HETATM   17  C   UNL     1      -7.519   0.552 -34.087  1.00  0.00     0.010 A 
HETATM   18  C   UNL     1      -8.879   0.670 -34.388  1.00  0.00     0.019 A 
HETATM   19  C   UNL     1      -9.799   0.889 -33.365  1.00  0.00     0.011 A 
HETATM   20 BR   UNL     1     -11.635   1.060 -33.775  1.00  0.00    -0.051 Br
HETATM   21  C   UNL     1      -9.372   0.995 -32.045  1.00  0.00     0.019 A 
HETATM   22  C   UNL     1      -8.012   0.875 -31.746  1.00  0.00     0.010 A 
ENDBRANCH  14  16
ENDBRANCH   2  14
TORSDOF 5
ENDMDL
