MODEL 1
REMARK VINA RESULT:      -7.1      0.000      0.000
REMARK  6 active torsions:
REMARK  status: ('A' for Active; 'I' for Inactive)
REMARK    1  A    between atoms: N_2  and  C_5 
REMARK    2  A    between atoms: C_5  and  C_6 
REMARK    3  A    between atoms: C_6  and  C_7 
REMARK    4  A    between atoms: C_7  and  C_8 
REMARK    5  A    between atoms: C_12  and  N_13 
REMARK       I    between atoms: N_13  and  C_14 
REMARK    6  A    between atoms: C_14  and  C_15 
ROOT
HETATM    1  C   UNL     1      -1.869   6.009 -31.744  1.00  0.00     0.079 A 
HETATM    2  N   UNL     1      -2.543   5.785 -30.601  1.00  0.00    -0.176 NA
HETATM    3  N   UNL     1      -3.310   4.705 -30.902  1.00  0.00    -0.261 N 
HETATM    4  H   UNL     1      -3.913   4.287 -30.194  1.00  0.00     0.191 HD
HETATM    5  C   UNL     1      -3.194   4.287 -32.205  1.00  0.00     0.147 A 
HETATM    6  C   UNL     1      -2.250   5.113 -32.772  1.00  0.00     0.116 A 
HETATM    7  C   UNL     1      -1.769   5.070 -34.113  1.00  0.00     0.105 C 
HETATM    8  N   UNL     1      -1.384   5.057 -35.206  1.00  0.00    -0.191 NA
ENDROOT
BRANCH   1   9
HETATM    9  C   UNL     1      -0.861   7.111 -31.785  1.00  0.00     0.064 C 
BRANCH   9  10
HETATM   10  C   UNL     1       0.431   6.808 -31.019  1.00  0.00     0.033 C 
BRANCH  10  11
HETATM   11  C   UNL     1       0.770   5.337 -30.763  1.00  0.00     0.232 C 
BRANCH  11  12
HETATM   12  N   UNL     1       0.335   4.894 -29.410  1.00  0.00    -0.079 N 
HETATM   13  C   UNL     1       0.398   5.942 -28.363  1.00  0.00     0.266 C 
HETATM   14  H   UNL     1       0.852   4.063 -29.101  1.00  0.00     0.276 HD
HETATM   15  H   UNL     1      -0.663   4.597 -29.504  1.00  0.00     0.276 HD
ENDBRANCH  11  12
ENDBRANCH  10  11
ENDBRANCH   9  10
ENDBRANCH   1   9
BRANCH   5  16
HETATM   16  N   UNL     1      -3.919   3.235 -32.745  1.00  0.00    -0.306 N 
HETATM   17  C   UNL     1      -3.841   1.950 -32.234  1.00  0.00     0.259 C 
HETATM   18  O   UNL     1      -3.109   1.669 -31.283  1.00  0.00    -0.267 OA
HETATM   19  H   UNL     1      -4.531   3.419 -33.536  1.00  0.00     0.170 HD
BRANCH  17  20
HETATM   20  C   UNL     1      -4.670   0.926 -32.878  1.00  0.00     0.063 A 
HETATM   21  C   UNL     1      -4.476  -0.443 -32.918  1.00  0.00     0.091 A 
HETATM   22 CL   UNL     1      -3.200  -1.382 -32.231  1.00  0.00    -0.075 Cl
HETATM   23  S   UNL     1      -5.669  -1.294 -33.781  1.00  0.00    -0.065 SA
HETATM   24  C   UNL     1      -6.482   0.140 -34.138  1.00  0.00     0.077 A 
HETATM   25 CL   UNL     1      -7.921   0.102 -35.070  1.00  0.00    -0.076 Cl
HETATM   26  C   UNL     1      -5.872   1.251 -33.617  1.00  0.00     0.050 A 
ENDBRANCH  17  20
ENDBRANCH   5  16
TORSDOF 6
ENDMDL
MODEL 2
REMARK VINA RESULT:      -7.0      1.060      1.677
REMARK  6 active torsions:
REMARK  status: ('A' for Active; 'I' for Inactive)
REMARK    1  A    between atoms: N_2  and  C_5 
REMARK    2  A    between atoms: C_5  and  C_6 
REMARK    3  A    between atoms: C_6  and  C_7 
REMARK    4  A    between atoms: C_7  and  C_8 
REMARK    5  A    between atoms: C_12  and  N_13 
REMARK       I    between atoms: N_13  and  C_14 
REMARK    6  A    between atoms: C_14  and  C_15 
ROOT
HETATM    1  C   UNL     1      -1.915   5.901 -31.708  1.00  0.00     0.079 A 
HETATM    2  N   UNL     1      -2.546   5.655 -30.545  1.00  0.00    -0.176 NA
HETATM    3  N   UNL     1      -3.283   4.548 -30.822  1.00  0.00    -0.261 N 
HETATM    4  H   UNL     1      -3.849   4.110 -30.095  1.00  0.00     0.191 HD
HETATM    5  C   UNL     1      -3.192   4.133 -32.128  1.00  0.00     0.147 A 
HETATM    6  C   UNL     1      -2.295   4.990 -32.724  1.00  0.00     0.116 A 
HETATM    7  C   UNL     1      -1.855   4.962 -34.079  1.00  0.00     0.105 C 
HETATM    8  N   UNL     1      -1.503   4.961 -35.183  1.00  0.00    -0.191 NA
ENDROOT
BRANCH   1   9
HETATM    9  C   UNL     1      -0.948   7.037 -31.780  1.00  0.00     0.064 C 
BRANCH   9  10
HETATM   10  C   UNL     1       0.352   6.805 -31.003  1.00  0.00     0.033 C 
BRANCH  10  11
HETATM   11  C   UNL     1       0.771   5.355 -30.749  1.00  0.00     0.232 C 
BRANCH  11  12
HETATM   12  N   UNL     1       0.419   4.909 -29.373  1.00  0.00    -0.079 N 
HETATM   13  C   UNL     1       0.380   5.991 -28.360  1.00  0.00     0.266 C 
HETATM   14  H   UNL     1       1.037   4.155 -29.052  1.00  0.00     0.276 HD
HETATM   15  H   UNL     1      -0.538   4.494 -29.434  1.00  0.00     0.276 HD
ENDBRANCH  11  12
ENDBRANCH  10  11
ENDBRANCH   9  10
ENDBRANCH   1   9
BRANCH   5  16
HETATM   16  N   UNL     1      -3.895   3.055 -32.645  1.00  0.00    -0.306 N 
HETATM   17  C   UNL     1      -3.770   1.777 -32.125  1.00  0.00     0.259 C 
HETATM   18  O   UNL     1      -3.012   1.527 -31.186  1.00  0.00    -0.267 OA
HETATM   19  H   UNL     1      -4.528   3.213 -33.425  1.00  0.00     0.170 HD
BRANCH  17  20
HETATM   20  C   UNL     1      -4.580   0.724 -32.744  1.00  0.00     0.063 A 
HETATM   21  C   UNL     1      -5.952   0.677 -32.915  1.00  0.00     0.091 A 
HETATM   22 CL   UNL     1      -7.147   1.834 -32.453  1.00  0.00    -0.075 Cl
HETATM   23  S   UNL     1      -6.514  -0.735 -33.679  1.00  0.00    -0.065 SA
HETATM   24  C   UNL     1      -4.943  -1.336 -33.800  1.00  0.00     0.077 A 
HETATM   25 CL   UNL     1      -4.662  -2.866 -34.523  1.00  0.00    -0.076 Cl
HETATM   26  C   UNL     1      -4.000  -0.491 -33.276  1.00  0.00     0.050 A 
ENDBRANCH  17  20
ENDBRANCH   5  16
TORSDOF 6
ENDMDL
MODEL 3
REMARK VINA RESULT:      -6.7      6.218      8.237
REMARK  6 active torsions:
REMARK  status: ('A' for Active; 'I' for Inactive)
REMARK    1  A    between atoms: N_2  and  C_5 
REMARK    2  A    between atoms: C_5  and  C_6 
REMARK    3  A    between atoms: C_6  and  C_7 
REMARK    4  A    between atoms: C_7  and  C_8 
REMARK    5  A    between atoms: C_12  and  N_13 
REMARK       I    between atoms: N_13  and  C_14 
REMARK    6  A    between atoms: C_14  and  C_15 
ROOT
HETATM    1  C   UNL     1      -9.680   3.135 -31.379  1.00  0.00     0.079 A 
HETATM    2  N   UNL     1      -8.757   3.080 -30.401  1.00  0.00    -0.176 NA
HETATM    3  N   UNL     1      -7.984   2.024 -30.765  1.00  0.00    -0.261 N 
HETATM    4  H   UNL     1      -7.168   1.766 -30.211  1.00  0.00     0.191 HD
HETATM    5  C   UNL     1      -8.427   1.374 -31.892  1.00  0.00     0.147 A 
HETATM    6  C   UNL     1      -9.524   2.088 -32.319  1.00  0.00     0.116 A 
HETATM    7  C   UNL     1     -10.329   1.816 -33.463  1.00  0.00     0.105 C 
HETATM    8  N   UNL     1     -11.002   1.596 -34.381  1.00  0.00    -0.191 NA
ENDROOT
BRANCH   1   9
HETATM    9  C   UNL     1     -10.697   4.229 -31.353  1.00  0.00     0.064 C 
BRANCH   9  10
HETATM   10  C   UNL     1     -12.076   3.792 -30.846  1.00  0.00     0.033 C 
BRANCH  10  11
HETATM   11  C   UNL     1     -13.209   3.708 -31.872  1.00  0.00     0.232 C 
BRANCH  11  12
HETATM   12  N   UNL     1     -14.157   2.603 -31.565  1.00  0.00    -0.079 N 
HETATM   13  C   UNL     1     -14.701   1.902 -32.754  1.00  0.00     0.266 C 
HETATM   14  H   UNL     1     -14.928   2.922 -30.967  1.00  0.00     0.276 HD
HETATM   15  H   UNL     1     -13.621   1.904 -31.001  1.00  0.00     0.276 HD
ENDBRANCH  11  12
ENDBRANCH  10  11
ENDBRANCH   9  10
ENDBRANCH   1   9
BRANCH   5  16
HETATM   16  N   UNL     1      -7.822   0.243 -32.417  1.00  0.00    -0.306 N 
HETATM   17  C   UNL     1      -6.647   0.308 -33.148  1.00  0.00     0.259 C 
HETATM   18  O   UNL     1      -6.087   1.380 -33.387  1.00  0.00    -0.267 OA
HETATM   19  H   UNL     1      -8.253  -0.664 -32.251  1.00  0.00     0.170 HD
BRANCH  17  20
HETATM   20  C   UNL     1      -6.094  -0.959 -33.635  1.00  0.00     0.063 A 
HETATM   21  C   UNL     1      -4.782  -1.397 -33.603  1.00  0.00     0.091 A 
HETATM   22 CL   UNL     1      -3.381  -0.597 -32.989  1.00  0.00    -0.075 Cl
HETATM   23  S   UNL     1      -4.543  -2.939 -34.281  1.00  0.00    -0.065 SA
HETATM   24  C   UNL     1      -6.184  -3.070 -34.648  1.00  0.00     0.077 A 
HETATM   25 CL   UNL     1      -6.781  -4.478 -35.424  1.00  0.00    -0.076 Cl
HETATM   26  C   UNL     1      -6.911  -1.973 -34.267  1.00  0.00     0.050 A 
ENDBRANCH  17  20
ENDBRANCH   5  16
TORSDOF 6
ENDMDL
MODEL 4
REMARK VINA RESULT:      -6.6      5.775      6.778
REMARK  6 active torsions:
REMARK  status: ('A' for Active; 'I' for Inactive)
REMARK    1  A    between atoms: N_2  and  C_5 
REMARK    2  A    between atoms: C_5  and  C_6 
REMARK    3  A    between atoms: C_6  and  C_7 
REMARK    4  A    between atoms: C_7  and  C_8 
REMARK    5  A    between atoms: C_12  and  N_13 
REMARK       I    between atoms: N_13  and  C_14 
REMARK    6  A    between atoms: C_14  and  C_15 
ROOT
HETATM    1  C   UNL     1      -9.336   3.025 -30.966  1.00  0.00     0.079 A 
HETATM    2  N   UNL     1      -8.262   3.058 -30.156  1.00  0.00    -0.176 NA
HETATM    3  N   UNL     1      -7.507   2.021 -30.602  1.00  0.00    -0.261 N 
HETATM    4  H   UNL     1      -6.598   1.826 -30.183  1.00  0.00     0.191 HD
HETATM    5  C   UNL     1      -8.096   1.300 -31.612  1.00  0.00     0.147 A 
HETATM    6  C   UNL     1      -9.284   1.942 -31.878  1.00  0.00     0.116 A 
HETATM    7  C   UNL     1     -10.252   1.581 -32.859  1.00  0.00     0.105 C 
HETATM    8  N   UNL     1     -11.054   1.288 -33.642  1.00  0.00    -0.191 NA
ENDROOT
BRANCH   1   9
HETATM    9  C   UNL     1     -10.390   4.073 -30.813  1.00  0.00     0.064 C 
BRANCH   9  10
HETATM   10  C   UNL     1     -10.000   5.442 -31.380  1.00  0.00     0.033 C 
BRANCH  10  11
HETATM   11  C   UNL     1      -9.644   6.544 -30.379  1.00  0.00     0.232 C 
BRANCH  11  12
HETATM   12  N   UNL     1      -9.261   5.986 -29.053  1.00  0.00    -0.079 N 
HETATM   13  C   UNL     1      -7.924   6.405 -28.566  1.00  0.00     0.266 C 
HETATM   14  H   UNL     1      -9.330   4.962 -29.040  1.00  0.00     0.276 HD
HETATM   15  H   UNL     1      -9.972   6.334 -28.371  1.00  0.00     0.276 HD
ENDBRANCH  11  12
ENDBRANCH  10  11
ENDBRANCH   9  10
ENDBRANCH   1   9
BRANCH   5  16
HETATM   16  N   UNL     1      -7.528   0.172 -32.186  1.00  0.00    -0.306 N 
HETATM   17  C   UNL     1      -6.503   0.255 -33.114  1.00  0.00     0.259 C 
HETATM   18  O   UNL     1      -6.054   1.339 -33.493  1.00  0.00    -0.267 OA
HETATM   19  H   UNL     1      -7.873  -0.744 -31.908  1.00  0.00     0.170 HD
BRANCH  17  20
HETATM   20  C   UNL     1      -5.972  -1.007 -33.636  1.00  0.00     0.063 A 
HETATM   21  C   UNL     1      -4.665  -1.460 -33.636  1.00  0.00     0.091 A 
HETATM   22 CL   UNL     1      -3.244  -0.687 -33.031  1.00  0.00    -0.075 Cl
HETATM   23  S   UNL     1      -4.454  -2.990 -34.349  1.00  0.00    -0.065 SA
HETATM   24  C   UNL     1      -6.103  -3.096 -34.689  1.00  0.00     0.077 A 
HETATM   25 CL   UNL     1      -6.728  -4.482 -35.483  1.00  0.00    -0.076 Cl
HETATM   26  C   UNL     1      -6.811  -1.999 -34.274  1.00  0.00     0.050 A 
ENDBRANCH  17  20
ENDBRANCH   5  16
TORSDOF 6
ENDMDL
MODEL 5
REMARK VINA RESULT:      -6.6      2.953      4.278
REMARK  6 active torsions:
REMARK  status: ('A' for Active; 'I' for Inactive)
REMARK    1  A    between atoms: N_2  and  C_5 
REMARK    2  A    between atoms: C_5  and  C_6 
REMARK    3  A    between atoms: C_6  and  C_7 
REMARK    4  A    between atoms: C_7  and  C_8 
REMARK    5  A    between atoms: C_12  and  N_13 
REMARK       I    between atoms: N_13  and  C_14 
REMARK    6  A    between atoms: C_14  and  C_15 
ROOT
HETATM    1  C   UNL     1      -6.203   3.451 -30.097  1.00  0.00     0.079 A 
HETATM    2  N   UNL     1      -7.450   2.962 -29.967  1.00  0.00    -0.176 NA
HETATM    3  N   UNL     1      -7.347   1.711 -30.486  1.00  0.00    -0.261 N 
HETATM    4  H   UNL     1      -8.151   1.085 -30.487  1.00  0.00     0.191 HD
HETATM    5  C   UNL     1      -6.105   1.423 -30.998  1.00  0.00     0.147 A 
HETATM    6  C   UNL     1      -5.336   2.537 -30.743  1.00  0.00     0.116 A 
HETATM    7  C   UNL     1      -3.962   2.722 -31.072  1.00  0.00     0.105 C 
HETATM    8  N   UNL     1      -2.850   2.891 -31.350  1.00  0.00    -0.191 NA
ENDROOT
BRANCH   1   9
HETATM    9  C   UNL     1      -5.904   4.818 -29.574  1.00  0.00     0.064 C 
BRANCH   9  10
HETATM   10  C   UNL     1      -5.843   5.904 -30.654  1.00  0.00     0.033 C 
BRANCH  10  11
HETATM   11  C   UNL     1      -4.464   6.459 -31.016  1.00  0.00     0.232 C 
BRANCH  11  12
HETATM   12  N   UNL     1      -3.409   5.979 -30.083  1.00  0.00    -0.079 N 
HETATM   13  C   UNL     1      -2.026   6.365 -30.457  1.00  0.00     0.266 C 
HETATM   14  H   UNL     1      -3.460   4.963 -29.945  1.00  0.00     0.276 HD
HETATM   15  H   UNL     1      -3.619   6.409 -29.154  1.00  0.00     0.276 HD
ENDBRANCH  11  12
ENDBRANCH  10  11
ENDBRANCH   9  10
ENDBRANCH   1   9
BRANCH   5  16
HETATM   16  N   UNL     1      -5.786   0.225 -31.619  1.00  0.00    -0.306 N 
HETATM   17  C   UNL     1      -6.104  -0.024 -32.944  1.00  0.00     0.259 C 
HETATM   18  O   UNL     1      -6.704   0.801 -33.636  1.00  0.00    -0.267 OA
HETATM   19  H   UNL     1      -5.296  -0.488 -31.084  1.00  0.00     0.170 HD
BRANCH  17  20
HETATM   20  C   UNL     1      -5.698  -1.320 -33.495  1.00  0.00     0.063 A 
HETATM   21  C   UNL     1      -4.477  -1.962 -33.383  1.00  0.00     0.091 A 
HETATM   22 CL   UNL     1      -3.045  -1.444 -32.570  1.00  0.00    -0.075 Cl
HETATM   23  S   UNL     1      -4.401  -3.463 -34.179  1.00  0.00    -0.065 SA
HETATM   24  C   UNL     1      -5.995  -3.303 -34.707  1.00  0.00     0.077 A 
HETATM   25 CL   UNL     1      -6.710  -4.534 -35.664  1.00  0.00    -0.076 Cl
HETATM   26  C   UNL     1      -6.586  -2.138 -34.293  1.00  0.00     0.050 A 
ENDBRANCH  17  20
ENDBRANCH   5  16
TORSDOF 6
ENDMDL
MODEL 6
REMARK VINA RESULT:      -6.5      1.614      1.691
REMARK  6 active torsions:
REMARK  status: ('A' for Active; 'I' for Inactive)
REMARK    1  A    between atoms: N_2  and  C_5 
REMARK    2  A    between atoms: C_5  and  C_6 
REMARK    3  A    between atoms: C_6  and  C_7 
REMARK    4  A    between atoms: C_7  and  C_8 
REMARK    5  A    between atoms: C_12  and  N_13 
REMARK       I    between atoms: N_13  and  C_14 
REMARK    6  A    between atoms: C_14  and  C_15 
ROOT
HETATM    1  C   UNL     1      -1.862   5.033 -32.098  1.00  0.00     0.079 A 
HETATM    2  N   UNL     1      -1.731   4.265 -31.000  1.00  0.00    -0.176 NA
HETATM    3  N   UNL     1      -2.603   3.249 -31.229  1.00  0.00    -0.261 N 
HETATM    4  H   UNL     1      -2.690   2.483 -30.560  1.00  0.00     0.191 HD
HETATM    5  C   UNL     1      -3.323   3.386 -32.390  1.00  0.00     0.147 A 
HETATM    6  C   UNL     1      -2.849   4.535 -32.983  1.00  0.00     0.116 A 
HETATM    7  C   UNL     1      -3.274   5.097 -34.221  1.00  0.00     0.105 C 
HETATM    8  N   UNL     1      -3.623   5.574 -35.217  1.00  0.00    -0.191 NA
ENDROOT
BRANCH   1   9
HETATM    9  C   UNL     1      -1.002   6.246 -32.239  1.00  0.00     0.064 C 
BRANCH   9  10
HETATM   10  C   UNL     1       0.231   6.250 -31.328  1.00  0.00     0.033 C 
BRANCH  10  11
HETATM   11  C   UNL     1       0.126   7.009 -30.004  1.00  0.00     0.232 C 
BRANCH  11  12
HETATM   12  N   UNL     1      -0.636   6.241 -28.982  1.00  0.00    -0.079 N 
HETATM   13  C   UNL     1      -0.002   6.190 -27.642  1.00  0.00     0.266 C 
HETATM   14  H   UNL     1      -0.843   5.288 -29.304  1.00  0.00     0.276 HD
HETATM   15  H   UNL     1      -1.558   6.721 -28.880  1.00  0.00     0.276 HD
ENDBRANCH  11  12
ENDBRANCH  10  11
ENDBRANCH   9  10
ENDBRANCH   1   9
BRANCH   5  16
HETATM   16  N   UNL     1      -4.302   2.493 -32.799  1.00  0.00    -0.306 N 
HETATM   17  C   UNL     1      -5.165   1.885 -31.902  1.00  0.00     0.259 C 
HETATM   18  O   UNL     1      -5.096   2.092 -30.689  1.00  0.00    -0.267 OA
HETATM   19  H   UNL     1      -4.392   2.287 -33.792  1.00  0.00     0.170 HD
BRANCH  17  20
HETATM   20  C   UNL     1      -6.171   0.975 -32.457  1.00  0.00     0.063 A 
HETATM   21  C   UNL     1      -5.978  -0.178 -33.197  1.00  0.00     0.091 A 
HETATM   22 CL   UNL     1      -4.500  -0.910 -33.707  1.00  0.00    -0.075 Cl
HETATM   23  S   UNL     1      -7.416  -0.956 -33.667  1.00  0.00    -0.065 SA
HETATM   24  C   UNL     1      -8.346   0.226 -32.905  1.00  0.00     0.077 A 
HETATM   25 CL   UNL     1     -10.058   0.130 -32.944  1.00  0.00    -0.076 Cl
HETATM   26  C   UNL     1      -7.593   1.198 -32.300  1.00  0.00     0.050 A 
ENDBRANCH  17  20
ENDBRANCH   5  16
TORSDOF 6
ENDMDL
MODEL 7
REMARK VINA RESULT:      -6.4      4.141      7.813
REMARK  6 active torsions:
REMARK  status: ('A' for Active; 'I' for Inactive)
REMARK    1  A    between atoms: N_2  and  C_5 
REMARK    2  A    between atoms: C_5  and  C_6 
REMARK    3  A    between atoms: C_6  and  C_7 
REMARK    4  A    between atoms: C_7  and  C_8 
REMARK    5  A    between atoms: C_12  and  N_13 
REMARK       I    between atoms: N_13  and  C_14 
REMARK    6  A    between atoms: C_14  and  C_15 
ROOT
HETATM    1  C   UNL     1      -5.838   0.378 -32.954  1.00  0.00     0.079 A 
HETATM    2  N   UNL     1      -6.603   1.473 -33.117  1.00  0.00    -0.176 NA
HETATM    3  N   UNL     1      -5.750   2.491 -32.829  1.00  0.00    -0.261 N 
HETATM    4  H   UNL     1      -6.059   3.460 -32.905  1.00  0.00     0.191 HD
HETATM    5  C   UNL     1      -4.504   2.074 -32.428  1.00  0.00     0.147 A 
HETATM    6  C   UNL     1      -4.531   0.700 -32.514  1.00  0.00     0.116 A 
HETATM    7  C   UNL     1      -3.465  -0.197 -32.215  1.00  0.00     0.105 C 
HETATM    8  N   UNL     1      -2.613  -0.938 -31.957  1.00  0.00    -0.191 NA
ENDROOT
BRANCH   1   9
HETATM    9  C   UNL     1      -6.426  -0.965 -33.241  1.00  0.00     0.064 C 
BRANCH   9  10
HETATM   10  C   UNL     1      -5.992  -1.566 -34.582  1.00  0.00     0.033 C 
BRANCH  10  11
HETATM   11  C   UNL     1      -5.493  -3.013 -34.576  1.00  0.00     0.232 C 
BRANCH  11  12
HETATM   12  N   UNL     1      -4.178  -3.144 -33.892  1.00  0.00    -0.079 N 
HETATM   13  C   UNL     1      -3.672  -4.534 -33.778  1.00  0.00     0.266 C 
HETATM   14  H   UNL     1      -4.189  -2.702 -32.965  1.00  0.00     0.276 HD
HETATM   15  H   UNL     1      -3.492  -2.601 -34.464  1.00  0.00     0.276 HD
ENDBRANCH  11  12
ENDBRANCH  10  11
ENDBRANCH   9  10
ENDBRANCH   1   9
BRANCH   5  16
HETATM   16  N   UNL     1      -3.491   2.938 -32.040  1.00  0.00    -0.306 N 
HETATM   17  C   UNL     1      -3.214   4.106 -32.731  1.00  0.00     0.259 C 
HETATM   18  O   UNL     1      -3.844   4.431 -33.739  1.00  0.00    -0.267 OA
HETATM   19  H   UNL     1      -2.940   2.706 -31.216  1.00  0.00     0.170 HD
BRANCH  17  20
HETATM   20  C   UNL     1      -2.132   4.947 -32.212  1.00  0.00     0.063 A 
HETATM   21  C   UNL     1      -1.638   6.133 -32.725  1.00  0.00     0.091 A 
HETATM   22 CL   UNL     1      -2.130   6.998 -34.136  1.00  0.00    -0.075 Cl
HETATM   23  S   UNL     1      -0.358   6.804 -31.827  1.00  0.00    -0.065 SA
HETATM   24  C   UNL     1      -0.416   5.528 -30.726  1.00  0.00     0.077 A 
HETATM   25 CL   UNL     1       0.675   5.485 -29.403  1.00  0.00    -0.076 Cl
HETATM   26  C   UNL     1      -1.383   4.604 -31.021  1.00  0.00     0.050 A 
ENDBRANCH  17  20
ENDBRANCH   5  16
TORSDOF 6
ENDMDL
MODEL 8
REMARK VINA RESULT:      -6.4      5.947      8.971
REMARK  6 active torsions:
REMARK  status: ('A' for Active; 'I' for Inactive)
REMARK    1  A    between atoms: N_2  and  C_5 
REMARK    2  A    between atoms: C_5  and  C_6 
REMARK    3  A    between atoms: C_6  and  C_7 
REMARK    4  A    between atoms: C_7  and  C_8 
REMARK    5  A    between atoms: C_12  and  N_13 
REMARK       I    between atoms: N_13  and  C_14 
REMARK    6  A    between atoms: C_14  and  C_15 
ROOT
HETATM    1  C   UNL     1      -1.284   5.260 -31.688  1.00  0.00     0.079 A 
HETATM    2  N   UNL     1      -0.738   4.328 -30.886  1.00  0.00    -0.176 NA
HETATM    3  N   UNL     1      -0.218   5.062 -29.868  1.00  0.00    -0.261 N 
HETATM    4  H   UNL     1       0.238   4.602 -29.080  1.00  0.00     0.191 HD
HETATM    5  C   UNL     1      -0.356   6.418 -30.035  1.00  0.00     0.147 A 
HETATM    6  C   UNL     1      -1.060   6.574 -31.208  1.00  0.00     0.116 A 
HETATM    7  C   UNL     1      -1.467   7.802 -31.805  1.00  0.00     0.105 C 
HETATM    8  N   UNL     1      -1.787   8.794 -32.311  1.00  0.00    -0.191 NA
ENDROOT
BRANCH   1   9
HETATM    9  C   UNL     1      -2.015   4.822 -32.914  1.00  0.00     0.064 C 
BRANCH   9  10
HETATM   10  C   UNL     1      -3.458   4.374 -32.658  1.00  0.00     0.033 C 
BRANCH  10  11
HETATM   11  C   UNL     1      -3.674   2.941 -32.166  1.00  0.00     0.232 C 
BRANCH  11  12
HETATM   12  N   UNL     1      -4.000   2.895 -30.714  1.00  0.00    -0.079 N 
HETATM   13  C   UNL     1      -5.262   3.579 -30.339  1.00  0.00     0.266 C 
HETATM   14  H   UNL     1      -3.227   3.255 -30.142  1.00  0.00     0.276 HD
HETATM   15  H   UNL     1      -4.099   1.885 -30.466  1.00  0.00     0.276 HD
ENDBRANCH  11  12
ENDBRANCH  10  11
ENDBRANCH   9  10
ENDBRANCH   1   9
BRANCH   5  16
HETATM   16  N   UNL     1       0.141   7.359 -29.145  1.00  0.00    -0.306 N 
HETATM   17  C   UNL     1       0.139   7.150 -27.776  1.00  0.00     0.259 C 
HETATM   18  O   UNL     1      -0.322   6.123 -27.274  1.00  0.00    -0.267 OA
HETATM   19  H   UNL     1       0.526   8.225 -29.514  1.00  0.00     0.170 HD
BRANCH  17  20
HETATM   20  C   UNL     1       0.710   8.209 -26.939  1.00  0.00     0.063 A 
HETATM   21  C   UNL     1       0.283   9.517 -26.791  1.00  0.00     0.091 A 
HETATM   22 CL   UNL     1      -1.048  10.320 -27.543  1.00  0.00    -0.075 Cl
HETATM   23  S   UNL     1       1.227  10.444 -25.722  1.00  0.00    -0.065 SA
HETATM   24  C   UNL     1       2.244   9.131 -25.426  1.00  0.00     0.077 A 
HETATM   25 CL   UNL     1       3.570   9.297 -24.351  1.00  0.00    -0.076 Cl
HETATM   26  C   UNL     1       1.884   8.004 -26.118  1.00  0.00     0.050 A 
ENDBRANCH  17  20
ENDBRANCH   5  16
TORSDOF 6
ENDMDL
MODEL 9
REMARK VINA RESULT:      -6.3      5.940      8.150
REMARK  6 active torsions:
REMARK  status: ('A' for Active; 'I' for Inactive)
REMARK    1  A    between atoms: N_2  and  C_5 
REMARK    2  A    between atoms: C_5  and  C_6 
REMARK    3  A    between atoms: C_6  and  C_7 
REMARK    4  A    between atoms: C_7  and  C_8 
REMARK    5  A    between atoms: C_12  and  N_13 
REMARK       I    between atoms: N_13  and  C_14 
REMARK    6  A    between atoms: C_14  and  C_15 
ROOT
HETATM    1  C   UNL     1     -10.500   2.528 -32.719  1.00  0.00     0.079 A 
HETATM    2  N   UNL     1     -11.298   1.608 -33.291  1.00  0.00    -0.176 NA
HETATM    3  N   UNL     1     -10.485   0.526 -33.412  1.00  0.00    -0.261 N 
HETATM    4  H   UNL     1     -10.843  -0.349 -33.793  1.00  0.00     0.191 HD
HETATM    5  C   UNL     1      -9.193   0.755 -33.003  1.00  0.00     0.147 A 
HETATM    6  C   UNL     1      -9.180   2.049 -32.534  1.00  0.00     0.116 A 
HETATM    7  C   UNL     1      -8.067   2.749 -31.986  1.00  0.00     0.105 C 
HETATM    8  N   UNL     1      -7.165   3.335 -31.555  1.00  0.00    -0.191 NA
ENDROOT
BRANCH   1   9
HETATM    9  C   UNL     1     -11.070   3.864 -32.370  1.00  0.00     0.064 C 
BRANCH   9  10
HETATM   10  C   UNL     1     -11.334   4.768 -33.580  1.00  0.00     0.033 C 
BRANCH  10  11
HETATM   11  C   UNL     1     -10.406   4.618 -34.787  1.00  0.00     0.232 C 
BRANCH  11  12
HETATM   12  N   UNL     1     -10.979   3.711 -35.819  1.00  0.00    -0.079 N 
HETATM   13  C   UNL     1     -12.460   3.636 -35.827  1.00  0.00     0.266 C 
HETATM   14  H   UNL     1     -10.584   2.766 -35.752  1.00  0.00     0.276 HD
HETATM   15  H   UNL     1     -10.674   4.089 -36.745  1.00  0.00     0.276 HD
ENDBRANCH  11  12
ENDBRANCH  10  11
ENDBRANCH   9  10
ENDBRANCH   1   9
BRANCH   5  16
HETATM   16  N   UNL     1      -8.182  -0.191 -33.082  1.00  0.00    -0.306 N 
HETATM   17  C   UNL     1      -7.581  -0.527 -34.284  1.00  0.00     0.259 C 
HETATM   18  O   UNL     1      -7.927  -0.016 -35.351  1.00  0.00    -0.267 OA
HETATM   19  H   UNL     1      -7.868  -0.644 -32.227  1.00  0.00     0.170 HD
BRANCH  17  20
HETATM   20  C   UNL     1      -6.509  -1.527 -34.237  1.00  0.00     0.063 A 
HETATM   21  C   UNL     1      -5.218  -1.387 -33.761  1.00  0.00     0.091 A 
HETATM   22 CL   UNL     1      -4.453   0.002 -33.078  1.00  0.00    -0.075 Cl
HETATM   23  S   UNL     1      -4.269  -2.793 -33.891  1.00  0.00    -0.065 SA
HETATM   24  C   UNL     1      -5.550  -3.634 -34.595  1.00  0.00     0.077 A 
HETATM   25 CL   UNL     1      -5.350  -5.273 -35.057  1.00  0.00    -0.076 Cl
HETATM   26  C   UNL     1      -6.683  -2.876 -34.734  1.00  0.00     0.050 A 
ENDBRANCH  17  20
ENDBRANCH   5  16
TORSDOF 6
ENDMDL
MODEL 10
REMARK VINA RESULT:      -6.3      4.309      8.037
REMARK  6 active torsions:
REMARK  status: ('A' for Active; 'I' for Inactive)
REMARK    1  A    between atoms: N_2  and  C_5 
REMARK    2  A    between atoms: C_5  and  C_6 
REMARK    3  A    between atoms: C_6  and  C_7 
REMARK    4  A    between atoms: C_7  and  C_8 
REMARK    5  A    between atoms: C_12  and  N_13 
REMARK       I    between atoms: N_13  and  C_14 
REMARK    6  A    between atoms: C_14  and  C_15 
ROOT
HETATM    1  C   UNL     1      -7.444   1.129 -32.134  1.00  0.00     0.079 A 
HETATM    2  N   UNL     1      -6.498   0.301 -32.617  1.00  0.00    -0.176 NA
HETATM    3  N   UNL     1      -5.440   1.127 -32.821  1.00  0.00    -0.261 N 
HETATM    4  H   UNL     1      -4.553   0.755 -33.159  1.00  0.00     0.191 HD
HETATM    5  C   UNL     1      -5.706   2.448 -32.551  1.00  0.00     0.147 A 
HETATM    6  C   UNL     1      -7.002   2.474 -32.089  1.00  0.00     0.116 A 
HETATM    7  C   UNL     1      -7.736   3.618 -31.664  1.00  0.00     0.105 C 
HETATM    8  N   UNL     1      -8.349   4.544 -31.332  1.00  0.00    -0.191 NA
ENDROOT
BRANCH   1   9
HETATM    9  C   UNL     1      -8.765   0.561 -31.731  1.00  0.00     0.064 C 
BRANCH   9  10
HETATM   10  C   UNL     1      -9.604   0.032 -32.899  1.00  0.00     0.033 C 
BRANCH  10  11
HETATM   11  C   UNL     1     -10.722   0.934 -33.428  1.00  0.00     0.232 C 
BRANCH  11  12
HETATM   12  N   UNL     1     -10.909   2.142 -32.580  1.00  0.00    -0.079 N 
HETATM   13  C   UNL     1     -11.223   3.384 -33.328  1.00  0.00     0.266 C 
HETATM   14  H   UNL     1     -10.101   2.302 -31.967  1.00  0.00     0.276 HD
HETATM   15  H   UNL     1     -11.716   1.937 -31.949  1.00  0.00     0.276 HD
ENDBRANCH  11  12
ENDBRANCH  10  11
ENDBRANCH   9  10
ENDBRANCH   1   9
BRANCH   5  16
HETATM   16  N   UNL     1      -4.789   3.471 -32.735  1.00  0.00    -0.306 N 
HETATM   17  C   UNL     1      -3.443   3.314 -32.447  1.00  0.00     0.259 C 
HETATM   18  O   UNL     1      -2.992   2.260 -31.995  1.00  0.00    -0.267 OA
HETATM   19  H   UNL     1      -5.117   4.362 -33.100  1.00  0.00     0.170 HD
BRANCH  17  20
HETATM   20  C   UNL     1      -2.568   4.463 -32.701  1.00  0.00     0.063 A 
HETATM   21  C   UNL     1      -2.529   5.290 -33.809  1.00  0.00     0.091 A 
HETATM   22 CL   UNL     1      -3.486   5.234 -35.244  1.00  0.00    -0.075 Cl
HETATM   23  S   UNL     1      -1.354   6.518 -33.723  1.00  0.00    -0.065 SA
HETATM   24  C   UNL     1      -0.853   5.981 -32.205  1.00  0.00     0.077 A 
HETATM   25 CL   UNL     1       0.420   6.786 -31.386  1.00  0.00    -0.076 Cl
HETATM   26  C   UNL     1      -1.556   4.892 -31.759  1.00  0.00     0.050 A 
ENDBRANCH  17  20
ENDBRANCH   5  16
TORSDOF 6
ENDMDL
