MODEL 1
REMARK VINA RESULT:      -9.0      0.000      0.000
REMARK  7 active torsions:
REMARK  status: ('A' for Active; 'I' for Inactive)
REMARK    1  A    between atoms: C_2  and  N_3 
REMARK    2  A    between atoms: C_2  and  C_19 
REMARK       I    between atoms: N_3  and  C_4 
REMARK       I    between atoms: C_4  and  N_5 
REMARK    3  A    between atoms: N_5  and  C_6 
REMARK    4  A    between atoms: N_8  and  C_9 
REMARK    5  A    between atoms: C_9  and  C_10 
REMARK    6  A    between atoms: C_19  and  C_20 
REMARK    7  A    between atoms: C_23  and  O_24 
ROOT
HETATM    1  N   UNL     1      -6.559   0.723 -32.216  1.00  0.00    -0.338 N 
HETATM    2  C   UNL     1      -6.288   0.499 -30.904  1.00  0.00     0.322 C 
HETATM    3  N   UNL     1      -5.458   1.387 -30.288  1.00  0.00    -0.292 N 
HETATM    4  O   UNL     1      -6.747  -0.446 -30.264  1.00  0.00    -0.247 OA
HETATM    5  H   UNL     1      -6.095   1.536 -32.615  1.00  0.00     0.164 HD
HETATM    6  H   UNL     1      -5.273   1.167 -29.322  1.00  0.00     0.172 HD
ENDROOT
BRANCH   1   7
HETATM    7  C   UNL     1      -7.258  -0.214 -33.081  1.00  0.00     0.086 C 
HETATM    8  C   UNL     1      -8.611   0.377 -33.471  1.00  0.00     0.032 C 
BRANCH   7   9
HETATM    9  C   UNL     1      -6.424  -0.527 -34.340  1.00  0.00     0.063 C 
BRANCH   9  10
HETATM   10  C   UNL     1      -5.950  -1.962 -34.410  1.00  0.00    -0.056 A 
HETATM   11  C   UNL     1      -6.838  -2.987 -34.769  1.00  0.00     0.010 A 
HETATM   12  C   UNL     1      -6.406  -4.314 -34.821  1.00  0.00     0.037 A 
HETATM   13  C   UNL     1      -5.085  -4.617 -34.509  1.00  0.00     0.065 A 
HETATM   14  C   UNL     1      -4.192  -3.616 -34.146  1.00  0.00     0.037 A 
HETATM   15  C   UNL     1      -4.625  -2.291 -34.092  1.00  0.00     0.010 A 
BRANCH  13  16
HETATM   16  O   UNL     1      -4.623  -5.899 -34.545  1.00  0.00    -0.361 OA
HETATM   17  H   UNL     1      -4.461  -6.139 -35.472  1.00  0.00     0.217 HD
ENDBRANCH  13  16
ENDBRANCH   9  10
ENDBRANCH   7   9
ENDBRANCH   1   7
BRANCH   3  18
HETATM   18  C   UNL     1      -4.814   2.480 -30.826  1.00  0.00     0.153 A 
HETATM   19  N   UNL     1      -3.786   2.417 -31.681  1.00  0.00    -0.154 NA
HETATM   20  N   UNL     1      -3.475   3.708 -31.926  1.00  0.00    -0.275 N 
HETATM   21  C   UNL     1      -4.286   4.590 -31.269  1.00  0.00     0.116 A 
HETATM   22  C   UNL     1      -5.164   3.820 -30.543  1.00  0.00     0.071 A 
BRANCH  20  23
HETATM   23  C   UNL     1      -2.416   4.041 -32.870  1.00  0.00     0.189 C 
BRANCH  23  24
HETATM   24  C   UNL     1      -1.440   5.032 -32.288  1.00  0.00    -0.038 A 
HETATM   25  C   UNL     1      -0.641   4.679 -31.189  1.00  0.00     0.009 A 
HETATM   26  C   UNL     1       0.259   5.594 -30.644  1.00  0.00     0.001 A 
HETATM   27  C   UNL     1       0.376   6.869 -31.193  1.00  0.00     0.000 A 
HETATM   28  C   UNL     1      -0.410   7.231 -32.286  1.00  0.00     0.001 A 
HETATM   29  C   UNL     1      -1.315   6.319 -32.830  1.00  0.00     0.009 A 
ENDBRANCH  23  24
ENDBRANCH  20  23
ENDBRANCH   3  18
TORSDOF 7
ENDMDL
MODEL 2
REMARK VINA RESULT:      -8.9      5.127      8.318
REMARK  7 active torsions:
REMARK  status: ('A' for Active; 'I' for Inactive)
REMARK    1  A    between atoms: C_2  and  N_3 
REMARK    2  A    between atoms: C_2  and  C_19 
REMARK       I    between atoms: N_3  and  C_4 
REMARK       I    between atoms: C_4  and  N_5 
REMARK    3  A    between atoms: N_5  and  C_6 
REMARK    4  A    between atoms: N_8  and  C_9 
REMARK    5  A    between atoms: C_9  and  C_10 
REMARK    6  A    between atoms: C_19  and  C_20 
REMARK    7  A    between atoms: C_23  and  O_24 
ROOT
HETATM    1  N   UNL     1      -9.315   2.061 -32.542  1.00  0.00    -0.338 N 
HETATM    2  C   UNL     1      -9.074   2.376 -31.243  1.00  0.00     0.322 C 
HETATM    3  N   UNL     1      -7.967   1.823 -30.673  1.00  0.00    -0.292 N 
HETATM    4  O   UNL     1      -9.793   3.118 -30.577  1.00  0.00    -0.247 OA
HETATM    5  H   UNL     1      -8.640   1.422 -32.959  1.00  0.00     0.164 HD
HETATM    6  H   UNL     1      -7.843   2.072 -29.703  1.00  0.00     0.172 HD
ENDROOT
BRANCH   1   7
HETATM    7  C   UNL     1     -10.538   2.393 -33.254  1.00  0.00     0.086 C 
HETATM    8  C   UNL     1     -10.187   3.182 -34.514  1.00  0.00     0.032 C 
BRANCH   7   9
HETATM    9  C   UNL     1     -11.326   1.119 -33.619  1.00  0.00     0.063 C 
BRANCH   9  10
HETATM   10  C   UNL     1     -12.827   1.298 -33.561  1.00  0.00    -0.056 A 
HETATM   11  C   UNL     1     -13.669   0.490 -34.339  1.00  0.00     0.010 A 
HETATM   12  C   UNL     1     -15.054   0.662 -34.298  1.00  0.00     0.037 A 
HETATM   13  C   UNL     1     -15.598   1.648 -33.482  1.00  0.00     0.065 A 
HETATM   14  C   UNL     1     -14.780   2.464 -32.709  1.00  0.00     0.037 A 
HETATM   15  C   UNL     1     -13.396   2.292 -32.752  1.00  0.00     0.010 A 
BRANCH  13  16
HETATM   16  O   UNL     1     -16.944   1.852 -33.414  1.00  0.00    -0.361 OA
HETATM   17  H   UNL     1     -17.104   2.807 -33.334  1.00  0.00     0.217 HD
ENDBRANCH  13  16
ENDBRANCH   9  10
ENDBRANCH   7   9
ENDBRANCH   1   7
BRANCH   3  18
HETATM   18  C   UNL     1      -7.060   0.946 -31.225  1.00  0.00     0.153 A 
HETATM   19  N   UNL     1      -6.799   0.840 -32.535  1.00  0.00    -0.154 NA
HETATM   20  N   UNL     1      -5.870  -0.137 -32.613  1.00  0.00    -0.275 N 
HETATM   21  C   UNL     1      -5.518  -0.642 -31.393  1.00  0.00     0.116 A 
HETATM   22  C   UNL     1      -6.278   0.040 -30.473  1.00  0.00     0.071 A 
BRANCH  20  23
HETATM   23  C   UNL     1      -5.297  -0.502 -33.902  1.00  0.00     0.189 C 
BRANCH  23  24
HETATM   24  C   UNL     1      -5.465  -1.972 -34.192  1.00  0.00    -0.038 A 
HETATM   25  C   UNL     1      -4.371  -2.845 -34.090  1.00  0.00     0.009 A 
HETATM   26  C   UNL     1      -4.521  -4.205 -34.363  1.00  0.00     0.001 A 
HETATM   27  C   UNL     1      -5.766  -4.708 -34.736  1.00  0.00     0.000 A 
HETATM   28  C   UNL     1      -6.860  -3.851 -34.839  1.00  0.00     0.001 A 
HETATM   29  C   UNL     1      -6.712  -2.490 -34.571  1.00  0.00     0.009 A 
ENDBRANCH  23  24
ENDBRANCH  20  23
ENDBRANCH   3  18
TORSDOF 7
ENDMDL
MODEL 3
REMARK VINA RESULT:      -8.7      2.017      2.517
REMARK  7 active torsions:
REMARK  status: ('A' for Active; 'I' for Inactive)
REMARK    1  A    between atoms: C_2  and  N_3 
REMARK    2  A    between atoms: C_2  and  C_19 
REMARK       I    between atoms: N_3  and  C_4 
REMARK       I    between atoms: C_4  and  N_5 
REMARK    3  A    between atoms: N_5  and  C_6 
REMARK    4  A    between atoms: N_8  and  C_9 
REMARK    5  A    between atoms: C_9  and  C_10 
REMARK    6  A    between atoms: C_19  and  C_20 
REMARK    7  A    between atoms: C_23  and  O_24 
ROOT
HETATM    1  N   UNL     1      -6.549   1.587 -33.652  1.00  0.00    -0.338 N 
HETATM    2  C   UNL     1      -7.738   2.219 -33.824  1.00  0.00     0.322 C 
HETATM    3  N   UNL     1      -7.704   3.579 -33.912  1.00  0.00    -0.292 N 
HETATM    4  O   UNL     1      -8.817   1.634 -33.900  1.00  0.00    -0.247 OA
HETATM    5  H   UNL     1      -5.741   2.204 -33.591  1.00  0.00     0.164 HD
HETATM    6  H   UNL     1      -8.613   4.001 -34.020  1.00  0.00     0.172 HD
ENDROOT
BRANCH   1   7
HETATM    7  C   UNL     1      -6.408   0.173 -33.343  1.00  0.00     0.086 C 
HETATM    8  C   UNL     1      -7.241  -0.155 -32.105  1.00  0.00     0.032 C 
BRANCH   7   9
HETATM    9  C   UNL     1      -6.852  -0.698 -34.536  1.00  0.00     0.063 C 
BRANCH   9  10
HETATM   10  C   UNL     1      -6.242  -2.082 -34.535  1.00  0.00    -0.056 A 
HETATM   11  C   UNL     1      -7.031  -3.205 -34.822  1.00  0.00     0.010 A 
HETATM   12  C   UNL     1      -6.474  -4.486 -34.808  1.00  0.00     0.037 A 
HETATM   13  C   UNL     1      -5.126  -4.643 -34.503  1.00  0.00     0.065 A 
HETATM   14  C   UNL     1      -4.330  -3.543 -34.209  1.00  0.00     0.037 A 
HETATM   15  C   UNL     1      -4.888  -2.264 -34.221  1.00  0.00     0.010 A 
BRANCH  13  16
HETATM   16  O   UNL     1      -4.543  -5.875 -34.475  1.00  0.00    -0.361 OA
HETATM   17  H   UNL     1      -3.643  -5.794 -34.829  1.00  0.00     0.217 HD
ENDBRANCH  13  16
ENDBRANCH   9  10
ENDBRANCH   7   9
ENDBRANCH   1   7
BRANCH   3  18
HETATM   18  C   UNL     1      -6.618   4.421 -33.816  1.00  0.00     0.153 A 
HETATM   19  N   UNL     1      -5.513   4.332 -34.567  1.00  0.00    -0.154 NA
HETATM   20  N   UNL     1      -4.727   5.337 -34.124  1.00  0.00    -0.275 N 
HETATM   21  C   UNL     1      -5.305   6.073 -33.129  1.00  0.00     0.116 A 
HETATM   22  C   UNL     1      -6.533   5.498 -32.904  1.00  0.00     0.071 A 
BRANCH  20  23
HETATM   23  C   UNL     1      -3.436   5.590 -34.753  1.00  0.00     0.189 C 
BRANCH  23  24
HETATM   24  C   UNL     1      -2.363   5.868 -33.732  1.00  0.00    -0.038 A 
HETATM   25  C   UNL     1      -1.866   7.170 -33.562  1.00  0.00     0.009 A 
HETATM   26  C   UNL     1      -0.868   7.431 -32.622  1.00  0.00     0.001 A 
HETATM   27  C   UNL     1      -0.360   6.397 -31.840  1.00  0.00     0.000 A 
HETATM   28  C   UNL     1      -0.846   5.101 -31.998  1.00  0.00     0.001 A 
HETATM   29  C   UNL     1      -1.840   4.835 -32.940  1.00  0.00     0.009 A 
ENDBRANCH  23  24
ENDBRANCH  20  23
ENDBRANCH   3  18
TORSDOF 7
ENDMDL
MODEL 4
REMARK VINA RESULT:      -8.7      1.487      2.208
REMARK  7 active torsions:
REMARK  status: ('A' for Active; 'I' for Inactive)
REMARK    1  A    between atoms: C_2  and  N_3 
REMARK    2  A    between atoms: C_2  and  C_19 
REMARK       I    between atoms: N_3  and  C_4 
REMARK       I    between atoms: C_4  and  N_5 
REMARK    3  A    between atoms: N_5  and  C_6 
REMARK    4  A    between atoms: N_8  and  C_9 
REMARK    5  A    between atoms: C_9  and  C_10 
REMARK    6  A    between atoms: C_19  and  C_20 
REMARK    7  A    between atoms: C_23  and  O_24 
ROOT
HETATM    1  N   UNL     1      -7.036   0.895 -32.454  1.00  0.00    -0.338 N 
HETATM    2  C   UNL     1      -6.364   0.631 -31.303  1.00  0.00     0.322 C 
HETATM    3  N   UNL     1      -5.840   1.700 -30.639  1.00  0.00    -0.292 N 
HETATM    4  O   UNL     1      -6.212  -0.501 -30.847  1.00  0.00    -0.247 OA
HETATM    5  H   UNL     1      -7.067   1.879 -32.714  1.00  0.00     0.164 HD
HETATM    6  H   UNL     1      -5.336   1.450 -29.803  1.00  0.00     0.172 HD
ENDROOT
BRANCH   1   7
HETATM    7  C   UNL     1      -7.490  -0.120 -33.390  1.00  0.00     0.086 C 
HETATM    8  C   UNL     1      -8.773   0.358 -34.066  1.00  0.00     0.032 C 
BRANCH   7   9
HETATM    9  C   UNL     1      -6.406  -0.420 -34.446  1.00  0.00     0.063 C 
BRANCH   9  10
HETATM   10  C   UNL     1      -5.960  -1.865 -34.462  1.00  0.00    -0.056 A 
HETATM   11  C   UNL     1      -4.634  -2.202 -34.151  1.00  0.00     0.010 A 
HETATM   12  C   UNL     1      -4.216  -3.534 -34.179  1.00  0.00     0.037 A 
HETATM   13  C   UNL     1      -5.123  -4.530 -34.522  1.00  0.00     0.065 A 
HETATM   14  C   UNL     1      -6.439  -4.215 -34.840  1.00  0.00     0.037 A 
HETATM   15  C   UNL     1      -6.855  -2.884 -34.813  1.00  0.00     0.010 A 
BRANCH  13  16
HETATM   16  O   UNL     1      -4.756  -5.842 -34.564  1.00  0.00    -0.361 OA
HETATM   17  H   UNL     1      -3.806  -5.899 -34.369  1.00  0.00     0.217 HD
ENDBRANCH  13  16
ENDBRANCH   9  10
ENDBRANCH   7   9
ENDBRANCH   1   7
BRANCH   3  18
HETATM   18  C   UNL     1      -5.865   3.030 -30.993  1.00  0.00     0.153 A 
HETATM   19  N   UNL     1      -5.515   3.509 -32.194  1.00  0.00    -0.154 NA
HETATM   20  N   UNL     1      -5.683   4.844 -32.084  1.00  0.00    -0.275 N 
HETATM   21  C   UNL     1      -6.147   5.228 -30.858  1.00  0.00     0.116 A 
HETATM   22  C   UNL     1      -6.271   4.071 -30.126  1.00  0.00     0.071 A 
BRANCH  20  23
HETATM   23  C   UNL     1      -5.443   5.710 -33.231  1.00  0.00     0.189 C 
BRANCH  23  24
HETATM   24  C   UNL     1      -3.975   5.811 -33.558  1.00  0.00    -0.038 A 
HETATM   25  C   UNL     1      -3.448   5.137 -34.672  1.00  0.00     0.009 A 
HETATM   26  C   UNL     1      -2.089   5.224 -34.975  1.00  0.00     0.001 A 
HETATM   27  C   UNL     1      -1.243   5.987 -34.173  1.00  0.00     0.000 A 
HETATM   28  C   UNL     1      -1.754   6.662 -33.066  1.00  0.00     0.001 A 
HETATM   29  C   UNL     1      -3.112   6.574 -32.758  1.00  0.00     0.009 A 
ENDBRANCH  23  24
ENDBRANCH  20  23
ENDBRANCH   3  18
TORSDOF 7
ENDMDL
MODEL 5
REMARK VINA RESULT:      -8.7      2.437      3.239
REMARK  7 active torsions:
REMARK  status: ('A' for Active; 'I' for Inactive)
REMARK    1  A    between atoms: C_2  and  N_3 
REMARK    2  A    between atoms: C_2  and  C_19 
REMARK       I    between atoms: N_3  and  C_4 
REMARK       I    between atoms: C_4  and  N_5 
REMARK    3  A    between atoms: N_5  and  C_6 
REMARK    4  A    between atoms: N_8  and  C_9 
REMARK    5  A    between atoms: C_9  and  C_10 
REMARK    6  A    between atoms: C_19  and  C_20 
REMARK    7  A    between atoms: C_23  and  O_24 
ROOT
HETATM    1  N   UNL     1      -8.122   0.702 -32.933  1.00  0.00    -0.338 N 
HETATM    2  C   UNL     1      -9.270   0.530 -32.228  1.00  0.00     0.322 C 
HETATM    3  N   UNL     1      -9.481   1.381 -31.184  1.00  0.00    -0.292 N 
HETATM    4  O   UNL     1     -10.103  -0.337 -32.482  1.00  0.00    -0.247 OA
HETATM    5  H   UNL     1      -7.521   1.451 -32.596  1.00  0.00     0.164 HD
HETATM    6  H   UNL     1     -10.336   1.200 -30.681  1.00  0.00     0.172 HD
ENDROOT
BRANCH   1   7
HETATM    7  C   UNL     1      -7.635  -0.222 -33.945  1.00  0.00     0.086 C 
HETATM    8  C   UNL     1      -7.896   0.369 -35.330  1.00  0.00     0.032 C 
BRANCH   7   9
HETATM    9  C   UNL     1      -6.131  -0.504 -33.755  1.00  0.00     0.063 C 
BRANCH   9  10
HETATM   10  C   UNL     1      -5.746  -1.941 -34.029  1.00  0.00    -0.056 A 
HETATM   11  C   UNL     1      -6.679  -2.834 -34.576  1.00  0.00     0.010 A 
HETATM   12  C   UNL     1      -6.330  -4.165 -34.816  1.00  0.00     0.037 A 
HETATM   13  C   UNL     1      -5.047  -4.604 -34.505  1.00  0.00     0.065 A 
HETATM   14  C   UNL     1      -4.112  -3.736 -33.956  1.00  0.00     0.037 A 
HETATM   15  C   UNL     1      -4.462  -2.407 -33.714  1.00  0.00     0.010 A 
BRANCH  13  16
HETATM   16  O   UNL     1      -4.667  -5.895 -34.721  1.00  0.00    -0.361 OA
HETATM   17  H   UNL     1      -5.468  -6.439 -34.800  1.00  0.00     0.217 HD
ENDBRANCH  13  16
ENDBRANCH   9  10
ENDBRANCH   7   9
ENDBRANCH   1   7
BRANCH   3  18
HETATM   18  C   UNL     1      -8.666   2.386 -30.713  1.00  0.00     0.153 A 
HETATM   19  N   UNL     1      -7.351   2.262 -30.490  1.00  0.00    -0.154 NA
HETATM   20  N   UNL     1      -6.975   3.475 -30.029  1.00  0.00    -0.275 N 
HETATM   21  C   UNL     1      -8.005   4.370 -29.970  1.00  0.00     0.116 A 
HETATM   22  C   UNL     1      -9.117   3.690 -30.404  1.00  0.00     0.071 A 
BRANCH  20  23
HETATM   23  C   UNL     1      -5.576   3.740 -29.720  1.00  0.00     0.189 C 
BRANCH  23  24
HETATM   24  C   UNL     1      -4.759   3.954 -30.968  1.00  0.00    -0.038 A 
HETATM   25  C   UNL     1      -4.886   5.143 -31.704  1.00  0.00     0.009 A 
HETATM   26  C   UNL     1      -4.135   5.342 -32.863  1.00  0.00     0.001 A 
HETATM   27  C   UNL     1      -3.247   4.361 -33.297  1.00  0.00     0.000 A 
HETATM   28  C   UNL     1      -3.110   3.177 -32.574  1.00  0.00     0.001 A 
HETATM   29  C   UNL     1      -3.863   2.972 -31.417  1.00  0.00     0.009 A 
ENDBRANCH  23  24
ENDBRANCH  20  23
ENDBRANCH   3  18
TORSDOF 7
ENDMDL
MODEL 6
REMARK VINA RESULT:      -8.2      2.968      7.744
REMARK  7 active torsions:
REMARK  status: ('A' for Active; 'I' for Inactive)
REMARK    1  A    between atoms: C_2  and  N_3 
REMARK    2  A    between atoms: C_2  and  C_19 
REMARK       I    between atoms: N_3  and  C_4 
REMARK       I    between atoms: C_4  and  N_5 
REMARK    3  A    between atoms: N_5  and  C_6 
REMARK    4  A    between atoms: N_8  and  C_9 
REMARK    5  A    between atoms: C_9  and  C_10 
REMARK    6  A    between atoms: C_19  and  C_20 
REMARK    7  A    between atoms: C_23  and  O_24 
ROOT
HETATM    1  N   UNL     1      -4.091   3.660 -32.810  1.00  0.00    -0.338 N 
HETATM    2  C   UNL     1      -3.196   3.171 -31.914  1.00  0.00     0.322 C 
HETATM    3  N   UNL     1      -3.375   1.881 -31.510  1.00  0.00    -0.292 N 
HETATM    4  O   UNL     1      -2.256   3.823 -31.462  1.00  0.00    -0.247 OA
HETATM    5  H   UNL     1      -4.824   3.009 -33.083  1.00  0.00     0.164 HD
HETATM    6  H   UNL     1      -2.696   1.571 -30.831  1.00  0.00     0.172 HD
ENDROOT
BRANCH   1   7
HETATM    7  C   UNL     1      -4.177   5.058 -33.203  1.00  0.00     0.086 C 
HETATM    8  C   UNL     1      -3.797   5.189 -34.677  1.00  0.00     0.032 C 
BRANCH   7   9
HETATM    9  C   UNL     1      -5.596   5.611 -32.962  1.00  0.00     0.063 C 
BRANCH   9  10
HETATM   10  C   UNL     1      -6.554   4.591 -32.387  1.00  0.00    -0.056 A 
HETATM   11  C   UNL     1      -6.808   4.554 -31.008  1.00  0.00     0.010 A 
HETATM   12  C   UNL     1      -7.681   3.604 -30.473  1.00  0.00     0.037 A 
HETATM   13  C   UNL     1      -8.297   2.687 -31.318  1.00  0.00     0.065 A 
HETATM   14  C   UNL     1      -8.052   2.703 -32.685  1.00  0.00     0.037 A 
HETATM   15  C   UNL     1      -7.179   3.651 -33.219  1.00  0.00     0.010 A 
BRANCH  13  16
HETATM   16  O   UNL     1      -9.153   1.742 -30.836  1.00  0.00    -0.361 OA
HETATM   17  H   UNL     1      -9.691   2.146 -30.136  1.00  0.00     0.217 HD
ENDBRANCH  13  16
ENDBRANCH   9  10
ENDBRANCH   7   9
ENDBRANCH   1   7
BRANCH   3  18
HETATM   18  C   UNL     1      -4.372   0.999 -31.862  1.00  0.00     0.153 A 
HETATM   19  N   UNL     1      -4.710   0.690 -33.120  1.00  0.00    -0.154 NA
HETATM   20  N   UNL     1      -5.727  -0.189 -32.987  1.00  0.00    -0.275 N 
HETATM   21  C   UNL     1      -6.033  -0.463 -31.684  1.00  0.00     0.116 A 
HETATM   22  C   UNL     1      -5.172   0.298 -30.930  1.00  0.00     0.071 A 
BRANCH  20  23
HETATM   23  C   UNL     1      -6.331  -0.796 -34.166  1.00  0.00     0.189 C 
BRANCH  23  24
HETATM   24  C   UNL     1      -5.924  -2.239 -34.323  1.00  0.00    -0.038 A 
HETATM   25  C   UNL     1      -6.866  -3.204 -34.713  1.00  0.00     0.009 A 
HETATM   26  C   UNL     1      -6.495  -4.541 -34.854  1.00  0.00     0.001 A 
HETATM   27  C   UNL     1      -5.179  -4.929 -34.613  1.00  0.00     0.000 A 
HETATM   28  C   UNL     1      -4.233  -3.980 -34.227  1.00  0.00     0.001 A 
HETATM   29  C   UNL     1      -4.603  -2.643 -34.080  1.00  0.00     0.009 A 
ENDBRANCH  23  24
ENDBRANCH  20  23
ENDBRANCH   3  18
TORSDOF 7
ENDMDL
MODEL 7
REMARK VINA RESULT:      -8.2      3.262      6.422
REMARK  7 active torsions:
REMARK  status: ('A' for Active; 'I' for Inactive)
REMARK    1  A    between atoms: C_2  and  N_3 
REMARK    2  A    between atoms: C_2  and  C_19 
REMARK       I    between atoms: N_3  and  C_4 
REMARK       I    between atoms: C_4  and  N_5 
REMARK    3  A    between atoms: N_5  and  C_6 
REMARK    4  A    between atoms: N_8  and  C_9 
REMARK    5  A    between atoms: C_9  and  C_10 
REMARK    6  A    between atoms: C_19  and  C_20 
REMARK    7  A    between atoms: C_23  and  O_24 
ROOT
HETATM    1  N   UNL     1      -6.041   1.836 -32.689  1.00  0.00    -0.338 N 
HETATM    2  C   UNL     1      -5.106   2.819 -32.623  1.00  0.00     0.322 C 
HETATM    3  N   UNL     1      -5.557   4.101 -32.727  1.00  0.00    -0.292 N 
HETATM    4  O   UNL     1      -3.904   2.609 -32.478  1.00  0.00    -0.247 OA
HETATM    5  H   UNL     1      -6.996   2.161 -32.826  1.00  0.00     0.164 HD
HETATM    6  H   UNL     1      -4.824   4.793 -32.691  1.00  0.00     0.172 HD
ENDROOT
BRANCH   1   7
HETATM    7  C   UNL     1      -5.734   0.418 -32.794  1.00  0.00     0.086 C 
HETATM    8  C   UNL     1      -6.301  -0.309 -31.576  1.00  0.00     0.032 C 
BRANCH   7   9
HETATM    9  C   UNL     1      -6.313  -0.176 -34.093  1.00  0.00     0.063 C 
BRANCH   9  10
HETATM   10  C   UNL     1      -5.977  -1.637 -34.293  1.00  0.00    -0.056 A 
HETATM   11  C   UNL     1      -6.991  -2.570 -34.556  1.00  0.00     0.010 A 
HETATM   12  C   UNL     1      -6.685  -3.922 -34.726  1.00  0.00     0.037 A 
HETATM   13  C   UNL     1      -5.363  -4.343 -34.629  1.00  0.00     0.065 A 
HETATM   14  C   UNL     1      -4.346  -3.435 -34.362  1.00  0.00     0.037 A 
HETATM   15  C   UNL     1      -4.652  -2.085 -34.191  1.00  0.00     0.010 A 
BRANCH  13  16
HETATM   16  O   UNL     1      -5.022  -5.653 -34.786  1.00  0.00    -0.361 OA
HETATM   17  H   UNL     1      -4.110  -5.693 -35.118  1.00  0.00     0.217 HD
ENDBRANCH  13  16
ENDBRANCH   9  10
ENDBRANCH   7   9
ENDBRANCH   1   7
BRANCH   3  18
HETATM   18  C   UNL     1      -6.844   4.549 -32.927  1.00  0.00     0.153 A 
HETATM   19  N   UNL     1      -7.495   4.503 -34.097  1.00  0.00    -0.154 NA
HETATM   20  N   UNL     1      -8.700   5.051 -33.830  1.00  0.00    -0.275 N 
HETATM   21  C   UNL     1      -8.842   5.427 -32.524  1.00  0.00     0.116 A 
HETATM   22  C   UNL     1      -7.650   5.116 -31.914  1.00  0.00     0.071 A 
BRANCH  20  23
HETATM   23  C   UNL     1      -9.718   5.128 -34.870  1.00  0.00     0.189 C 
BRANCH  23  24
HETATM   24  C   UNL     1     -10.557   3.877 -34.923  1.00  0.00    -0.038 A 
HETATM   25  C   UNL     1     -10.118   2.700 -34.297  1.00  0.00     0.009 A 
HETATM   26  C   UNL     1     -10.890   1.539 -34.349  1.00  0.00     0.001 A 
HETATM   27  C   UNL     1     -12.110   1.542 -35.022  1.00  0.00     0.000 A 
HETATM   28  C   UNL     1     -12.558   2.704 -35.646  1.00  0.00     0.001 A 
HETATM   29  C   UNL     1     -11.786   3.866 -35.600  1.00  0.00     0.009 A 
ENDBRANCH  23  24
ENDBRANCH  20  23
ENDBRANCH   3  18
TORSDOF 7
ENDMDL
MODEL 8
REMARK VINA RESULT:      -8.1      3.077      8.437
REMARK  7 active torsions:
REMARK  status: ('A' for Active; 'I' for Inactive)
REMARK    1  A    between atoms: C_2  and  N_3 
REMARK    2  A    between atoms: C_2  and  C_19 
REMARK       I    between atoms: N_3  and  C_4 
REMARK       I    between atoms: C_4  and  N_5 
REMARK    3  A    between atoms: N_5  and  C_6 
REMARK    4  A    between atoms: N_8  and  C_9 
REMARK    5  A    between atoms: C_9  and  C_10 
REMARK    6  A    between atoms: C_19  and  C_20 
REMARK    7  A    between atoms: C_23  and  O_24 
ROOT
HETATM    1  N   UNL     1      -6.231   3.980 -33.454  1.00  0.00    -0.338 N 
HETATM    2  C   UNL     1      -7.553   3.670 -33.460  1.00  0.00     0.322 C 
HETATM    3  N   UNL     1      -7.883   2.382 -33.159  1.00  0.00    -0.292 N 
HETATM    4  O   UNL     1      -8.442   4.479 -33.719  1.00  0.00    -0.247 OA
HETATM    5  H   UNL     1      -5.610   3.202 -33.236  1.00  0.00     0.164 HD
HETATM    6  H   UNL     1      -8.874   2.198 -33.196  1.00  0.00     0.172 HD
ENDROOT
BRANCH   1   7
HETATM    7  C   UNL     1      -5.681   5.236 -33.935  1.00  0.00     0.086 C 
HETATM    8  C   UNL     1      -5.487   6.184 -32.753  1.00  0.00     0.032 C 
BRANCH   7   9
HETATM    9  C   UNL     1      -4.342   5.008 -34.666  1.00  0.00     0.063 C 
BRANCH   9  10
HETATM   10  C   UNL     1      -3.130   5.361 -33.833  1.00  0.00    -0.056 A 
HETATM   11  C   UNL     1      -2.374   6.505 -34.129  1.00  0.00     0.010 A 
HETATM   12  C   UNL     1      -1.246   6.825 -33.371  1.00  0.00     0.037 A 
HETATM   13  C   UNL     1      -0.871   5.998 -32.318  1.00  0.00     0.065 A 
HETATM   14  C   UNL     1      -1.603   4.857 -32.014  1.00  0.00     0.037 A 
HETATM   15  C   UNL     1      -2.728   4.536 -32.773  1.00  0.00     0.010 A 
BRANCH  13  16
HETATM   16  O   UNL     1       0.225   6.273 -31.554  1.00  0.00    -0.361 OA
HETATM   17  H   UNL     1       0.792   6.890 -32.046  1.00  0.00     0.217 HD
ENDBRANCH  13  16
ENDBRANCH   9  10
ENDBRANCH   7   9
ENDBRANCH   1   7
BRANCH   3  18
HETATM   18  C   UNL     1      -7.049   1.322 -32.879  1.00  0.00     0.153 A 
HETATM   19  N   UNL     1      -6.146   0.815 -33.727  1.00  0.00    -0.154 NA
HETATM   20  N   UNL     1      -5.577  -0.201 -33.043  1.00  0.00    -0.275 N 
HETATM   21  C   UNL     1      -6.078  -0.344 -31.780  1.00  0.00     0.116 A 
HETATM   22  C   UNL     1      -7.039   0.630 -31.646  1.00  0.00     0.071 A 
BRANCH  20  23
HETATM   23  C   UNL     1      -4.493  -0.970 -33.638  1.00  0.00     0.189 C 
BRANCH  23  24
HETATM   24  C   UNL     1      -4.947  -2.344 -34.060  1.00  0.00    -0.038 A 
HETATM   25  C   UNL     1      -4.107  -3.455 -33.881  1.00  0.00     0.009 A 
HETATM   26  C   UNL     1      -4.522  -4.728 -34.274  1.00  0.00     0.001 A 
HETATM   27  C   UNL     1      -5.780  -4.905 -34.845  1.00  0.00     0.000 A 
HETATM   28  C   UNL     1      -6.624  -3.811 -35.027  1.00  0.00     0.001 A 
HETATM   29  C   UNL     1      -6.210  -2.536 -34.639  1.00  0.00     0.009 A 
ENDBRANCH  23  24
ENDBRANCH  20  23
ENDBRANCH   3  18
TORSDOF 7
ENDMDL
MODEL 9
REMARK VINA RESULT:      -8.0      1.640      2.708
REMARK  7 active torsions:
REMARK  status: ('A' for Active; 'I' for Inactive)
REMARK    1  A    between atoms: C_2  and  N_3 
REMARK    2  A    between atoms: C_2  and  C_19 
REMARK       I    between atoms: N_3  and  C_4 
REMARK       I    between atoms: C_4  and  N_5 
REMARK    3  A    between atoms: N_5  and  C_6 
REMARK    4  A    between atoms: N_8  and  C_9 
REMARK    5  A    between atoms: C_9  and  C_10 
REMARK    6  A    between atoms: C_19  and  C_20 
REMARK    7  A    between atoms: C_23  and  O_24 
ROOT
HETATM    1  N   UNL     1      -4.368   1.739 -32.686  1.00  0.00    -0.338 N 
HETATM    2  C   UNL     1      -5.258   2.740 -32.463  1.00  0.00     0.322 C 
HETATM    3  N   UNL     1      -4.762   4.010 -32.444  1.00  0.00    -0.292 N 
HETATM    4  O   UNL     1      -6.460   2.556 -32.281  1.00  0.00    -0.247 OA
HETATM    5  H   UNL     1      -3.403   2.043 -32.803  1.00  0.00     0.164 HD
HETATM    6  H   UNL     1      -5.458   4.714 -32.256  1.00  0.00     0.172 HD
ENDROOT
BRANCH   1   7
HETATM    7  C   UNL     1      -4.673   0.324 -32.548  1.00  0.00     0.086 C 
HETATM    8  C   UNL     1      -5.293   0.076 -31.174  1.00  0.00     0.032 C 
BRANCH   7   9
HETATM    9  C   UNL     1      -5.631  -0.143 -33.662  1.00  0.00     0.063 C 
BRANCH   9  10
HETATM   10  C   UNL     1      -5.497  -1.611 -33.999  1.00  0.00    -0.056 A 
HETATM   11  C   UNL     1      -6.591  -2.325 -34.512  1.00  0.00     0.010 A 
HETATM   12  C   UNL     1      -6.475  -3.684 -34.810  1.00  0.00     0.037 A 
HETATM   13  C   UNL     1      -5.263  -4.332 -34.592  1.00  0.00     0.065 A 
HETATM   14  C   UNL     1      -4.171  -3.644 -34.079  1.00  0.00     0.037 A 
HETATM   15  C   UNL     1      -4.289  -2.287 -33.779  1.00  0.00     0.010 A 
BRANCH  13  16
HETATM   16  O   UNL     1      -5.108  -5.658 -34.867  1.00  0.00    -0.361 OA
HETATM   17  H   UNL     1      -5.237  -5.788 -35.821  1.00  0.00     0.217 HD
ENDBRANCH  13  16
ENDBRANCH   9  10
ENDBRANCH   7   9
ENDBRANCH   1   7
BRANCH   3  18
HETATM   18  C   UNL     1      -3.457   4.427 -32.586  1.00  0.00     0.153 A 
HETATM   19  N   UNL     1      -2.518   4.338 -31.636  1.00  0.00    -0.154 NA
HETATM   20  N   UNL     1      -1.415   4.870 -32.205  1.00  0.00    -0.275 N 
HETATM   21  C   UNL     1      -1.618   5.277 -33.493  1.00  0.00     0.116 A 
HETATM   22  C   UNL     1      -2.937   5.006 -33.767  1.00  0.00     0.071 A 
BRANCH  20  23
HETATM   23  C   UNL     1      -0.154   4.899 -31.475  1.00  0.00     0.189 C 
BRANCH  23  24
HETATM   24  C   UNL     1      -0.180   5.907 -30.355  1.00  0.00    -0.038 A 
HETATM   25  C   UNL     1      -0.818   7.146 -30.530  1.00  0.00     0.009 A 
HETATM   26  C   UNL     1      -0.840   8.084 -29.498  1.00  0.00     0.001 A 
HETATM   27  C   UNL     1      -0.230   7.795 -28.279  1.00  0.00     0.000 A 
HETATM   28  C   UNL     1       0.406   6.569 -28.092  1.00  0.00     0.001 A 
HETATM   29  C   UNL     1       0.433   5.630 -29.124  1.00  0.00     0.009 A 
ENDBRANCH  23  24
ENDBRANCH  20  23
ENDBRANCH   3  18
TORSDOF 7
ENDMDL
MODEL 10
REMARK VINA RESULT:      -8.0      1.752      2.295
REMARK  7 active torsions:
REMARK  status: ('A' for Active; 'I' for Inactive)
REMARK    1  A    between atoms: C_2  and  N_3 
REMARK    2  A    between atoms: C_2  and  C_19 
REMARK       I    between atoms: N_3  and  C_4 
REMARK       I    between atoms: C_4  and  N_5 
REMARK    3  A    between atoms: N_5  and  C_6 
REMARK    4  A    between atoms: N_8  and  C_9 
REMARK    5  A    between atoms: C_9  and  C_10 
REMARK    6  A    between atoms: C_19  and  C_20 
REMARK    7  A    between atoms: C_23  and  O_24 
ROOT
HETATM    1  N   UNL     1      -7.075   1.115 -32.868  1.00  0.00    -0.338 N 
HETATM    2  C   UNL     1      -7.776   1.353 -31.729  1.00  0.00     0.322 C 
HETATM    3  N   UNL     1      -7.309   2.342 -30.916  1.00  0.00    -0.292 N 
HETATM    4  O   UNL     1      -8.787   0.731 -31.408  1.00  0.00    -0.247 OA
HETATM    5  H   UNL     1      -6.251   1.700 -32.993  1.00  0.00     0.164 HD
HETATM    6  H   UNL     1      -7.852   2.467 -30.076  1.00  0.00     0.172 HD
ENDROOT
BRANCH   1   7
HETATM    7  C   UNL     1      -7.304  -0.017 -33.751  1.00  0.00     0.086 C 
HETATM    8  C   UNL     1      -8.408   0.338 -34.746  1.00  0.00     0.032 C 
BRANCH   7   9
HETATM    9  C   UNL     1      -6.011  -0.404 -34.497  1.00  0.00     0.063 C 
BRANCH   9  10
HETATM   10  C   UNL     1      -5.050  -1.219 -33.660  1.00  0.00    -0.056 A 
HETATM   11  C   UNL     1      -4.730  -2.534 -34.026  1.00  0.00     0.010 A 
HETATM   12  C   UNL     1      -3.854  -3.294 -33.248  1.00  0.00     0.037 A 
HETATM   13  C   UNL     1      -3.301  -2.738 -32.099  1.00  0.00     0.065 A 
HETATM   14  C   UNL     1      -3.611  -1.439 -31.717  1.00  0.00     0.037 A 
HETATM   15  C   UNL     1      -4.488  -0.681 -32.494  1.00  0.00     0.010 A 
BRANCH  13  16
HETATM   16  O   UNL     1      -2.443  -3.445 -31.310  1.00  0.00    -0.361 OA
HETATM   17  H   UNL     1      -1.569  -3.024 -31.355  1.00  0.00     0.217 HD
ENDBRANCH  13  16
ENDBRANCH   9  10
ENDBRANCH   7   9
ENDBRANCH   1   7
BRANCH   3  18
HETATM   18  C   UNL     1      -6.187   3.126 -31.070  1.00  0.00     0.153 A 
HETATM   19  N   UNL     1      -4.930   2.665 -31.089  1.00  0.00    -0.154 NA
HETATM   20  N   UNL     1      -4.170   3.771 -31.247  1.00  0.00    -0.275 N 
HETATM   21  C   UNL     1      -4.906   4.917 -31.349  1.00  0.00     0.116 A 
HETATM   22  C   UNL     1      -6.220   4.530 -31.233  1.00  0.00     0.071 A 
BRANCH  20  23
HETATM   23  C   UNL     1      -2.723   3.656 -31.364  1.00  0.00     0.189 C 
BRANCH  23  24
HETATM   24  C   UNL     1      -2.168   4.602 -32.399  1.00  0.00    -0.038 A 
HETATM   25  C   UNL     1      -1.480   5.760 -32.005  1.00  0.00     0.009 A 
HETATM   26  C   UNL     1      -0.970   6.641 -32.959  1.00  0.00     0.001 A 
HETATM   27  C   UNL     1      -1.137   6.372 -34.316  1.00  0.00     0.000 A 
HETATM   28  C   UNL     1      -1.817   5.225 -34.720  1.00  0.00     0.001 A 
HETATM   29  C   UNL     1      -2.333   4.344 -33.768  1.00  0.00     0.009 A 
ENDBRANCH  23  24
ENDBRANCH  20  23
ENDBRANCH   3  18
TORSDOF 7
ENDMDL
