MODEL 1
REMARK VINA RESULT:      -8.6      0.000      0.000
REMARK  10 active torsions:
REMARK  status: ('A' for Active; 'I' for Inactive)
REMARK    1  A    between atoms: C_2  and  C_3 
REMARK    2  A    between atoms: C_3  and  C_4 
REMARK    3  A    between atoms: N_7  and  C_9 
REMARK    4  A    between atoms: C_9  and  C_10 
REMARK    5  A    between atoms: C_12  and  O_13 
REMARK    6  A    between atoms: O_13  and  C_14 
REMARK    7  A    between atoms: C_16  and  O_17 
REMARK    8  A    between atoms: N_25  and  C_26 
REMARK    9  A    between atoms: C_26  and  C_27 
REMARK   10  A    between atoms: C_27  and  C_28 
ROOT
HETATM    1  C   UNL     1      -6.552   2.365 -30.328  1.00  0.00     0.026 C 
HETATM    2  C   UNL     1      -7.496   3.565 -30.132  1.00  0.00     0.035 C 
HETATM    3  C   UNL     1      -7.323   4.687 -31.155  1.00  0.00     0.235 C 
HETATM    4  N   UNL     1      -5.882   5.128 -31.240  1.00  0.00    -0.067 N 
HETATM    5  H   UNL     1      -5.659   5.573 -30.341  1.00  0.00     0.280 HD
HETATM    6  C   UNL     1      -4.909   3.994 -31.453  1.00  0.00     0.235 C 
HETATM    7  C   UNL     1      -5.110   2.906 -30.415  1.00  0.00     0.035 C 
ENDROOT
BRANCH   1   8
HETATM    8  C   UNL     1      -6.989   1.391 -31.467  1.00  0.00     0.119 C 
HETATM    9  N   UNL     1      -7.069   2.036 -32.767  1.00  0.00    -0.324 N 
HETATM   10  C   UNL     1      -6.430   1.290 -33.737  1.00  0.00     0.326 C 
HETATM   11  H   UNL     1      -7.915   2.480 -33.110  1.00  0.00     0.165 HD
HETATM   12  O   UNL     1      -6.590   1.496 -34.925  1.00  0.00    -0.247 OA
HETATM   13  N   UNL     1      -5.662   0.348 -33.137  1.00  0.00    -0.268 N 
HETATM   14  C   UNL     1      -5.905   0.332 -31.790  1.00  0.00     0.256 C 
HETATM   15  O   UNL     1      -5.386  -0.406 -30.965  1.00  0.00    -0.270 OA
BRANCH   8  16
HETATM   16  C   UNL     1      -8.334   0.659 -31.221  1.00  0.00     0.037 C 
HETATM   17  C   UNL     1      -9.434   0.929 -32.240  1.00  0.00     0.008 C 
ENDBRANCH   8  16
BRANCH  13  18
HETATM   18  C   UNL     1      -4.912  -0.672 -33.854  1.00  0.00     0.142 C 
BRANCH  18  19
HETATM   19  C   UNL     1      -5.799  -1.786 -34.422  1.00  0.00     0.068 C 
BRANCH  19  20
HETATM   20  C   UNL     1      -5.164  -3.128 -34.245  1.00  0.00     0.010 A 
HETATM   21  S   UNL     1      -3.736  -3.312 -33.311  1.00  0.00    -0.085 SA
HETATM   22  C   UNL     1      -3.759  -4.992 -33.634  1.00  0.00     0.166 A 
HETATM   23  N   UNL     1      -4.750  -5.421 -34.383  1.00  0.00    -0.258 NA
HETATM   24  C   UNL     1      -5.562  -4.360 -34.746  1.00  0.00     0.044 A 
HETATM   25  C   UNL     1      -6.746  -4.641 -35.603  1.00  0.00     0.071 C 
ENDBRANCH  19  20
ENDBRANCH  18  19
ENDBRANCH  13  18
ENDBRANCH   1   8
BRANCH   4  26
HETATM   26  C   UNL     1      -5.639   6.191 -32.305  1.00  0.00     0.273 C 
BRANCH  26  27
HETATM   27  C   UNL     1      -4.394   6.003 -33.127  1.00  0.00    -0.030 A 
HETATM   28  C   UNL     1      -3.175   6.560 -32.687  1.00  0.00     0.048 A 
HETATM   29  C   UNL     1      -2.004   6.379 -33.421  1.00  0.00     0.102 A 
HETATM   30  C   UNL     1      -2.063   5.633 -34.601  1.00  0.00     0.099 A 
HETATM   31  C   UNL     1      -3.254   5.079 -35.054  1.00  0.00     0.040 A 
HETATM   32  C   UNL     1      -4.423   5.262 -34.319  1.00  0.00     0.012 A 
BRANCH  29  33
HETATM   33  O   UNL     1      -0.764   6.862 -33.098  1.00  0.00    -0.349 OA
BRANCH  33  34
HETATM   34  C   UNL     1      -0.472   7.050 -31.713  1.00  0.00     0.171 C 
HETATM   35  C   UNL     1       0.233   5.808 -31.202  1.00  0.00     0.034 C 
ENDBRANCH  33  34
ENDBRANCH  29  33
BRANCH  30  36
HETATM   36  O   UNL     1      -0.938   5.431 -35.349  1.00  0.00    -0.358 OA
HETATM   37  H   UNL     1      -0.666   4.508 -35.183  1.00  0.00     0.218 HD
ENDBRANCH  30  36
ENDBRANCH  26  27
ENDBRANCH   4  26
TORSDOF 10
ENDMDL
MODEL 2
REMARK VINA RESULT:      -8.5      2.320      4.473
REMARK  10 active torsions:
REMARK  status: ('A' for Active; 'I' for Inactive)
REMARK    1  A    between atoms: C_2  and  C_3 
REMARK    2  A    between atoms: C_3  and  C_4 
REMARK    3  A    between atoms: N_7  and  C_9 
REMARK    4  A    between atoms: C_9  and  C_10 
REMARK    5  A    between atoms: C_12  and  O_13 
REMARK    6  A    between atoms: O_13  and  C_14 
REMARK    7  A    between atoms: C_16  and  O_17 
REMARK    8  A    between atoms: N_25  and  C_26 
REMARK    9  A    between atoms: C_26  and  C_27 
REMARK   10  A    between atoms: C_27  and  C_28 
ROOT
HETATM    1  C   UNL     1      -5.121   5.113 -33.602  1.00  0.00     0.026 C 
HETATM    2  C   UNL     1      -4.185   5.134 -34.824  1.00  0.00     0.035 C 
HETATM    3  C   UNL     1      -2.733   5.491 -34.509  1.00  0.00     0.235 C 
HETATM    4  N   UNL     1      -2.646   6.778 -33.727  1.00  0.00    -0.067 N 
HETATM    5  H   UNL     1      -2.956   7.526 -34.360  1.00  0.00     0.280 HD
HETATM    6  C   UNL     1      -3.529   6.809 -32.504  1.00  0.00     0.235 C 
HETATM    7  C   UNL     1      -4.961   6.455 -32.859  1.00  0.00     0.035 C 
ENDROOT
BRANCH   1   8
HETATM    8  C   UNL     1      -4.997   3.826 -32.727  1.00  0.00     0.119 C 
HETATM    9  N   UNL     1      -5.388   4.040 -31.343  1.00  0.00    -0.324 N 
HETATM   10  C   UNL     1      -6.243   3.048 -30.906  1.00  0.00     0.326 C 
HETATM   11  H   UNL     1      -4.733   4.335 -30.626  1.00  0.00     0.165 HD
HETATM   12  O   UNL     1      -6.488   2.877 -29.726  1.00  0.00    -0.247 OA
HETATM   13  N   UNL     1      -6.702   2.355 -31.976  1.00  0.00    -0.268 N 
HETATM   14  C   UNL     1      -6.040   2.746 -33.108  1.00  0.00     0.256 C 
HETATM   15  O   UNL     1      -6.209   2.310 -34.237  1.00  0.00    -0.270 OA
BRANCH   8  16
HETATM   16  C   UNL     1      -3.591   3.171 -32.723  1.00  0.00     0.037 C 
HETATM   17  C   UNL     1      -2.843   3.210 -31.397  1.00  0.00     0.008 C 
ENDBRANCH   8  16
BRANCH  13  18
HETATM   18  C   UNL     1      -7.561   1.184 -31.882  1.00  0.00     0.142 C 
BRANCH  18  19
HETATM   19  C   UNL     1      -6.874  -0.015 -31.219  1.00  0.00     0.068 C 
BRANCH  19  20
HETATM   20  C   UNL     1      -5.746  -0.526 -32.057  1.00  0.00     0.010 A 
HETATM   21  S   UNL     1      -4.119  -0.376 -31.532  1.00  0.00    -0.085 SA
HETATM   22  C   UNL     1      -3.600  -1.155 -32.964  1.00  0.00     0.166 A 
HETATM   23  N   UNL     1      -4.548  -1.517 -33.798  1.00  0.00    -0.258 NA
HETATM   24  C   UNL     1      -5.785  -1.157 -33.292  1.00  0.00     0.044 A 
HETATM   25  C   UNL     1      -6.995  -1.479 -34.098  1.00  0.00     0.071 C 
ENDBRANCH  19  20
ENDBRANCH  18  19
ENDBRANCH  13  18
ENDBRANCH   1   8
BRANCH   4  26
HETATM   26  C   UNL     1      -1.223   7.139 -33.316  1.00  0.00     0.273 C 
BRANCH  26  27
HETATM   27  C   UNL     1      -0.797   6.631 -31.967  1.00  0.00    -0.030 A 
HETATM   28  C   UNL     1      -1.052   7.406 -30.816  1.00  0.00     0.048 A 
HETATM   29  C   UNL     1      -0.686   6.945 -29.552  1.00  0.00     0.102 A 
HETATM   30  C   UNL     1      -0.062   5.699 -29.450  1.00  0.00     0.099 A 
HETATM   31  C   UNL     1       0.202   4.922 -30.572  1.00  0.00     0.040 A 
HETATM   32  C   UNL     1      -0.164   5.385 -31.834  1.00  0.00     0.012 A 
BRANCH  29  33
HETATM   33  O   UNL     1      -0.883   7.596 -28.364  1.00  0.00    -0.349 OA
BRANCH  33  34
HETATM   34  C   UNL     1      -0.240   8.860 -28.193  1.00  0.00     0.171 C 
HETATM   35  C   UNL     1       1.181   8.610 -27.723  1.00  0.00     0.034 C 
ENDBRANCH  33  34
ENDBRANCH  29  33
BRANCH  30  36
HETATM   36  O   UNL     1       0.312   5.209 -28.231  1.00  0.00    -0.358 OA
HETATM   37  H   UNL     1       0.089   4.258 -28.243  1.00  0.00     0.218 HD
ENDBRANCH  30  36
ENDBRANCH  26  27
ENDBRANCH   4  26
TORSDOF 10
ENDMDL
MODEL 3
REMARK VINA RESULT:      -8.5      4.310      7.879
REMARK  10 active torsions:
REMARK  status: ('A' for Active; 'I' for Inactive)
REMARK    1  A    between atoms: C_2  and  C_3 
REMARK    2  A    between atoms: C_3  and  C_4 
REMARK    3  A    between atoms: N_7  and  C_9 
REMARK    4  A    between atoms: C_9  and  C_10 
REMARK    5  A    between atoms: C_12  and  O_13 
REMARK    6  A    between atoms: O_13  and  C_14 
REMARK    7  A    between atoms: C_16  and  O_17 
REMARK    8  A    between atoms: N_25  and  C_26 
REMARK    9  A    between atoms: C_26  and  C_27 
REMARK   10  A    between atoms: C_27  and  C_28 
ROOT
HETATM    1  C   UNL     1      -6.710   1.708 -30.608  1.00  0.00     0.026 C 
HETATM    2  C   UNL     1      -5.382   2.460 -30.409  1.00  0.00     0.035 C 
HETATM    3  C   UNL     1      -4.202   1.891 -31.196  1.00  0.00     0.235 C 
HETATM    4  N   UNL     1      -4.040   0.413 -30.941  1.00  0.00    -0.067 N 
HETATM    5  H   UNL     1      -3.756   0.315 -29.958  1.00  0.00     0.280 HD
HETATM    6  C   UNL     1      -5.308  -0.382 -31.140  1.00  0.00     0.235 C 
HETATM    7  C   UNL     1      -6.451   0.212 -30.339  1.00  0.00     0.035 C 
ENDROOT
BRANCH   1   8
HETATM    8  C   UNL     1      -7.440   2.048 -31.945  1.00  0.00     0.119 C 
HETATM    9  N   UNL     1      -7.108   1.132 -33.023  1.00  0.00    -0.324 N 
HETATM   10  C   UNL     1      -8.244   0.694 -33.675  1.00  0.00     0.326 C 
HETATM   11  H   UNL     1      -6.329   1.285 -33.655  1.00  0.00     0.165 HD
HETATM   12  O   UNL     1      -8.197   0.138 -34.757  1.00  0.00    -0.247 OA
HETATM   13  N   UNL     1      -9.331   1.002 -32.927  1.00  0.00    -0.268 N 
HETATM   14  C   UNL     1      -8.966   1.790 -31.870  1.00  0.00     0.256 C 
HETATM   15  O   UNL     1      -9.708   2.248 -31.013  1.00  0.00    -0.270 OA
BRANCH   8  16
HETATM   16  C   UNL     1      -7.211   3.491 -32.466  1.00  0.00     0.037 C 
HETATM   17  C   UNL     1      -6.426   3.612 -33.765  1.00  0.00     0.008 C 
ENDBRANCH   8  16
BRANCH  13  18
HETATM   18  C   UNL     1     -10.704   0.763 -33.346  1.00  0.00     0.142 C 
BRANCH  18  19
HETATM   19  C   UNL     1     -11.346   1.978 -34.027  1.00  0.00     0.068 C 
BRANCH  19  20
HETATM   20  C   UNL     1     -12.629   2.358 -33.361  1.00  0.00     0.010 A 
HETATM   21  S   UNL     1     -12.713   3.724 -32.324  1.00  0.00    -0.085 SA
HETATM   22  C   UNL     1     -14.376   3.409 -32.070  1.00  0.00     0.166 A 
HETATM   23  N   UNL     1     -14.868   2.366 -32.699  1.00  0.00    -0.258 NA
HETATM   24  C   UNL     1     -13.874   1.750 -33.441  1.00  0.00     0.044 A 
HETATM   25  C   UNL     1     -14.233   0.540 -34.229  1.00  0.00     0.071 C 
ENDBRANCH  19  20
ENDBRANCH  18  19
ENDBRANCH  13  18
ENDBRANCH   1   8
BRANCH   4  26
HETATM   26  C   UNL     1      -2.927  -0.223 -31.765  1.00  0.00     0.273 C 
BRANCH  26  27
HETATM   27  C   UNL     1      -3.235  -1.587 -32.317  1.00  0.00    -0.030 A 
HETATM   28  C   UNL     1      -4.003  -1.708 -33.494  1.00  0.00     0.048 A 
HETATM   29  C   UNL     1      -4.282  -2.961 -34.036  1.00  0.00     0.102 A 
HETATM   30  C   UNL     1      -3.785  -4.095 -33.388  1.00  0.00     0.099 A 
HETATM   31  C   UNL     1      -3.031  -3.999 -32.225  1.00  0.00     0.040 A 
HETATM   32  C   UNL     1      -2.753  -2.744 -31.686  1.00  0.00     0.012 A 
BRANCH  29  33
HETATM   33  O   UNL     1      -5.007  -3.209 -35.171  1.00  0.00    -0.349 OA
BRANCH  33  34
HETATM   34  C   UNL     1      -6.410  -2.948 -35.125  1.00  0.00     0.171 C 
HETATM   35  C   UNL     1      -7.113  -4.208 -34.657  1.00  0.00     0.034 C 
ENDBRANCH  33  34
ENDBRANCH  29  33
BRANCH  30  36
HETATM   36  O   UNL     1      -4.035  -5.343 -33.887  1.00  0.00    -0.358 OA
HETATM   37  H   UNL     1      -3.233  -5.870 -33.706  1.00  0.00     0.218 HD
ENDBRANCH  30  36
ENDBRANCH  26  27
ENDBRANCH   4  26
TORSDOF 10
ENDMDL
MODEL 4
REMARK VINA RESULT:      -8.3      2.899      8.091
REMARK  10 active torsions:
REMARK  status: ('A' for Active; 'I' for Inactive)
REMARK    1  A    between atoms: C_2  and  C_3 
REMARK    2  A    between atoms: C_3  and  C_4 
REMARK    3  A    between atoms: N_7  and  C_9 
REMARK    4  A    between atoms: C_9  and  C_10 
REMARK    5  A    between atoms: C_12  and  O_13 
REMARK    6  A    between atoms: O_13  and  C_14 
REMARK    7  A    between atoms: C_16  and  O_17 
REMARK    8  A    between atoms: N_25  and  C_26 
REMARK    9  A    between atoms: C_26  and  C_27 
REMARK   10  A    between atoms: C_27  and  C_28 
ROOT
HETATM    1  C   UNL     1      -6.237   4.771 -33.270  1.00  0.00     0.026 C 
HETATM    2  C   UNL     1      -7.525   4.551 -32.458  1.00  0.00     0.035 C 
HETATM    3  C   UNL     1      -7.622   3.189 -31.772  1.00  0.00     0.235 C 
HETATM    4  N   UNL     1      -7.394   2.067 -32.754  1.00  0.00    -0.067 N 
HETATM    5  H   UNL     1      -8.192   2.079 -33.402  1.00  0.00     0.280 HD
HETATM    6  C   UNL     1      -6.132   2.218 -33.569  1.00  0.00     0.235 C 
HETATM    7  C   UNL     1      -6.077   3.579 -34.236  1.00  0.00     0.035 C 
ENDROOT
BRANCH   1   8
HETATM    8  C   UNL     1      -4.987   5.122 -32.402  1.00  0.00     0.119 C 
HETATM    9  N   UNL     1      -4.419   3.964 -31.731  1.00  0.00    -0.324 N 
HETATM   10  C   UNL     1      -3.049   3.915 -31.894  1.00  0.00     0.326 C 
HETATM   11  H   UNL     1      -4.713   3.664 -30.807  1.00  0.00     0.165 HD
HETATM   12  O   UNL     1      -2.340   3.195 -31.215  1.00  0.00    -0.247 OA
HETATM   13  N   UNL     1      -2.687   4.775 -32.877  1.00  0.00    -0.268 N 
HETATM   14  C   UNL     1      -3.763   5.529 -33.260  1.00  0.00     0.256 C 
HETATM   15  O   UNL     1      -3.773   6.402 -34.114  1.00  0.00    -0.270 OA
BRANCH   8  16
HETATM   16  C   UNL     1      -5.223   6.218 -31.330  1.00  0.00     0.037 C 
HETATM   17  C   UNL     1      -5.248   5.740 -29.885  1.00  0.00     0.008 C 
ENDBRANCH   8  16
BRANCH  13  18
HETATM   18  C   UNL     1      -1.310   5.044 -33.260  1.00  0.00     0.142 C 
BRANCH  18  19
HETATM   19  C   UNL     1      -0.782   6.377 -32.715  1.00  0.00     0.068 C 
BRANCH  19  20
HETATM   20  C   UNL     1      -0.537   6.302 -31.242  1.00  0.00     0.010 A 
HETATM   21  S   UNL     1       0.607   5.200 -30.593  1.00  0.00    -0.085 SA
HETATM   22  C   UNL     1       0.247   5.774 -29.022  1.00  0.00     0.166 A 
HETATM   23  N   UNL     1      -0.659   6.723 -28.949  1.00  0.00    -0.258 NA
HETATM   24  C   UNL     1      -1.122   7.032 -30.217  1.00  0.00     0.044 A 
HETATM   25  C   UNL     1      -2.162   8.089 -30.347  1.00  0.00     0.071 C 
ENDBRANCH  19  20
ENDBRANCH  18  19
ENDBRANCH  13  18
ENDBRANCH   1   8
BRANCH   4  26
HETATM   26  C   UNL     1      -7.399   0.688 -32.107  1.00  0.00     0.273 C 
BRANCH  26  27
HETATM   27  C   UNL     1      -6.049   0.042 -31.961  1.00  0.00    -0.030 A 
HETATM   28  C   UNL     1      -5.704  -1.052 -32.783  1.00  0.00     0.048 A 
HETATM   29  C   UNL     1      -4.450  -1.651 -32.680  1.00  0.00     0.102 A 
HETATM   30  C   UNL     1      -3.542  -1.145 -31.747  1.00  0.00     0.099 A 
HETATM   31  C   UNL     1      -3.863  -0.072 -30.925  1.00  0.00     0.040 A 
HETATM   32  C   UNL     1      -5.118   0.525 -31.029  1.00  0.00     0.012 A 
BRANCH  29  33
HETATM   33  O   UNL     1      -3.996  -2.709 -33.421  1.00  0.00    -0.349 OA
BRANCH  33  34
HETATM   34  C   UNL     1      -4.624  -2.947 -34.681  1.00  0.00     0.171 C 
HETATM   35  C   UNL     1      -5.288  -4.311 -34.631  1.00  0.00     0.034 C 
ENDBRANCH  33  34
ENDBRANCH  29  33
BRANCH  30  36
HETATM   36  O   UNL     1      -2.302  -1.703 -31.615  1.00  0.00    -0.358 OA
HETATM   37  H   UNL     1      -1.746  -1.290 -32.304  1.00  0.00     0.218 HD
ENDBRANCH  30  36
ENDBRANCH  26  27
ENDBRANCH   4  26
TORSDOF 10
ENDMDL
MODEL 5
REMARK VINA RESULT:      -8.3      4.183      8.949
REMARK  10 active torsions:
REMARK  status: ('A' for Active; 'I' for Inactive)
REMARK    1  A    between atoms: C_2  and  C_3 
REMARK    2  A    between atoms: C_3  and  C_4 
REMARK    3  A    between atoms: N_7  and  C_9 
REMARK    4  A    between atoms: C_9  and  C_10 
REMARK    5  A    between atoms: C_12  and  O_13 
REMARK    6  A    between atoms: O_13  and  C_14 
REMARK    7  A    between atoms: C_16  and  O_17 
REMARK    8  A    between atoms: N_25  and  C_26 
REMARK    9  A    between atoms: C_26  and  C_27 
REMARK   10  A    between atoms: C_27  and  C_28 
ROOT
HETATM    1  C   UNL     1      -7.053   0.155 -32.312  1.00  0.00     0.026 C 
HETATM    2  C   UNL     1      -7.864  -0.510 -33.438  1.00  0.00     0.035 C 
HETATM    3  C   UNL     1      -8.776   0.439 -34.214  1.00  0.00     0.235 C 
HETATM    4  N   UNL     1      -9.668   1.221 -33.281  1.00  0.00    -0.067 N 
HETATM    5  H   UNL     1     -10.314   0.543 -32.858  1.00  0.00     0.280 HD
HETATM    6  C   UNL     1      -8.924   1.913 -32.164  1.00  0.00     0.235 C 
HETATM    7  C   UNL     1      -8.036   0.936 -31.417  1.00  0.00     0.035 C 
ENDROOT
BRANCH   1   8
HETATM    8  C   UNL     1      -5.802   0.945 -32.810  1.00  0.00     0.119 C 
HETATM    9  N   UNL     1      -6.126   1.952 -33.807  1.00  0.00    -0.324 N 
HETATM   10  C   UNL     1      -5.531   3.161 -33.509  1.00  0.00     0.326 C 
HETATM   11  H   UNL     1      -6.136   1.757 -34.803  1.00  0.00     0.165 HD
HETATM   12  O   UNL     1      -5.447   4.061 -34.324  1.00  0.00    -0.247 OA
HETATM   13  N   UNL     1      -5.084   3.133 -32.230  1.00  0.00    -0.268 N 
HETATM   14  C   UNL     1      -5.211   1.870 -31.717  1.00  0.00     0.256 C 
HETATM   15  O   UNL     1      -4.891   1.505 -30.595  1.00  0.00    -0.270 OA
BRANCH   8  16
HETATM   16  C   UNL     1      -4.658   0.067 -33.382  1.00  0.00     0.037 C 
HETATM   17  C   UNL     1      -4.406  -1.249 -32.660  1.00  0.00     0.008 C 
ENDBRANCH   8  16
BRANCH  13  18
HETATM   18  C   UNL     1      -4.330   4.208 -31.605  1.00  0.00     0.142 C 
BRANCH  18  19
HETATM   19  C   UNL     1      -2.843   4.197 -31.977  1.00  0.00     0.068 C 
BRANCH  19  20
HETATM   20  C   UNL     1      -2.400   5.532 -32.484  1.00  0.00     0.010 A 
HETATM   21  S   UNL     1      -2.299   6.886 -31.434  1.00  0.00    -0.085 SA
HETATM   22  C   UNL     1      -1.762   7.845 -32.745  1.00  0.00     0.166 A 
HETATM   23  N   UNL     1      -1.653   7.230 -33.901  1.00  0.00    -0.258 NA
HETATM   24  C   UNL     1      -2.021   5.903 -33.767  1.00  0.00     0.044 A 
HETATM   25  C   UNL     1      -1.969   5.033 -34.974  1.00  0.00     0.071 C 
ENDBRANCH  19  20
ENDBRANCH  18  19
ENDBRANCH  13  18
ENDBRANCH   1   8
BRANCH   4  26
HETATM   26  C   UNL     1     -10.542   2.243 -33.997  1.00  0.00     0.273 C 
BRANCH  26  27
HETATM   27  C   UNL     1     -12.024   2.059 -33.817  1.00  0.00    -0.030 A 
HETATM   28  C   UNL     1     -12.750   2.970 -33.021  1.00  0.00     0.048 A 
HETATM   29  C   UNL     1     -14.127   2.831 -32.859  1.00  0.00     0.102 A 
HETATM   30  C   UNL     1     -14.773   1.772 -33.502  1.00  0.00     0.099 A 
HETATM   31  C   UNL     1     -14.076   0.862 -34.287  1.00  0.00     0.040 A 
HETATM   32  C   UNL     1     -12.699   1.002 -34.448  1.00  0.00     0.012 A 
BRANCH  29  33
HETATM   33  O   UNL     1     -14.941   3.649 -32.121  1.00  0.00    -0.349 OA
BRANCH  33  34
HETATM   34  C   UNL     1     -14.536   5.009 -31.960  1.00  0.00     0.171 C 
HETATM   35  C   UNL     1     -14.277   5.256 -30.486  1.00  0.00     0.034 C 
ENDBRANCH  33  34
ENDBRANCH  29  33
BRANCH  30  36
HETATM   36  O   UNL     1     -16.122   1.601 -33.370  1.00  0.00    -0.358 OA
HETATM   37  H   UNL     1     -16.274   1.368 -32.433  1.00  0.00     0.218 HD
ENDBRANCH  30  36
ENDBRANCH  26  27
ENDBRANCH   4  26
TORSDOF 10
ENDMDL
MODEL 6
REMARK VINA RESULT:      -8.2      3.175      8.331
REMARK  10 active torsions:
REMARK  status: ('A' for Active; 'I' for Inactive)
REMARK    1  A    between atoms: C_2  and  C_3 
REMARK    2  A    between atoms: C_3  and  C_4 
REMARK    3  A    between atoms: N_7  and  C_9 
REMARK    4  A    between atoms: C_9  and  C_10 
REMARK    5  A    between atoms: C_12  and  O_13 
REMARK    6  A    between atoms: O_13  and  C_14 
REMARK    7  A    between atoms: C_16  and  O_17 
REMARK    8  A    between atoms: N_25  and  C_26 
REMARK    9  A    between atoms: C_26  and  C_27 
REMARK   10  A    between atoms: C_27  and  C_28 
ROOT
HETATM    1  C   UNL     1      -5.956   4.810 -33.050  1.00  0.00     0.026 C 
HETATM    2  C   UNL     1      -6.960   4.703 -31.888  1.00  0.00     0.035 C 
HETATM    3  C   UNL     1      -7.145   3.291 -31.333  1.00  0.00     0.235 C 
HETATM    4  N   UNL     1      -7.469   2.311 -32.433  1.00  0.00    -0.067 N 
HETATM    5  H   UNL     1      -8.400   2.565 -32.786  1.00  0.00     0.280 HD
HETATM    6  C   UNL     1      -6.505   2.357 -33.594  1.00  0.00     0.235 C 
HETATM    7  C   UNL     1      -6.355   3.773 -34.118  1.00  0.00     0.035 C 
ENDROOT
BRANCH   1   8
HETATM    8  C   UNL     1      -4.460   4.794 -32.601  1.00  0.00     0.119 C 
HETATM    9  N   UNL     1      -3.545   4.494 -33.690  1.00  0.00    -0.324 N 
HETATM   10  C   UNL     1      -2.489   5.384 -33.715  1.00  0.00     0.326 C 
HETATM   11  H   UNL     1      -3.264   3.548 -33.928  1.00  0.00     0.165 HD
HETATM   12  O   UNL     1      -1.480   5.176 -34.363  1.00  0.00    -0.247 OA
HETATM   13  N   UNL     1      -2.783   6.443 -32.922  1.00  0.00    -0.268 N 
HETATM   14  C   UNL     1      -3.937   6.203 -32.228  1.00  0.00     0.256 C 
HETATM   15  O   UNL     1      -4.470   6.951 -31.421  1.00  0.00    -0.270 OA
BRANCH   8  16
HETATM   16  C   UNL     1      -4.138   3.824 -31.434  1.00  0.00     0.037 C 
HETATM   17  C   UNL     1      -3.381   2.558 -31.812  1.00  0.00     0.008 C 
ENDBRANCH   8  16
BRANCH  13  18
HETATM   18  C   UNL     1      -1.862   7.535 -32.646  1.00  0.00     0.142 C 
BRANCH  18  19
HETATM   19  C   UNL     1      -0.622   7.094 -31.859  1.00  0.00     0.068 C 
BRANCH  19  20
HETATM   20  C   UNL     1      -0.850   7.196 -30.385  1.00  0.00     0.010 A 
HETATM   21  S   UNL     1      -1.879   8.404 -29.733  1.00  0.00    -0.085 SA
HETATM   22  C   UNL     1      -1.567   7.802 -28.162  1.00  0.00     0.166 A 
HETATM   23  N   UNL     1      -0.756   6.771 -28.092  1.00  0.00    -0.258 NA
HETATM   24  C   UNL     1      -0.333   6.415 -29.361  1.00  0.00     0.044 A 
HETATM   25  C   UNL     1       0.600   5.263 -29.494  1.00  0.00     0.071 C 
ENDBRANCH  19  20
ENDBRANCH  18  19
ENDBRANCH  13  18
ENDBRANCH   1   8
BRANCH   4  26
HETATM   26  C   UNL     1      -7.583   0.872 -31.945  1.00  0.00     0.273 C 
BRANCH  26  27
HETATM   27  C   UNL     1      -6.874  -0.150 -32.790  1.00  0.00    -0.030 A 
HETATM   28  C   UNL     1      -5.506  -0.412 -32.569  1.00  0.00     0.048 A 
HETATM   29  C   UNL     1      -4.834  -1.371 -33.325  1.00  0.00     0.102 A 
HETATM   30  C   UNL     1      -5.545  -2.068 -34.305  1.00  0.00     0.099 A 
HETATM   31  C   UNL     1      -6.893  -1.823 -34.542  1.00  0.00     0.040 A 
HETATM   32  C   UNL     1      -7.562  -0.863 -33.785  1.00  0.00     0.012 A 
BRANCH  29  33
HETATM   33  O   UNL     1      -3.515  -1.719 -33.204  1.00  0.00    -0.349 OA
BRANCH  33  34
HETATM   34  C   UNL     1      -3.046  -2.071 -31.902  1.00  0.00     0.171 C 
HETATM   35  C   UNL     1      -3.001  -3.584 -31.805  1.00  0.00     0.034 C 
ENDBRANCH  33  34
ENDBRANCH  29  33
BRANCH  30  36
HETATM   36  O   UNL     1      -4.925  -3.017 -35.068  1.00  0.00    -0.358 OA
HETATM   37  H   UNL     1      -5.179  -3.879 -34.684  1.00  0.00     0.218 HD
ENDBRANCH  30  36
ENDBRANCH  26  27
ENDBRANCH   4  26
TORSDOF 10
ENDMDL
MODEL 7
REMARK VINA RESULT:      -8.1      3.666      9.189
REMARK  10 active torsions:
REMARK  status: ('A' for Active; 'I' for Inactive)
REMARK    1  A    between atoms: C_2  and  C_3 
REMARK    2  A    between atoms: C_3  and  C_4 
REMARK    3  A    between atoms: N_7  and  C_9 
REMARK    4  A    between atoms: C_9  and  C_10 
REMARK    5  A    between atoms: C_12  and  O_13 
REMARK    6  A    between atoms: O_13  and  C_14 
REMARK    7  A    between atoms: C_16  and  O_17 
REMARK    8  A    between atoms: N_25  and  C_26 
REMARK    9  A    between atoms: C_26  and  C_27 
REMARK   10  A    between atoms: C_27  and  C_28 
ROOT
HETATM    1  C   UNL     1      -3.411   5.301 -32.428  1.00  0.00     0.026 C 
HETATM    2  C   UNL     1      -4.247   4.674 -33.558  1.00  0.00     0.035 C 
HETATM    3  C   UNL     1      -5.136   3.509 -33.124  1.00  0.00     0.235 C 
HETATM    4  N   UNL     1      -4.339   2.463 -32.385  1.00  0.00    -0.067 N 
HETATM    5  H   UNL     1      -3.697   2.046 -33.071  1.00  0.00     0.280 HD
HETATM    6  C   UNL     1      -3.512   3.016 -31.250  1.00  0.00     0.235 C 
HETATM    7  C   UNL     1      -2.642   4.165 -31.724  1.00  0.00     0.035 C 
ENDROOT
BRANCH   1   8
HETATM    8  C   UNL     1      -4.216   6.263 -31.499  1.00  0.00     0.119 C 
HETATM    9  N   UNL     1      -4.387   5.743 -30.153  1.00  0.00    -0.324 N 
HETATM   10  C   UNL     1      -4.079   6.698 -29.204  1.00  0.00     0.326 C 
HETATM   11  H   UNL     1      -5.176   5.164 -29.882  1.00  0.00     0.165 HD
HETATM   12  O   UNL     1      -4.394   6.576 -28.035  1.00  0.00    -0.247 OA
HETATM   13  N   UNL     1      -3.420   7.720 -29.802  1.00  0.00    -0.268 N 
HETATM   14  C   UNL     1      -3.431   7.555 -31.160  1.00  0.00     0.256 C 
HETATM   15  O   UNL     1      -2.934   8.305 -31.988  1.00  0.00    -0.270 OA
BRANCH   8  16
HETATM   16  C   UNL     1      -5.617   6.665 -32.030  1.00  0.00     0.037 C 
HETATM   17  C   UNL     1      -6.805   6.152 -31.226  1.00  0.00     0.008 C 
ENDBRANCH   8  16
BRANCH  13  18
HETATM   18  C   UNL     1      -3.015   8.939 -29.119  1.00  0.00     0.142 C 
BRANCH  18  19
HETATM   19  C   UNL     1      -1.494   9.121 -29.060  1.00  0.00     0.068 C 
BRANCH  19  20
HETATM   20  C   UNL     1      -0.829   7.927 -28.453  1.00  0.00     0.010 A 
HETATM   21  S   UNL     1      -0.937   7.617 -26.769  1.00  0.00    -0.085 SA
HETATM   22  C   UNL     1       0.009   6.207 -26.981  1.00  0.00     0.166 A 
HETATM   23  N   UNL     1       0.396   5.954 -28.211  1.00  0.00    -0.258 NA
HETATM   24  C   UNL     1      -0.074   6.936 -29.066  1.00  0.00     0.044 A 
HETATM   25  C   UNL     1       0.262   6.829 -30.512  1.00  0.00     0.071 C 
ENDBRANCH  19  20
ENDBRANCH  18  19
ENDBRANCH  13  18
ENDBRANCH   1   8
BRANCH   4  26
HETATM   26  C   UNL     1      -5.192   1.315 -31.858  1.00  0.00     0.273 C 
BRANCH  26  27
HETATM   27  C   UNL     1      -4.750  -0.059 -32.280  1.00  0.00    -0.030 A 
HETATM   28  C   UNL     1      -5.307  -0.648 -33.435  1.00  0.00     0.048 A 
HETATM   29  C   UNL     1      -4.897  -1.911 -33.858  1.00  0.00     0.102 A 
HETATM   30  C   UNL     1      -3.922  -2.581 -33.114  1.00  0.00     0.099 A 
HETATM   31  C   UNL     1      -3.364  -2.020 -31.971  1.00  0.00     0.040 A 
HETATM   32  C   UNL     1      -3.776  -0.758 -31.550  1.00  0.00     0.012 A 
BRANCH  29  33
HETATM   33  O   UNL     1      -5.354  -2.584 -34.959  1.00  0.00    -0.349 OA
BRANCH  33  34
HETATM   34  C   UNL     1      -6.711  -3.027 -34.942  1.00  0.00     0.171 C 
HETATM   35  C   UNL     1      -6.717  -4.544 -34.972  1.00  0.00     0.034 C 
ENDBRANCH  33  34
ENDBRANCH  29  33
BRANCH  30  36
HETATM   36  O   UNL     1      -3.491  -3.820 -33.494  1.00  0.00    -0.358 OA
HETATM   37  H   UNL     1      -3.705  -3.900 -34.444  1.00  0.00     0.218 HD
ENDBRANCH  30  36
ENDBRANCH  26  27
ENDBRANCH   4  26
TORSDOF 10
ENDMDL
MODEL 8
REMARK VINA RESULT:      -8.1      1.662      2.750
REMARK  10 active torsions:
REMARK  status: ('A' for Active; 'I' for Inactive)
REMARK    1  A    between atoms: C_2  and  C_3 
REMARK    2  A    between atoms: C_3  and  C_4 
REMARK    3  A    between atoms: N_7  and  C_9 
REMARK    4  A    between atoms: C_9  and  C_10 
REMARK    5  A    between atoms: C_12  and  O_13 
REMARK    6  A    between atoms: O_13  and  C_14 
REMARK    7  A    between atoms: C_16  and  O_17 
REMARK    8  A    between atoms: N_25  and  C_26 
REMARK    9  A    between atoms: C_26  and  C_27 
REMARK   10  A    between atoms: C_27  and  C_28 
ROOT
HETATM    1  C   UNL     1      -7.290   2.899 -31.652  1.00  0.00     0.026 C 
HETATM    2  C   UNL     1      -7.462   4.391 -31.985  1.00  0.00     0.035 C 
HETATM    3  C   UNL     1      -6.298   5.280 -31.550  1.00  0.00     0.235 C 
HETATM    4  N   UNL     1      -5.973   5.077 -30.091  1.00  0.00    -0.067 N 
HETATM    5  H   UNL     1      -6.776   5.437 -29.559  1.00  0.00     0.280 HD
HETATM    6  C   UNL     1      -5.773   3.630 -29.708  1.00  0.00     0.235 C 
HETATM    7  C   UNL     1      -6.951   2.784 -30.152  1.00  0.00     0.035 C 
ENDROOT
BRANCH   1   8
HETATM    8  C   UNL     1      -6.343   2.133 -32.629  1.00  0.00     0.119 C 
HETATM    9  N   UNL     1      -4.935   2.387 -32.371  1.00  0.00    -0.324 N 
HETATM   10  C   UNL     1      -4.213   1.211 -32.339  1.00  0.00     0.326 C 
HETATM   11  H   UNL     1      -4.424   3.148 -32.808  1.00  0.00     0.165 HD
HETATM   12  O   UNL     1      -2.997   1.195 -32.399  1.00  0.00    -0.247 OA
HETATM   13  N   UNL     1      -5.070   0.166 -32.248  1.00  0.00    -0.268 N 
HETATM   14  C   UNL     1      -6.359   0.602 -32.393  1.00  0.00     0.256 C 
HETATM   15  O   UNL     1      -7.368  -0.088 -32.373  1.00  0.00    -0.270 OA
BRANCH   8  16
HETATM   16  C   UNL     1      -6.602   2.402 -34.135  1.00  0.00     0.037 C 
HETATM   17  C   UNL     1      -6.911   1.177 -34.985  1.00  0.00     0.008 C 
ENDBRANCH   8  16
BRANCH  13  18
HETATM   18  C   UNL     1      -4.661  -1.230 -32.275  1.00  0.00     0.142 C 
BRANCH  18  19
HETATM   19  C   UNL     1      -4.183  -1.691 -33.657  1.00  0.00     0.068 C 
BRANCH  19  20
HETATM   20  C   UNL     1      -4.976  -2.863 -34.142  1.00  0.00     0.010 A 
HETATM   21  S   UNL     1      -6.576  -2.663 -34.728  1.00  0.00    -0.085 SA
HETATM   22  C   UNL     1      -6.661  -4.346 -35.027  1.00  0.00     0.166 A 
HETATM   23  N   UNL     1      -5.587  -5.040 -34.723  1.00  0.00    -0.258 NA
HETATM   24  C   UNL     1      -4.613  -4.201 -34.209  1.00  0.00     0.044 A 
HETATM   25  C   UNL     1      -3.314  -4.801 -33.799  1.00  0.00     0.071 C 
ENDBRANCH  19  20
ENDBRANCH  18  19
ENDBRANCH  13  18
ENDBRANCH   1   8
BRANCH   4  26
HETATM   26  C   UNL     1      -4.766   5.881 -29.624  1.00  0.00     0.273 C 
BRANCH  26  27
HETATM   27  C   UNL     1      -3.875   6.397 -30.720  1.00  0.00    -0.030 A 
HETATM   28  C   UNL     1      -3.325   5.496 -31.656  1.00  0.00     0.048 A 
HETATM   29  C   UNL     1      -2.515   5.954 -32.694  1.00  0.00     0.102 A 
HETATM   30  C   UNL     1      -2.262   7.325 -32.788  1.00  0.00     0.099 A 
HETATM   31  C   UNL     1      -2.791   8.229 -31.875  1.00  0.00     0.040 A 
HETATM   32  C   UNL     1      -3.600   7.768 -30.838  1.00  0.00     0.012 A 
BRANCH  29  33
HETATM   33  O   UNL     1      -1.930   5.186 -33.664  1.00  0.00    -0.349 OA
BRANCH  33  34
HETATM   34  C   UNL     1      -2.510   5.218 -34.968  1.00  0.00     0.171 C 
HETATM   35  C   UNL     1      -4.012   5.059 -34.825  1.00  0.00     0.034 C 
ENDBRANCH  33  34
ENDBRANCH  29  33
BRANCH  30  36
HETATM   36  O   UNL     1      -1.475   7.817 -33.791  1.00  0.00    -0.358 OA
HETATM   37  H   UNL     1      -0.623   7.343 -33.721  1.00  0.00     0.218 HD
ENDBRANCH  30  36
ENDBRANCH  26  27
ENDBRANCH   4  26
TORSDOF 10
ENDMDL
MODEL 9
REMARK VINA RESULT:      -8.0      3.947      8.014
REMARK  10 active torsions:
REMARK  status: ('A' for Active; 'I' for Inactive)
REMARK    1  A    between atoms: C_2  and  C_3 
REMARK    2  A    between atoms: C_3  and  C_4 
REMARK    3  A    between atoms: N_7  and  C_9 
REMARK    4  A    between atoms: C_9  and  C_10 
REMARK    5  A    between atoms: C_12  and  O_13 
REMARK    6  A    between atoms: O_13  and  C_14 
REMARK    7  A    between atoms: C_16  and  O_17 
REMARK    8  A    between atoms: N_25  and  C_26 
REMARK    9  A    between atoms: C_26  and  C_27 
REMARK   10  A    between atoms: C_27  and  C_28 
ROOT
HETATM    1  C   UNL     1      -7.574   2.582 -30.597  1.00  0.00     0.026 C 
HETATM    2  C   UNL     1      -6.099   2.144 -30.571  1.00  0.00     0.035 C 
HETATM    3  C   UNL     1      -5.533   1.726 -31.927  1.00  0.00     0.235 C 
HETATM    4  N   UNL     1      -6.405   0.683 -32.582  1.00  0.00    -0.067 N 
HETATM    5  H   UNL     1      -6.328  -0.165 -32.007  1.00  0.00     0.280 HD
HETATM    6  C   UNL     1      -7.863   1.066 -32.655  1.00  0.00     0.235 C 
HETATM    7  C   UNL     1      -8.386   1.469 -31.289  1.00  0.00     0.035 C 
ENDROOT
BRANCH   1   8
HETATM    8  C   UNL     1      -7.798   4.031 -31.135  1.00  0.00     0.119 C 
HETATM    9  N   UNL     1      -7.480   4.168 -32.547  1.00  0.00    -0.324 N 
HETATM   10  C   UNL     1      -8.482   4.833 -33.224  1.00  0.00     0.326 C 
HETATM   11  H   UNL     1      -6.553   4.415 -32.880  1.00  0.00     0.165 HD
HETATM   12  O   UNL     1      -8.320   5.288 -34.341  1.00  0.00    -0.247 OA
HETATM   13  N   UNL     1      -9.588   4.882 -32.442  1.00  0.00    -0.268 N 
HETATM   14  C   UNL     1      -9.297   4.418 -31.188  1.00  0.00     0.256 C 
HETATM   15  O   UNL     1     -10.070   4.341 -30.243  1.00  0.00    -0.270 OA
BRANCH   8  16
HETATM   16  C   UNL     1      -7.030   5.139 -30.369  1.00  0.00     0.037 C 
HETATM   17  C   UNL     1      -5.829   5.735 -31.090  1.00  0.00     0.008 C 
ENDBRANCH   8  16
BRANCH  13  18
HETATM   18  C   UNL     1     -10.812   5.583 -32.802  1.00  0.00     0.142 C 
BRANCH  18  19
HETATM   19  C   UNL     1     -12.067   4.714 -32.662  1.00  0.00     0.068 C 
BRANCH  19  20
HETATM   20  C   UNL     1     -12.323   3.926 -33.907  1.00  0.00     0.010 A 
HETATM   21  S   UNL     1     -11.653   4.410 -35.411  1.00  0.00    -0.085 SA
HETATM   22  C   UNL     1     -12.393   3.061 -36.159  1.00  0.00     0.166 A 
HETATM   23  N   UNL     1     -13.099   2.282 -35.371  1.00  0.00    -0.258 NA
HETATM   24  C   UNL     1     -13.071   2.770 -34.076  1.00  0.00     0.044 A 
HETATM   25  C   UNL     1     -13.819   2.022 -33.028  1.00  0.00     0.071 C 
ENDBRANCH  19  20
ENDBRANCH  18  19
ENDBRANCH  13  18
ENDBRANCH   1   8
BRANCH   4  26
HETATM   26  C   UNL     1      -5.929   0.288 -33.976  1.00  0.00     0.273 C 
BRANCH  26  27
HETATM   27  C   UNL     1      -5.865  -1.191 -34.237  1.00  0.00    -0.030 A 
HETATM   28  C   UNL     1      -4.649  -1.882 -34.048  1.00  0.00     0.048 A 
HETATM   29  C   UNL     1      -4.571  -3.257 -34.262  1.00  0.00     0.102 A 
HETATM   30  C   UNL     1      -5.723  -3.936 -34.666  1.00  0.00     0.099 A 
HETATM   31  C   UNL     1      -6.929  -3.275 -34.862  1.00  0.00     0.040 A 
HETATM   32  C   UNL     1      -7.004  -1.900 -34.648  1.00  0.00     0.012 A 
BRANCH  29  33
HETATM   33  O   UNL     1      -3.457  -4.038 -34.108  1.00  0.00    -0.349 OA
BRANCH  33  34
HETATM   34  C   UNL     1      -3.246  -4.637 -32.828  1.00  0.00     0.171 C 
HETATM   35  C   UNL     1      -2.943  -3.534 -31.831  1.00  0.00     0.034 C 
ENDBRANCH  33  34
ENDBRANCH  29  33
BRANCH  30  36
HETATM   36  O   UNL     1      -5.690  -5.284 -34.886  1.00  0.00    -0.358 OA
HETATM   37  H   UNL     1      -6.184  -5.434 -35.715  1.00  0.00     0.218 HD
ENDBRANCH  30  36
ENDBRANCH  26  27
ENDBRANCH   4  26
TORSDOF 10
ENDMDL
MODEL 10
REMARK VINA RESULT:      -7.8      1.888      2.923
REMARK  10 active torsions:
REMARK  status: ('A' for Active; 'I' for Inactive)
REMARK    1  A    between atoms: C_2  and  C_3 
REMARK    2  A    between atoms: C_3  and  C_4 
REMARK    3  A    between atoms: N_7  and  C_9 
REMARK    4  A    between atoms: C_9  and  C_10 
REMARK    5  A    between atoms: C_12  and  O_13 
REMARK    6  A    between atoms: O_13  and  C_14 
REMARK    7  A    between atoms: C_16  and  O_17 
REMARK    8  A    between atoms: N_25  and  C_26 
REMARK    9  A    between atoms: C_26  and  C_27 
REMARK   10  A    between atoms: C_27  and  C_28 
ROOT
HETATM    1  C   UNL     1      -7.512   3.492 -31.425  1.00  0.00     0.026 C 
HETATM    2  C   UNL     1      -7.757   4.985 -31.708  1.00  0.00     0.035 C 
HETATM    3  C   UNL     1      -6.721   5.928 -31.098  1.00  0.00     0.235 C 
HETATM    4  N   UNL     1      -6.551   5.668 -29.621  1.00  0.00    -0.067 N 
HETATM    5  H   UNL     1      -7.434   5.943 -29.173  1.00  0.00     0.280 HD
HETATM    6  C   UNL     1      -6.288   4.221 -29.284  1.00  0.00     0.235 C 
HETATM    7  C   UNL     1      -7.341   3.320 -29.902  1.00  0.00     0.035 C 
ENDROOT
BRANCH   1   8
HETATM    8  C   UNL     1      -6.405   2.848 -32.318  1.00  0.00     0.119 C 
HETATM    9  N   UNL     1      -5.061   3.089 -31.817  1.00  0.00    -0.324 N 
HETATM   10  C   UNL     1      -4.319   1.926 -31.796  1.00  0.00     0.326 C 
HETATM   11  H   UNL     1      -4.511   3.899 -32.087  1.00  0.00     0.165 HD
HETATM   12  O   UNL     1      -3.109   1.930 -31.667  1.00  0.00    -0.247 OA
HETATM   13  N   UNL     1      -5.150   0.866 -31.951  1.00  0.00    -0.268 N 
HETATM   14  C   UNL     1      -6.413   1.300 -32.249  1.00  0.00     0.256 C 
HETATM   15  O   UNL     1      -7.392   0.600 -32.459  1.00  0.00    -0.270 OA
BRANCH   8  16
HETATM   16  C   UNL     1      -6.436   3.275 -33.809  1.00  0.00     0.037 C 
HETATM   17  C   UNL     1      -5.384   4.291 -34.231  1.00  0.00     0.008 C 
ENDBRANCH   8  16
BRANCH  13  18
HETATM   18  C   UNL     1      -4.701  -0.513 -32.060  1.00  0.00     0.142 C 
BRANCH  18  19
HETATM   19  C   UNL     1      -4.157  -0.862 -33.450  1.00  0.00     0.068 C 
BRANCH  19  20
HETATM   20  C   UNL     1      -4.790  -2.107 -33.984  1.00  0.00     0.010 A 
HETATM   21  S   UNL     1      -4.035  -3.635 -33.787  1.00  0.00    -0.085 SA
HETATM   22  C   UNL     1      -5.342  -4.371 -34.611  1.00  0.00     0.166 A 
HETATM   23  N   UNL     1      -6.294  -3.562 -35.019  1.00  0.00    -0.258 NA
HETATM   24  C   UNL     1      -5.987  -2.258 -34.670  1.00  0.00     0.044 A 
HETATM   25  C   UNL     1      -6.947  -1.185 -35.049  1.00  0.00     0.071 C 
ENDBRANCH  19  20
ENDBRANCH  18  19
ENDBRANCH  13  18
ENDBRANCH   1   8
BRANCH   4  26
HETATM   26  C   UNL     1      -5.470   6.528 -28.978  1.00  0.00     0.273 C 
BRANCH  26  27
HETATM   27  C   UNL     1      -4.460   7.107 -29.931  1.00  0.00    -0.030 A 
HETATM   28  C   UNL     1      -3.489   6.267 -30.516  1.00  0.00     0.048 A 
HETATM   29  C   UNL     1      -2.558   6.778 -31.419  1.00  0.00     0.102 A 
HETATM   30  C   UNL     1      -2.607   8.139 -31.732  1.00  0.00     0.099 A 
HETATM   31  C   UNL     1      -3.553   8.984 -31.163  1.00  0.00     0.040 A 
HETATM   32  C   UNL     1      -4.482   8.471 -30.260  1.00  0.00     0.012 A 
BRANCH  29  33
HETATM   33  O   UNL     1      -1.576   6.069 -32.056  1.00  0.00    -0.349 OA
BRANCH  33  34
HETATM   34  C   UNL     1      -0.608   5.407 -31.241  1.00  0.00     0.171 C 
HETATM   35  C   UNL     1       0.565   6.348 -31.037  1.00  0.00     0.034 C 
ENDBRANCH  33  34
ENDBRANCH  29  33
BRANCH  30  36
HETATM   36  O   UNL     1      -1.714   8.680 -32.612  1.00  0.00    -0.358 OA
HETATM   37  H   UNL     1      -1.485   9.561 -32.256  1.00  0.00     0.218 HD
ENDBRANCH  30  36
ENDBRANCH  26  27
ENDBRANCH   4  26
TORSDOF 10
ENDMDL
