MODEL 1
REMARK VINA RESULT:      -8.7      0.000      0.000
REMARK  6 active torsions:
REMARK  status: ('A' for Active; 'I' for Inactive)
REMARK    1  A    between atoms: C_6  and  S_7 
REMARK    2  A    between atoms: S_7  and  C_8 
REMARK    3  A    between atoms: C_8  and  C_9 
REMARK    4  A    between atoms: C_9  and  C_10 
REMARK    5  A    between atoms: C_19  and  N_20 
REMARK    6  A    between atoms: N_20  and  C_21 
ROOT
HETATM    1  C   UNL     1      -6.405  -4.608 -35.366  1.00  0.00     0.001 A 
HETATM    2  C   UNL     1      -6.704  -3.288 -35.035  1.00  0.00     0.018 A 
HETATM    3  C   UNL     1      -5.821  -2.518 -34.232  1.00  0.00     0.039 A 
HETATM    4  C   UNL     1      -4.643  -3.104 -33.755  1.00  0.00     0.073 A 
HETATM    5  N   UNL     1      -3.775  -2.454 -32.976  1.00  0.00    -0.222 NA
HETATM    6  C   UNL     1      -4.072  -1.190 -32.648  1.00  0.00     0.191 A 
HETATM    7  N   UNL     1      -5.162  -0.530 -33.052  1.00  0.00    -0.204 NA
HETATM    8  C   UNL     1      -6.030  -1.180 -33.845  1.00  0.00     0.143 A 
HETATM    9  C   UNL     1      -4.365  -4.421 -34.101  1.00  0.00     0.032 A 
HETATM   10  C   UNL     1      -5.228  -5.174 -34.901  1.00  0.00     0.002 A 
ENDROOT
BRANCH   6  11
HETATM   11  S   UNL     1      -2.951  -0.295 -31.603  1.00  0.00    -0.082 SA
BRANCH  11  12
HETATM   12  C   UNL     1      -4.098   0.921 -30.894  1.00  0.00     0.166 C 
BRANCH  12  13
HETATM   13  C   UNL     1      -3.820   2.334 -31.374  1.00  0.00     0.169 C 
HETATM   14  O   UNL     1      -2.721   2.882 -31.311  1.00  0.00    -0.291 OA
BRANCH  13  15
HETATM   15  C   UNL     1      -4.965   3.115 -31.948  1.00  0.00     0.011 A 
HETATM   16  C   UNL     1      -5.786   3.938 -31.165  1.00  0.00     0.017 A 
HETATM   17  C   UNL     1      -6.842   4.643 -31.752  1.00  0.00     0.025 A 
HETATM   18  C   UNL     1      -7.080   4.532 -33.122  1.00  0.00     0.034 A 
HETATM   19 CL   UNL     1      -8.380   5.403 -33.836  1.00  0.00    -0.084 Cl
HETATM   20  C   UNL     1      -6.271   3.722 -33.912  1.00  0.00     0.025 A 
HETATM   21  C   UNL     1      -5.215   3.015 -33.326  1.00  0.00     0.017 A 
ENDBRANCH  13  15
ENDBRANCH  12  13
ENDBRANCH  11  12
ENDBRANCH   6  11
BRANCH   8  22
HETATM   22  N   UNL     1      -7.191  -0.510 -34.314  1.00  0.00    -0.340 N 
HETATM   23  H   UNL     1      -7.070  -0.282 -35.296  1.00  0.00     0.167 HD
BRANCH  22  24
HETATM   24  C   UNL     1      -8.005   0.446 -33.663  1.00  0.00     0.036 A 
HETATM   25  C   UNL     1      -8.946   1.156 -34.431  1.00  0.00     0.069 A 
HETATM   26  C   UNL     1      -9.808   2.024 -33.791  1.00  0.00     0.107 A 
HETATM   27  C   UNL     1      -9.785   2.196 -32.430  1.00  0.00     0.105 A 
HETATM   28  O   UNL     1     -10.764   2.781 -34.394  1.00  0.00    -0.323 OA
HETATM   29  O   UNL     1     -10.719   3.085 -32.001  1.00  0.00    -0.323 OA
HETATM   30  C   UNL     1      -8.903   1.503 -31.634  1.00  0.00     0.042 A 
HETATM   31  C   UNL     1     -11.337   3.451 -33.252  1.00  0.00     0.352 A 
HETATM   32  C   UNL     1      -8.021   0.611 -32.260  1.00  0.00     0.032 A 
ENDBRANCH  22  24
ENDBRANCH   8  22
TORSDOF 6
ENDMDL
MODEL 2
REMARK VINA RESULT:      -8.6      3.868      6.524
REMARK  6 active torsions:
REMARK  status: ('A' for Active; 'I' for Inactive)
REMARK    1  A    between atoms: C_6  and  S_7 
REMARK    2  A    between atoms: S_7  and  C_8 
REMARK    3  A    between atoms: C_8  and  C_9 
REMARK    4  A    between atoms: C_9  and  C_10 
REMARK    5  A    between atoms: C_19  and  N_20 
REMARK    6  A    between atoms: N_20  and  C_21 
ROOT
HETATM    1  C   UNL     1     -12.078   1.778 -34.976  1.00  0.00     0.001 A 
HETATM    2  C   UNL     1     -10.940   1.410 -34.262  1.00  0.00     0.018 A 
HETATM    3  C   UNL     1      -9.904   2.347 -34.004  1.00  0.00     0.039 A 
HETATM    4  C   UNL     1     -10.027   3.653 -34.491  1.00  0.00     0.073 A 
HETATM    5  N   UNL     1      -9.087   4.584 -34.312  1.00  0.00    -0.222 NA
HETATM    6  C   UNL     1      -7.988   4.224 -33.637  1.00  0.00     0.191 A 
HETATM    7  N   UNL     1      -7.768   3.010 -33.122  1.00  0.00    -0.204 NA
HETATM    8  C   UNL     1      -8.720   2.076 -33.294  1.00  0.00     0.143 A 
HETATM    9  C   UNL     1     -11.173   3.998 -35.199  1.00  0.00     0.032 A 
HETATM   10  C   UNL     1     -12.196   3.079 -35.442  1.00  0.00     0.002 A 
ENDROOT
BRANCH   6  11
HETATM   11  S   UNL     1      -6.707   5.427 -33.388  1.00  0.00    -0.082 SA
BRANCH  11  12
HETATM   12  C   UNL     1      -5.247   4.374 -33.617  1.00  0.00     0.166 C 
BRANCH  12  13
HETATM   13  C   UNL     1      -4.147   5.064 -34.405  1.00  0.00     0.169 C 
HETATM   14  O   UNL     1      -4.177   5.246 -35.621  1.00  0.00    -0.291 OA
BRANCH  13  15
HETATM   15  C   UNL     1      -2.943   5.542 -33.650  1.00  0.00     0.011 A 
HETATM   16  C   UNL     1      -2.339   6.782 -33.899  1.00  0.00     0.017 A 
HETATM   17  C   UNL     1      -1.214   7.178 -33.166  1.00  0.00     0.025 A 
HETATM   18  C   UNL     1      -0.691   6.340 -32.181  1.00  0.00     0.034 A 
HETATM   19 CL   UNL     1       0.690   6.834 -31.284  1.00  0.00    -0.084 Cl
HETATM   20  C   UNL     1      -1.283   5.107 -31.922  1.00  0.00     0.025 A 
HETATM   21  C   UNL     1      -2.406   4.710 -32.655  1.00  0.00     0.017 A 
ENDBRANCH  13  15
ENDBRANCH  12  13
ENDBRANCH  11  12
ENDBRANCH   6  11
BRANCH   8  22
HETATM   22  N   UNL     1      -8.537   0.779 -32.745  1.00  0.00    -0.340 N 
HETATM   23  H   UNL     1      -8.973   0.741 -31.828  1.00  0.00     0.167 HD
BRANCH  22  24
HETATM   24  C   UNL     1      -7.416  -0.080 -32.815  1.00  0.00     0.036 A 
HETATM   25  C   UNL     1      -7.259  -0.881 -33.961  1.00  0.00     0.069 A 
HETATM   26  C   UNL     1      -6.122  -1.655 -34.083  1.00  0.00     0.107 A 
HETATM   27  C   UNL     1      -5.136  -1.647 -33.130  1.00  0.00     0.105 A 
HETATM   28  O   UNL     1      -5.832  -2.481 -35.124  1.00  0.00    -0.323 OA
HETATM   29  O   UNL     1      -4.101  -2.469 -33.444  1.00  0.00    -0.323 OA
HETATM   30  C   UNL     1      -5.230  -0.859 -32.006  1.00  0.00     0.042 A 
HETATM   31  C   UNL     1      -4.548  -2.993 -34.711  1.00  0.00     0.352 A 
HETATM   32  C   UNL     1      -6.373  -0.060 -31.863  1.00  0.00     0.032 A 
ENDBRANCH  22  24
ENDBRANCH   8  22
TORSDOF 6
ENDMDL
MODEL 3
REMARK VINA RESULT:      -8.5      3.277      3.999
REMARK  6 active torsions:
REMARK  status: ('A' for Active; 'I' for Inactive)
REMARK    1  A    between atoms: C_6  and  S_7 
REMARK    2  A    between atoms: S_7  and  C_8 
REMARK    3  A    between atoms: C_8  and  C_9 
REMARK    4  A    between atoms: C_9  and  C_10 
REMARK    5  A    between atoms: C_19  and  N_20 
REMARK    6  A    between atoms: N_20  and  C_21 
ROOT
HETATM    1  C   UNL     1      -6.733  -2.665 -34.575  1.00  0.00     0.001 A 
HETATM    2  C   UNL     1      -7.208  -1.633 -33.769  1.00  0.00     0.018 A 
HETATM    3  C   UNL     1      -6.318  -0.686 -33.195  1.00  0.00     0.039 A 
HETATM    4  C   UNL     1      -4.944  -0.806 -33.433  1.00  0.00     0.073 A 
HETATM    5  N   UNL     1      -4.043   0.029 -32.911  1.00  0.00    -0.222 NA
HETATM    6  C   UNL     1      -4.501   1.012 -32.125  1.00  0.00     0.191 A 
HETATM    7  N   UNL     1      -5.789   1.225 -31.836  1.00  0.00    -0.204 NA
HETATM    8  C   UNL     1      -6.696   0.391 -32.371  1.00  0.00     0.143 A 
HETATM    9  C   UNL     1      -4.495  -1.843 -34.244  1.00  0.00     0.032 A 
HETATM   10  C   UNL     1      -5.372  -2.767 -34.817  1.00  0.00     0.002 A 
ENDROOT
BRANCH   6  11
HETATM   11  S   UNL     1      -3.335   2.136 -31.399  1.00  0.00    -0.082 SA
BRANCH  11  12
HETATM   12  C   UNL     1      -3.760   3.648 -32.308  1.00  0.00     0.166 C 
BRANCH  12  13
HETATM   13  C   UNL     1      -2.537   4.372 -32.842  1.00  0.00     0.169 C 
HETATM   14  O   UNL     1      -2.157   4.320 -34.010  1.00  0.00    -0.291 OA
BRANCH  13  15
HETATM   15  C   UNL     1      -1.733   5.191 -31.875  1.00  0.00     0.011 A 
HETATM   16  C   UNL     1      -0.331   5.207 -31.883  1.00  0.00     0.017 A 
HETATM   17  C   UNL     1       0.369   5.988 -30.957  1.00  0.00     0.025 A 
HETATM   18  C   UNL     1      -0.326   6.757 -30.024  1.00  0.00     0.034 A 
HETATM   19 CL   UNL     1       0.543   7.714 -28.890  1.00  0.00    -0.084 Cl
HETATM   20  C   UNL     1      -1.717   6.753 -30.008  1.00  0.00     0.025 A 
HETATM   21  C   UNL     1      -2.419   5.972 -30.932  1.00  0.00     0.017 A 
ENDBRANCH  13  15
ENDBRANCH  12  13
ENDBRANCH  11  12
ENDBRANCH   6  11
BRANCH   8  22
HETATM   22  N   UNL     1      -8.077   0.593 -32.107  1.00  0.00    -0.340 N 
HETATM   23  H   UNL     1      -8.422  -0.171 -31.534  1.00  0.00     0.167 HD
BRANCH  22  24
HETATM   24  C   UNL     1      -9.092   1.099 -32.953  1.00  0.00     0.036 A 
HETATM   25  C   UNL     1     -10.343   0.457 -32.952  1.00  0.00     0.069 A 
HETATM   26  C   UNL     1     -11.369   0.997 -33.703  1.00  0.00     0.107 A 
HETATM   27  C   UNL     1     -11.205   2.148 -34.430  1.00  0.00     0.105 A 
HETATM   28  O   UNL     1     -12.627   0.490 -33.807  1.00  0.00    -0.323 OA
HETATM   29  O   UNL     1     -12.336   2.513 -35.089  1.00  0.00    -0.323 OA
HETATM   30  C   UNL     1     -10.009   2.827 -34.439  1.00  0.00     0.042 A 
HETATM   31  C   UNL     1     -13.234   1.458 -34.688  1.00  0.00     0.352 A 
HETATM   32  C   UNL     1      -8.954   2.302 -33.680  1.00  0.00     0.032 A 
ENDBRANCH  22  24
ENDBRANCH   8  22
TORSDOF 6
ENDMDL
MODEL 4
REMARK VINA RESULT:      -8.4      5.183      7.912
REMARK  6 active torsions:
REMARK  status: ('A' for Active; 'I' for Inactive)
REMARK    1  A    between atoms: C_6  and  S_7 
REMARK    2  A    between atoms: S_7  and  C_8 
REMARK    3  A    between atoms: C_8  and  C_9 
REMARK    4  A    between atoms: C_9  and  C_10 
REMARK    5  A    between atoms: C_19  and  N_20 
REMARK    6  A    between atoms: N_20  and  C_21 
ROOT
HETATM    1  C   UNL     1      -7.451   3.019 -29.921  1.00  0.00     0.001 A 
HETATM    2  C   UNL     1      -6.335   2.257 -30.260  1.00  0.00     0.018 A 
HETATM    3  C   UNL     1      -5.140   2.876 -30.714  1.00  0.00     0.039 A 
HETATM    4  C   UNL     1      -5.094   4.269 -30.837  1.00  0.00     0.073 A 
HETATM    5  N   UNL     1      -4.016   4.922 -31.280  1.00  0.00    -0.222 NA
HETATM    6  C   UNL     1      -2.950   4.186 -31.618  1.00  0.00     0.191 A 
HETATM    7  N   UNL     1      -2.880   2.854 -31.534  1.00  0.00    -0.204 NA
HETATM    8  C   UNL     1      -3.961   2.198 -31.078  1.00  0.00     0.143 A 
HETATM    9  C   UNL     1      -6.219   5.007 -30.491  1.00  0.00     0.032 A 
HETATM   10  C   UNL     1      -7.391   4.400 -30.033  1.00  0.00     0.002 A 
ENDROOT
BRANCH   6  11
HETATM   11  S   UNL     1      -1.501   5.014 -32.224  1.00  0.00    -0.082 SA
BRANCH  11  12
HETATM   12  C   UNL     1      -1.181   6.132 -30.830  1.00  0.00     0.166 C 
BRANCH  12  13
HETATM   13  C   UNL     1      -0.105   5.606 -29.896  1.00  0.00     0.169 C 
HETATM   14  O   UNL     1       0.447   4.515 -30.021  1.00  0.00    -0.291 OA
BRANCH  13  15
HETATM   15  C   UNL     1       0.297   6.470 -28.738  1.00  0.00     0.011 A 
HETATM   16  C   UNL     1       0.022   6.125 -27.407  1.00  0.00     0.017 A 
HETATM   17  C   UNL     1       0.418   6.970 -26.364  1.00  0.00     0.025 A 
HETATM   18  C   UNL     1       1.093   8.158 -26.644  1.00  0.00     0.034 A 
HETATM   19 CL   UNL     1       1.577   9.189 -25.357  1.00  0.00    -0.084 Cl
HETATM   20  C   UNL     1       1.376   8.510 -27.960  1.00  0.00     0.025 A 
HETATM   21  C   UNL     1       0.979   7.668 -29.005  1.00  0.00     0.017 A 
ENDBRANCH  13  15
ENDBRANCH  12  13
ENDBRANCH  11  12
ENDBRANCH   6  11
BRANCH   8  22
HETATM   22  N   UNL     1      -3.922   0.783 -30.953  1.00  0.00    -0.340 N 
HETATM   23  H   UNL     1      -3.196   0.527 -30.292  1.00  0.00     0.167 HD
BRANCH  22  24
HETATM   24  C   UNL     1      -4.090  -0.214 -31.942  1.00  0.00     0.036 A 
HETATM   25  C   UNL     1      -3.475  -1.463 -31.742  1.00  0.00     0.069 A 
HETATM   26  C   UNL     1      -3.707  -2.473 -32.654  1.00  0.00     0.107 A 
HETATM   27  C   UNL     1      -4.535  -2.298 -33.734  1.00  0.00     0.105 A 
HETATM   28  O   UNL     1      -3.181  -3.727 -32.600  1.00  0.00    -0.323 OA
HETATM   29  O   UNL     1      -4.634  -3.415 -34.501  1.00  0.00    -0.323 OA
HETATM   30  C   UNL     1      -5.181  -1.104 -33.956  1.00  0.00     0.042 A 
HETATM   31  C   UNL     1      -3.775  -4.318 -33.775  1.00  0.00     0.352 A 
HETATM   32  C   UNL     1      -4.966  -0.065 -33.040  1.00  0.00     0.032 A 
ENDBRANCH  22  24
ENDBRANCH   8  22
TORSDOF 6
ENDMDL
MODEL 5
REMARK VINA RESULT:      -8.4      2.210      5.031
REMARK  6 active torsions:
REMARK  status: ('A' for Active; 'I' for Inactive)
REMARK    1  A    between atoms: C_6  and  S_7 
REMARK    2  A    between atoms: S_7  and  C_8 
REMARK    3  A    between atoms: C_8  and  C_9 
REMARK    4  A    between atoms: C_9  and  C_10 
REMARK    5  A    between atoms: C_19  and  N_20 
REMARK    6  A    between atoms: N_20  and  C_21 
ROOT
HETATM    1  C   UNL     1      -4.122  -2.352 -33.713  1.00  0.00     0.001 A 
HETATM    2  C   UNL     1      -4.532  -1.378 -32.805  1.00  0.00     0.018 A 
HETATM    3  C   UNL     1      -5.869  -0.898 -32.804  1.00  0.00     0.039 A 
HETATM    4  C   UNL     1      -6.778  -1.403 -33.741  1.00  0.00     0.073 A 
HETATM    5  N   UNL     1      -8.044  -0.986 -33.819  1.00  0.00    -0.222 NA
HETATM    6  C   UNL     1      -8.432  -0.039 -32.955  1.00  0.00     0.191 A 
HETATM    7  N   UNL     1      -7.654   0.508 -32.017  1.00  0.00    -0.204 NA
HETATM    8  C   UNL     1      -6.383   0.080 -31.931  1.00  0.00     0.143 A 
HETATM    9  C   UNL     1      -6.346  -2.376 -34.634  1.00  0.00     0.032 A 
HETATM   10  C   UNL     1      -5.034  -2.856 -34.627  1.00  0.00     0.002 A 
ENDROOT
BRANCH   6  11
HETATM   11  S   UNL     1     -10.104   0.553 -33.034  1.00  0.00    -0.082 SA
BRANCH  11  12
HETATM   12  C   UNL     1      -9.827   2.143 -33.865  1.00  0.00     0.166 C 
BRANCH  12  13
HETATM   13  C   UNL     1      -9.255   3.197 -32.932  1.00  0.00     0.169 C 
HETATM   14  O   UNL     1      -9.806   3.580 -31.901  1.00  0.00    -0.291 OA
BRANCH  13  15
HETATM   15  C   UNL     1      -7.942   3.819 -33.302  1.00  0.00     0.011 A 
HETATM   16  C   UNL     1      -7.638   5.160 -33.028  1.00  0.00     0.017 A 
HETATM   17  C   UNL     1      -6.397   5.690 -33.398  1.00  0.00     0.025 A 
HETATM   18  C   UNL     1      -5.455   4.885 -34.037  1.00  0.00     0.034 A 
HETATM   19 CL   UNL     1      -3.932   5.544 -34.487  1.00  0.00    -0.084 Cl
HETATM   20  C   UNL     1      -5.742   3.551 -34.312  1.00  0.00     0.025 A 
HETATM   21  C   UNL     1      -6.983   3.020 -33.945  1.00  0.00     0.017 A 
ENDBRANCH  13  15
ENDBRANCH  12  13
ENDBRANCH  11  12
ENDBRANCH   6  11
BRANCH   8  22
HETATM   22  N   UNL     1      -5.526   0.618 -30.934  1.00  0.00    -0.340 N 
HETATM   23  H   UNL     1      -5.806   0.260 -30.026  1.00  0.00     0.167 HD
BRANCH  22  24
HETATM   24  C   UNL     1      -4.974   1.916 -30.825  1.00  0.00     0.036 A 
HETATM   25  C   UNL     1      -3.718   2.158 -31.411  1.00  0.00     0.069 A 
HETATM   26  C   UNL     1      -3.211   3.442 -31.392  1.00  0.00     0.107 A 
HETATM   27  C   UNL     1      -3.906   4.487 -30.837  1.00  0.00     0.105 A 
HETATM   28  O   UNL     1      -2.014   3.831 -31.909  1.00  0.00    -0.323 OA
HETATM   29  O   UNL     1      -3.236   5.666 -30.930  1.00  0.00    -0.323 OA
HETATM   30  C   UNL     1      -5.150   4.305 -30.279  1.00  0.00     0.042 A 
HETATM   31  C   UNL     1      -2.039   5.242 -31.612  1.00  0.00     0.352 A 
HETATM   32  C   UNL     1      -5.688   3.011 -30.291  1.00  0.00     0.032 A 
ENDBRANCH  22  24
ENDBRANCH   8  22
TORSDOF 6
ENDMDL
MODEL 6
REMARK VINA RESULT:      -8.3      1.842      2.528
REMARK  6 active torsions:
REMARK  status: ('A' for Active; 'I' for Inactive)
REMARK    1  A    between atoms: C_6  and  S_7 
REMARK    2  A    between atoms: S_7  and  C_8 
REMARK    3  A    between atoms: C_8  and  C_9 
REMARK    4  A    between atoms: C_9  and  C_10 
REMARK    5  A    between atoms: C_19  and  N_20 
REMARK    6  A    between atoms: N_20  and  C_21 
ROOT
HETATM    1  C   UNL     1      -6.479  -3.641 -34.904  1.00  0.00     0.001 A 
HETATM    2  C   UNL     1      -7.145  -2.596 -34.268  1.00  0.00     0.018 A 
HETATM    3  C   UNL     1      -6.425  -1.511 -33.699  1.00  0.00     0.039 A 
HETATM    4  C   UNL     1      -5.028  -1.505 -33.768  1.00  0.00     0.073 A 
HETATM    5  N   UNL     1      -4.281  -0.534 -33.237  1.00  0.00    -0.222 NA
HETATM    6  C   UNL     1      -4.922   0.462 -32.614  1.00  0.00     0.191 A 
HETATM    7  N   UNL     1      -6.250   0.562 -32.495  1.00  0.00    -0.204 NA
HETATM    8  C   UNL     1      -7.002  -0.409 -33.039  1.00  0.00     0.143 A 
HETATM    9  C   UNL     1      -4.386  -2.558 -34.411  1.00  0.00     0.032 A 
HETATM   10  C   UNL     1      -5.095  -3.619 -34.980  1.00  0.00     0.002 A 
ENDROOT
BRANCH   6  11
HETATM   11  S   UNL     1      -3.966   1.766 -31.882  1.00  0.00    -0.082 SA
BRANCH  11  12
HETATM   12  C   UNL     1      -5.214   2.477 -30.773  1.00  0.00     0.166 C 
BRANCH  12  13
HETATM   13  C   UNL     1      -5.832   3.748 -31.328  1.00  0.00     0.169 C 
HETATM   14  O   UNL     1      -5.188   4.669 -31.828  1.00  0.00    -0.291 OA
BRANCH  13  15
HETATM   15  C   UNL     1      -7.322   3.893 -31.246  1.00  0.00     0.011 A 
HETATM   16  C   UNL     1      -8.004   4.995 -31.783  1.00  0.00     0.017 A 
HETATM   17  C   UNL     1      -9.397   5.081 -31.676  1.00  0.00     0.025 A 
HETATM   18  C   UNL     1     -10.113   4.068 -31.040  1.00  0.00     0.034 A 
HETATM   19 CL   UNL     1     -11.825   4.182 -30.914  1.00  0.00    -0.084 Cl
HETATM   20  C   UNL     1      -9.450   2.968 -30.506  1.00  0.00     0.025 A 
HETATM   21  C   UNL     1      -8.057   2.881 -30.609  1.00  0.00     0.017 A 
ENDBRANCH  13  15
ENDBRANCH  12  13
ENDBRANCH  11  12
ENDBRANCH   6  11
BRANCH   8  22
HETATM   22  N   UNL     1      -8.418  -0.332 -32.954  1.00  0.00    -0.340 N 
HETATM   23  H   UNL     1      -8.809  -1.264 -33.049  1.00  0.00     0.167 HD
BRANCH  22  24
HETATM   24  C   UNL     1      -9.299   0.649 -33.466  1.00  0.00     0.036 A 
HETATM   25  C   UNL     1     -10.674   0.518 -33.197  1.00  0.00     0.069 A 
HETATM   26  C   UNL     1     -11.532   1.516 -33.613  1.00  0.00     0.107 A 
HETATM   27  C   UNL     1     -11.079   2.637 -34.261  1.00  0.00     0.105 A 
HETATM   28  O   UNL     1     -12.880   1.529 -33.431  1.00  0.00    -0.323 OA
HETATM   29  O   UNL     1     -12.082   3.498 -34.575  1.00  0.00    -0.323 OA
HETATM   30  C   UNL     1      -9.741   2.823 -34.521  1.00  0.00     0.042 A 
HETATM   31  C   UNL     1     -13.221   2.790 -34.045  1.00  0.00     0.352 A 
HETATM   32  C   UNL     1      -8.849   1.826 -34.103  1.00  0.00     0.032 A 
ENDBRANCH  22  24
ENDBRANCH   8  22
TORSDOF 6
ENDMDL
MODEL 7
REMARK VINA RESULT:      -8.2      5.332      9.358
REMARK  6 active torsions:
REMARK  status: ('A' for Active; 'I' for Inactive)
REMARK    1  A    between atoms: C_6  and  S_7 
REMARK    2  A    between atoms: S_7  and  C_8 
REMARK    3  A    between atoms: C_8  and  C_9 
REMARK    4  A    between atoms: C_9  and  C_10 
REMARK    5  A    between atoms: C_19  and  N_20 
REMARK    6  A    between atoms: N_20  and  C_21 
ROOT
HETATM    1  C   UNL     1      -0.921   6.621 -34.162  1.00  0.00     0.001 A 
HETATM    2  C   UNL     1      -1.422   6.736 -32.868  1.00  0.00     0.018 A 
HETATM    3  C   UNL     1      -2.302   5.756 -32.336  1.00  0.00     0.039 A 
HETATM    4  C   UNL     1      -2.680   4.671 -33.133  1.00  0.00     0.073 A 
HETATM    5  N   UNL     1      -3.521   3.722 -32.714  1.00  0.00    -0.222 NA
HETATM    6  C   UNL     1      -4.012   3.842 -31.474  1.00  0.00     0.191 A 
HETATM    7  N   UNL     1      -3.715   4.831 -30.625  1.00  0.00    -0.204 NA
HETATM    8  C   UNL     1      -2.860   5.779 -31.043  1.00  0.00     0.143 A 
HETATM    9  C   UNL     1      -2.165   4.576 -34.421  1.00  0.00     0.032 A 
HETATM   10  C   UNL     1      -1.291   5.534 -34.940  1.00  0.00     0.002 A 
ENDROOT
BRANCH   6  11
HETATM   11  S   UNL     1      -5.144   2.610 -30.882  1.00  0.00    -0.082 SA
BRANCH  11  12
HETATM   12  C   UNL     1      -5.381   1.653 -32.407  1.00  0.00     0.166 C 
BRANCH  12  13
HETATM   13  C   UNL     1      -4.585   0.360 -32.413  1.00  0.00     0.169 C 
HETATM   14  O   UNL     1      -3.498   0.214 -31.858  1.00  0.00    -0.291 OA
BRANCH  13  15
HETATM   15  C   UNL     1      -5.159  -0.809 -33.157  1.00  0.00     0.011 A 
HETATM   16  C   UNL     1      -6.519  -0.901 -33.485  1.00  0.00     0.017 A 
HETATM   17  C   UNL     1      -7.002  -2.016 -34.180  1.00  0.00     0.025 A 
HETATM   18  C   UNL     1      -6.130  -3.039 -34.552  1.00  0.00     0.034 A 
HETATM   19 CL   UNL     1      -6.732  -4.405 -35.407  1.00  0.00    -0.084 Cl
HETATM   20  C   UNL     1      -4.778  -2.958 -34.237  1.00  0.00     0.025 A 
HETATM   21  C   UNL     1      -4.293  -1.846 -33.541  1.00  0.00     0.017 A 
ENDBRANCH  13  15
ENDBRANCH  12  13
ENDBRANCH  11  12
ENDBRANCH   6  11
BRANCH   8  22
HETATM   22  N   UNL     1      -2.500   6.837 -30.165  1.00  0.00    -0.340 N 
HETATM   23  H   UNL     1      -2.718   7.724 -30.607  1.00  0.00     0.167 HD
BRANCH  22  24
HETATM   24  C   UNL     1      -1.384   6.952 -29.303  1.00  0.00     0.036 A 
HETATM   25  C   UNL     1      -1.426   7.920 -28.283  1.00  0.00     0.069 A 
HETATM   26  C   UNL     1      -0.384   7.981 -27.380  1.00  0.00     0.107 A 
HETATM   27  C   UNL     1       0.676   7.112 -27.439  1.00  0.00     0.105 A 
HETATM   28  O   UNL     1      -0.279   8.861 -26.348  1.00  0.00    -0.323 OA
HETATM   29  O   UNL     1       1.587   7.335 -26.455  1.00  0.00    -0.323 OA
HETATM   30  C   UNL     1       0.748   6.131 -28.399  1.00  0.00     0.042 A 
HETATM   31  C   UNL     1       0.974   8.444 -25.766  1.00  0.00     0.352 A 
HETATM   32  C   UNL     1      -0.302   6.046 -29.325  1.00  0.00     0.032 A 
ENDBRANCH  22  24
ENDBRANCH   8  22
TORSDOF 6
ENDMDL
MODEL 8
REMARK VINA RESULT:      -8.2      4.433      7.242
REMARK  6 active torsions:
REMARK  status: ('A' for Active; 'I' for Inactive)
REMARK    1  A    between atoms: C_6  and  S_7 
REMARK    2  A    between atoms: S_7  and  C_8 
REMARK    3  A    between atoms: C_8  and  C_9 
REMARK    4  A    between atoms: C_9  and  C_10 
REMARK    5  A    between atoms: C_19  and  N_20 
REMARK    6  A    between atoms: N_20  and  C_21 
ROOT
HETATM    1  C   UNL     1      -6.879   4.630 -29.158  1.00  0.00     0.001 A 
HETATM    2  C   UNL     1      -6.893   3.816 -30.288  1.00  0.00     0.018 A 
HETATM    3  C   UNL     1      -6.097   4.129 -31.423  1.00  0.00     0.039 A 
HETATM    4  C   UNL     1      -5.303   5.281 -31.405  1.00  0.00     0.073 A 
HETATM    5  N   UNL     1      -4.547   5.656 -32.440  1.00  0.00    -0.222 NA
HETATM    6  C   UNL     1      -4.573   4.880 -33.531  1.00  0.00     0.191 A 
HETATM    7  N   UNL     1      -5.287   3.756 -33.655  1.00  0.00    -0.204 NA
HETATM    8  C   UNL     1      -6.039   3.374 -32.610  1.00  0.00     0.143 A 
HETATM    9  C   UNL     1      -5.304   6.076 -30.264  1.00  0.00     0.032 A 
HETATM   10  C   UNL     1      -6.078   5.761 -29.144  1.00  0.00     0.002 A 
ENDROOT
BRANCH   6  11
HETATM   11  S   UNL     1      -3.593   5.349 -34.934  1.00  0.00    -0.082 SA
BRANCH  11  12
HETATM   12  C   UNL     1      -1.934   5.216 -34.209  1.00  0.00     0.166 C 
BRANCH  12  13
HETATM   13  C   UNL     1      -1.479   6.508 -33.554  1.00  0.00     0.169 C 
HETATM   14  O   UNL     1      -1.529   7.612 -34.094  1.00  0.00    -0.291 OA
BRANCH  13  15
HETATM   15  C   UNL     1      -0.919   6.428 -32.165  1.00  0.00     0.011 A 
HETATM   16  C   UNL     1      -0.155   5.339 -31.721  1.00  0.00     0.017 A 
HETATM   17  C   UNL     1       0.342   5.314 -30.413  1.00  0.00     0.025 A 
HETATM   18  C   UNL     1       0.082   6.376 -29.547  1.00  0.00     0.034 A 
HETATM   19 CL   UNL     1       0.698   6.338 -27.941  1.00  0.00    -0.084 Cl
HETATM   20  C   UNL     1      -0.671   7.464 -29.976  1.00  0.00     0.025 A 
HETATM   21  C   UNL     1      -1.170   7.490 -31.282  1.00  0.00     0.017 A 
ENDBRANCH  13  15
ENDBRANCH  12  13
ENDBRANCH  11  12
ENDBRANCH   6  11
BRANCH   8  22
HETATM   22  N   UNL     1      -6.797   2.175 -32.691  1.00  0.00    -0.340 N 
HETATM   23  H   UNL     1      -7.191   1.968 -31.778  1.00  0.00     0.167 HD
BRANCH  22  24
HETATM   24  C   UNL     1      -6.535   0.991 -33.418  1.00  0.00     0.036 A 
HETATM   25  C   UNL     1      -5.462   0.179 -33.008  1.00  0.00     0.069 A 
HETATM   26  C   UNL     1      -5.253  -1.025 -33.652  1.00  0.00     0.107 A 
HETATM   27  C   UNL     1      -6.075  -1.457 -34.663  1.00  0.00     0.105 A 
HETATM   28  O   UNL     1      -4.260  -1.911 -33.375  1.00  0.00    -0.323 OA
HETATM   29  O   UNL     1      -5.702  -2.667 -35.155  1.00  0.00    -0.323 OA
HETATM   30  C   UNL     1      -7.153  -0.712 -35.079  1.00  0.00     0.042 A 
HETATM   31  C   UNL     1      -4.552  -2.950 -34.332  1.00  0.00     0.352 A 
HETATM   32  C   UNL     1      -7.389   0.512 -34.436  1.00  0.00     0.032 A 
ENDBRANCH  22  24
ENDBRANCH   8  22
TORSDOF 6
ENDMDL
MODEL 9
REMARK VINA RESULT:      -7.9      3.846      5.110
REMARK  6 active torsions:
REMARK  status: ('A' for Active; 'I' for Inactive)
REMARK    1  A    between atoms: C_6  and  S_7 
REMARK    2  A    between atoms: S_7  and  C_8 
REMARK    3  A    between atoms: C_8  and  C_9 
REMARK    4  A    between atoms: C_9  and  C_10 
REMARK    5  A    between atoms: C_19  and  N_20 
REMARK    6  A    between atoms: N_20  and  C_21 
ROOT
HETATM    1  C   UNL     1      -4.818  -0.911 -32.097  1.00  0.00     0.001 A 
HETATM    2  C   UNL     1      -5.680  -0.090 -32.820  1.00  0.00     0.018 A 
HETATM    3  C   UNL     1      -5.448   1.308 -32.917  1.00  0.00     0.039 A 
HETATM    4  C   UNL     1      -4.345   1.866 -32.261  1.00  0.00     0.073 A 
HETATM    5  N   UNL     1      -4.073   3.173 -32.284  1.00  0.00    -0.222 NA
HETATM    6  C   UNL     1      -4.912   3.961 -32.968  1.00  0.00     0.191 A 
HETATM    7  N   UNL     1      -5.989   3.537 -33.637  1.00  0.00    -0.204 NA
HETATM    8  C   UNL     1      -6.256   2.220 -33.622  1.00  0.00     0.143 A 
HETATM    9  C   UNL     1      -3.497   1.026 -31.548  1.00  0.00     0.032 A 
HETATM   10  C   UNL     1      -3.720  -0.351 -31.463  1.00  0.00     0.002 A 
ENDROOT
BRANCH   6  11
HETATM   11  S   UNL     1      -4.595   5.707 -33.014  1.00  0.00    -0.082 SA
BRANCH  11  12
HETATM   12  C   UNL     1      -3.149   5.728 -34.112  1.00  0.00     0.166 C 
BRANCH  12  13
HETATM   13  C   UNL     1      -2.079   6.700 -33.649  1.00  0.00     0.169 C 
HETATM   14  O   UNL     1      -1.714   7.684 -34.290  1.00  0.00    -0.291 OA
BRANCH  13  15
HETATM   15  C   UNL     1      -1.415   6.432 -32.332  1.00  0.00     0.011 A 
HETATM   16  C   UNL     1      -1.022   5.147 -31.932  1.00  0.00     0.017 A 
HETATM   17  C   UNL     1      -0.407   4.953 -30.690  1.00  0.00     0.025 A 
HETATM   18  C   UNL     1      -0.179   6.039 -29.845  1.00  0.00     0.034 A 
HETATM   19 CL   UNL     1       0.577   5.792 -28.321  1.00  0.00    -0.084 Cl
HETATM   20  C   UNL     1      -0.561   7.320 -30.231  1.00  0.00     0.025 A 
HETATM   21  C   UNL     1      -1.177   7.516 -31.472  1.00  0.00     0.017 A 
ENDBRANCH  13  15
ENDBRANCH  12  13
ENDBRANCH  11  12
ENDBRANCH   6  11
BRANCH   8  22
HETATM   22  N   UNL     1      -7.379   1.724 -34.337  1.00  0.00    -0.340 N 
HETATM   23  H   UNL     1      -7.124   1.598 -35.311  1.00  0.00     0.167 HD
BRANCH  22  24
HETATM   24  C   UNL     1      -8.749   2.050 -34.203  1.00  0.00     0.036 A 
HETATM   25  C   UNL     1      -9.668   1.003 -34.004  1.00  0.00     0.069 A 
HETATM   26  C   UNL     1     -10.994   1.315 -33.780  1.00  0.00     0.107 A 
HETATM   27  C   UNL     1     -11.433   2.614 -33.726  1.00  0.00     0.105 A 
HETATM   28  O   UNL     1     -11.997   0.419 -33.578  1.00  0.00    -0.323 OA
HETATM   29  O   UNL     1     -12.768   2.703 -33.487  1.00  0.00    -0.323 OA
HETATM   30  C   UNL     1     -10.568   3.671 -33.885  1.00  0.00     0.042 A 
HETATM   31  C   UNL     1     -13.118   1.307 -33.392  1.00  0.00     0.352 A 
HETATM   32  C   UNL     1      -9.215   3.380 -34.108  1.00  0.00     0.032 A 
ENDBRANCH  22  24
ENDBRANCH   8  22
TORSDOF 6
ENDMDL
MODEL 10
REMARK VINA RESULT:      -7.8      3.973      6.836
REMARK  6 active torsions:
REMARK  status: ('A' for Active; 'I' for Inactive)
REMARK    1  A    between atoms: C_6  and  S_7 
REMARK    2  A    between atoms: S_7  and  C_8 
REMARK    3  A    between atoms: C_8  and  C_9 
REMARK    4  A    between atoms: C_9  and  C_10 
REMARK    5  A    between atoms: C_19  and  N_20 
REMARK    6  A    between atoms: N_20  and  C_21 
ROOT
HETATM    1  C   UNL     1     -13.927   1.149 -34.758  1.00  0.00     0.001 A 
HETATM    2  C   UNL     1     -12.829   1.997 -34.883  1.00  0.00     0.018 A 
HETATM    3  C   UNL     1     -11.594   1.690 -34.252  1.00  0.00     0.039 A 
HETATM    4  C   UNL     1     -11.490   0.526 -33.482  1.00  0.00     0.073 A 
HETATM    5  N   UNL     1     -10.372   0.181 -32.839  1.00  0.00    -0.222 NA
HETATM    6  C   UNL     1      -9.322   1.005 -32.949  1.00  0.00     0.191 A 
HETATM    7  N   UNL     1      -9.307   2.136 -33.662  1.00  0.00    -0.204 NA
HETATM    8  C   UNL     1     -10.429   2.477 -34.318  1.00  0.00     0.143 A 
HETATM    9  C   UNL     1     -12.598  -0.305 -33.375  1.00  0.00     0.032 A 
HETATM   10  C   UNL     1     -13.809  -0.009 -34.005  1.00  0.00     0.002 A 
ENDROOT
BRANCH   6  11
HETATM   11  S   UNL     1      -7.820   0.591 -32.099  1.00  0.00    -0.082 SA
BRANCH  11  12
HETATM   12  C   UNL     1      -6.607   1.124 -33.340  1.00  0.00     0.166 C 
BRANCH  12  13
HETATM   13  C   UNL     1      -6.527   0.175 -34.523  1.00  0.00     0.169 C 
HETATM   14  O   UNL     1      -7.042   0.390 -35.619  1.00  0.00    -0.291 OA
BRANCH  13  15
HETATM   15  C   UNL     1      -5.785  -1.115 -34.334  1.00  0.00     0.011 A 
HETATM   16  C   UNL     1      -6.178  -2.310 -34.951  1.00  0.00     0.017 A 
HETATM   17  C   UNL     1      -5.450  -3.486 -34.739  1.00  0.00     0.025 A 
HETATM   18  C   UNL     1      -4.325  -3.472 -33.914  1.00  0.00     0.034 A 
HETATM   19 CL   UNL     1      -3.435  -4.921 -33.659  1.00  0.00    -0.084 Cl
HETATM   20  C   UNL     1      -3.921  -2.291 -33.298  1.00  0.00     0.025 A 
HETATM   21  C   UNL     1      -4.649  -1.115 -33.508  1.00  0.00     0.017 A 
ENDBRANCH  13  15
ENDBRANCH  12  13
ENDBRANCH  11  12
ENDBRANCH   6  11
BRANCH   8  22
HETATM   22  N   UNL     1     -10.450   3.660 -35.105  1.00  0.00    -0.340 N 
HETATM   23  H   UNL     1      -9.733   3.596 -35.821  1.00  0.00     0.167 HD
BRANCH  22  24
HETATM   24  C   UNL     1     -10.663   5.001 -34.710  1.00  0.00     0.036 A 
HETATM   25  C   UNL     1     -10.421   6.020 -35.650  1.00  0.00     0.069 A 
HETATM   26  C   UNL     1     -10.713   7.325 -35.307  1.00  0.00     0.107 A 
HETATM   27  C   UNL     1     -11.249   7.650 -34.086  1.00  0.00     0.105 A 
HETATM   28  O   UNL     1     -10.530   8.414 -36.101  1.00  0.00    -0.323 OA
HETATM   29  O   UNL     1     -11.469   8.984 -33.953  1.00  0.00    -0.323 OA
HETATM   30  C   UNL     1     -11.529   6.686 -33.146  1.00  0.00     0.042 A 
HETATM   31  C   UNL     1     -11.012   9.462 -35.235  1.00  0.00     0.352 A 
HETATM   32  C   UNL     1     -11.247   5.353 -33.474  1.00  0.00     0.032 A 
ENDBRANCH  22  24
ENDBRANCH   8  22
TORSDOF 6
ENDMDL
