MODEL 1
REMARK VINA RESULT:      -7.7      0.000      0.000
REMARK  2 active torsions:
REMARK  status: ('A' for Active; 'I' for Inactive)
REMARK    1  A    between atoms: C_8  and  S_9 
REMARK    2  A    between atoms: S_9  and  C_10 
ROOT
HETATM    1  C   UNL     1      -5.927  -4.850 -34.987  1.00  0.00     0.002 A 
HETATM    2  C   UNL     1      -6.508  -3.582 -35.032  1.00  0.00     0.034 A 
HETATM    3  C   UNL     1      -5.872  -2.475 -34.480  1.00  0.00     0.087 A 
HETATM    4  C   UNL     1      -4.612  -2.653 -33.849  1.00  0.00     0.087 A 
HETATM    5  N   UNL     1      -3.962  -1.622 -33.282  1.00  0.00    -0.232 NA
HETATM    6  C   UNL     1      -4.566  -0.415 -33.334  1.00  0.00     0.164 A 
HETATM    7 CL   UNL     1      -3.694   0.819 -32.525  1.00  0.00    -0.059 Cl
HETATM    8  C   UNL     1      -5.788  -0.234 -33.964  1.00  0.00     0.165 A 
HETATM    9  N   UNL     1      -6.461  -1.260 -34.552  1.00  0.00    -0.234 NA
HETATM   10  C   UNL     1      -4.043  -3.918 -33.817  1.00  0.00     0.034 A 
HETATM   11  C   UNL     1      -4.689  -5.018 -34.381  1.00  0.00     0.002 A 
ENDROOT
BRANCH   8  12
HETATM   12  S   UNL     1      -6.656   1.332 -34.053  1.00  0.00     0.078 S 
HETATM   13  O   UNL     1      -7.858   1.089 -34.918  1.00  0.00    -0.251 OA
BRANCH  12  14
HETATM   14  C   UNL     1      -7.299   1.500 -32.347  1.00  0.00     0.112 C 
HETATM   15  C   UNL     1      -8.813   1.262 -32.329  1.00  0.00     0.250 C 
HETATM   16  N   UNL     1      -9.367   1.537 -30.959  1.00  0.00    -0.074 N 
HETATM   17  H   UNL     1      -9.001   0.847 -30.287  1.00  0.00     0.277 HD
HETATM   18  H   UNL     1     -10.386   1.383 -30.983  1.00  0.00     0.277 HD
HETATM   19  C   UNL     1      -9.102   2.923 -30.471  1.00  0.00     0.232 C 
HETATM   20  C   UNL     1      -7.601   3.165 -30.459  1.00  0.00     0.029 C 
HETATM   21  C   UNL     1      -6.976   2.911 -31.831  1.00  0.00     0.021 C 
ENDBRANCH  12  14
ENDBRANCH   8  12
TORSDOF 2
ENDMDL
MODEL 2
REMARK VINA RESULT:      -7.6      1.841      2.148
REMARK  2 active torsions:
REMARK  status: ('A' for Active; 'I' for Inactive)
REMARK    1  A    between atoms: C_8  and  S_9 
REMARK    2  A    between atoms: S_9  and  C_10 
ROOT
HETATM    1  C   UNL     1      -6.306  -4.619 -34.971  1.00  0.00     0.002 A 
HETATM    2  C   UNL     1      -6.879  -3.368 -34.738  1.00  0.00     0.034 A 
HETATM    3  C   UNL     1      -6.131  -2.313 -34.229  1.00  0.00     0.087 A 
HETATM    4  C   UNL     1      -4.758  -2.526 -33.932  1.00  0.00     0.087 A 
HETATM    5  N   UNL     1      -3.993  -1.548 -33.420  1.00  0.00    -0.232 NA
HETATM    6  C   UNL     1      -4.591  -0.357 -33.195  1.00  0.00     0.164 A 
HETATM    7 CL   UNL     1      -3.552   0.803 -32.478  1.00  0.00    -0.059 Cl
HETATM    8  C   UNL     1      -5.926  -0.140 -33.499  1.00  0.00     0.165 A 
HETATM    9  N   UNL     1      -6.719  -1.112 -34.026  1.00  0.00    -0.234 NA
HETATM   10  C   UNL     1      -4.199  -3.773 -34.175  1.00  0.00     0.034 A 
HETATM   11  C   UNL     1      -4.960  -4.820 -34.693  1.00  0.00     0.002 A 
ENDROOT
BRANCH   8  12
HETATM   12  S   UNL     1      -6.789   1.405 -33.209  1.00  0.00     0.078 S 
HETATM   13  O   UNL     1      -6.213   2.389 -34.185  1.00  0.00    -0.251 OA
BRANCH  12  14
HETATM   14  C   UNL     1      -8.468   1.016 -33.828  1.00  0.00     0.112 C 
HETATM   15  C   UNL     1      -9.133   2.283 -34.374  1.00  0.00     0.250 C 
HETATM   16  N   UNL     1     -10.561   2.000 -34.752  1.00  0.00    -0.074 N 
HETATM   17  H   UNL     1     -10.590   1.344 -35.546  1.00  0.00     0.277 HD
HETATM   18  H   UNL     1     -10.985   2.872 -35.101  1.00  0.00     0.277 HD
HETATM   19  C   UNL     1     -11.389   1.481 -33.623  1.00  0.00     0.232 C 
HETATM   20  C   UNL     1     -10.754   0.207 -33.087  1.00  0.00     0.029 C 
HETATM   21  C   UNL     1      -9.299   0.433 -32.674  1.00  0.00     0.021 C 
ENDBRANCH  12  14
ENDBRANCH   8  12
TORSDOF 2
ENDMDL
MODEL 3
REMARK VINA RESULT:      -7.2      2.862      3.784
REMARK  2 active torsions:
REMARK  status: ('A' for Active; 'I' for Inactive)
REMARK    1  A    between atoms: C_8  and  S_9 
REMARK    2  A    between atoms: S_9  and  C_10 
ROOT
HETATM    1  C   UNL     1      -3.061  -3.718 -32.356  1.00  0.00     0.002 A 
HETATM    2  C   UNL     1      -3.475  -2.438 -31.986  1.00  0.00     0.034 A 
HETATM    3  C   UNL     1      -4.399  -1.730 -32.747  1.00  0.00     0.087 A 
HETATM    4  C   UNL     1      -4.916  -2.325 -33.928  1.00  0.00     0.087 A 
HETATM    5  N   UNL     1      -5.796  -1.678 -34.711  1.00  0.00    -0.232 NA
HETATM    6  C   UNL     1      -6.159  -0.435 -34.325  1.00  0.00     0.164 A 
HETATM    7 CL   UNL     1      -7.229   0.333 -35.422  1.00  0.00    -0.059 Cl
HETATM    8  C   UNL     1      -5.670   0.143 -33.164  1.00  0.00     0.165 A 
HETATM    9  N   UNL     1      -4.785  -0.495 -32.351  1.00  0.00    -0.234 NA
HETATM   10  C   UNL     1      -4.500  -3.602 -34.281  1.00  0.00     0.034 A 
HETATM   11  C   UNL     1      -3.578  -4.303 -33.505  1.00  0.00     0.002 A 
ENDROOT
BRANCH   8  12
HETATM   12  S   UNL     1      -6.092   1.793 -32.602  1.00  0.00     0.078 S 
HETATM   13  O   UNL     1      -6.476   1.652 -31.158  1.00  0.00    -0.251 OA
BRANCH  12  14
HETATM   14  C   UNL     1      -4.456   2.616 -32.602  1.00  0.00     0.112 C 
HETATM   15  C   UNL     1      -3.970   2.818 -31.163  1.00  0.00     0.250 C 
HETATM   16  N   UNL     1      -2.696   3.619 -31.152  1.00  0.00    -0.074 N 
HETATM   17  H   UNL     1      -1.938   3.079 -31.595  1.00  0.00     0.277 HD
HETATM   18  H   UNL     1      -2.403   3.751 -30.173  1.00  0.00     0.277 HD
HETATM   19  C   UNL     1      -2.823   4.958 -31.800  1.00  0.00     0.232 C 
HETATM   20  C   UNL     1      -3.281   4.771 -33.238  1.00  0.00     0.029 C 
HETATM   21  C   UNL     1      -4.582   3.970 -33.317  1.00  0.00     0.021 C 
ENDBRANCH  12  14
ENDBRANCH   8  12
TORSDOF 2
ENDMDL
MODEL 4
REMARK VINA RESULT:      -7.1      2.784      3.579
REMARK  2 active torsions:
REMARK  status: ('A' for Active; 'I' for Inactive)
REMARK    1  A    between atoms: C_8  and  S_9 
REMARK    2  A    between atoms: S_9  and  C_10 
ROOT
HETATM    1  C   UNL     1      -5.746  -2.683 -34.972  1.00  0.00     0.002 A 
HETATM    2  C   UNL     1      -6.840  -1.870 -34.671  1.00  0.00     0.034 A 
HETATM    3  C   UNL     1      -6.808  -0.982 -33.602  1.00  0.00     0.087 A 
HETATM    4  C   UNL     1      -5.638  -0.918 -32.799  1.00  0.00     0.087 A 
HETATM    5  N   UNL     1      -5.560  -0.092 -31.741  1.00  0.00    -0.232 NA
HETATM    6  C   UNL     1      -6.646   0.666 -31.475  1.00  0.00     0.164 A 
HETATM    7 CL   UNL     1      -6.474   1.633 -30.070  1.00  0.00    -0.059 Cl
HETATM    8  C   UNL     1      -7.783   0.619 -32.267  1.00  0.00     0.165 A 
HETATM    9  N   UNL     1      -7.883  -0.202 -33.347  1.00  0.00    -0.234 NA
HETATM   10  C   UNL     1      -4.555  -1.727 -33.113  1.00  0.00     0.034 A 
HETATM   11  C   UNL     1      -4.599  -2.608 -34.193  1.00  0.00     0.002 A 
ENDROOT
BRANCH   8  12
HETATM   12  S   UNL     1      -9.266   1.580 -31.961  1.00  0.00     0.078 S 
HETATM   13  O   UNL     1      -8.801   2.981 -31.690  1.00  0.00    -0.251 OA
BRANCH  12  14
HETATM   14  C   UNL     1     -10.030   1.624 -33.625  1.00  0.00     0.112 C 
HETATM   15  C   UNL     1      -9.990   3.051 -34.183  1.00  0.00     0.250 C 
HETATM   16  N   UNL     1     -10.741   3.122 -35.485  1.00  0.00    -0.074 N 
HETATM   17  H   UNL     1     -10.256   2.562 -36.201  1.00  0.00     0.277 HD
HETATM   18  H   UNL     1     -10.709   4.093 -35.827  1.00  0.00     0.277 HD
HETATM   19  C   UNL     1     -12.168   2.697 -35.378  1.00  0.00     0.232 C 
HETATM   20  C   UNL     1     -12.223   1.272 -34.848  1.00  0.00     0.029 C 
HETATM   21  C   UNL     1     -11.483   1.136 -33.516  1.00  0.00     0.021 C 
ENDBRANCH  12  14
ENDBRANCH   8  12
TORSDOF 2
ENDMDL
MODEL 5
REMARK VINA RESULT:      -7.1      3.646      4.716
REMARK  2 active torsions:
REMARK  status: ('A' for Active; 'I' for Inactive)
REMARK    1  A    between atoms: C_8  and  S_9 
REMARK    2  A    between atoms: S_9  and  C_10 
ROOT
HETATM    1  C   UNL     1      -5.093  -2.886 -34.578  1.00  0.00     0.002 A 
HETATM    2  C   UNL     1      -4.368  -1.870 -33.953  1.00  0.00     0.034 A 
HETATM    3  C   UNL     1      -5.002  -0.762 -33.402  1.00  0.00     0.087 A 
HETATM    4  C   UNL     1      -6.416  -0.666 -33.494  1.00  0.00     0.087 A 
HETATM    5  N   UNL     1      -7.079   0.392 -32.996  1.00  0.00    -0.232 NA
HETATM    6  C   UNL     1      -6.337   1.360 -32.414  1.00  0.00     0.164 A 
HETATM    7 CL   UNL     1      -7.265   2.697 -31.873  1.00  0.00    -0.059 Cl
HETATM    8  C   UNL     1      -4.959   1.261 -32.307  1.00  0.00     0.165 A 
HETATM    9  N   UNL     1      -4.266   0.196 -32.795  1.00  0.00    -0.234 NA
HETATM   10  C   UNL     1      -7.126  -1.686 -34.112  1.00  0.00     0.034 A 
HETATM   11  C   UNL     1      -6.477  -2.795 -34.654  1.00  0.00     0.002 A 
ENDROOT
BRANCH   8  12
HETATM   12  S   UNL     1      -3.911   2.514 -31.566  1.00  0.00     0.078 S 
HETATM   13  O   UNL     1      -2.708   1.787 -31.040  1.00  0.00    -0.251 OA
BRANCH  12  14
HETATM   14  C   UNL     1      -3.330   3.433 -33.040  1.00  0.00     0.112 C 
HETATM   15  C   UNL     1      -2.140   4.323 -32.669  1.00  0.00     0.250 C 
HETATM   16  N   UNL     1      -1.749   5.184 -33.838  1.00  0.00    -0.074 N 
HETATM   17  H   UNL     1      -1.389   4.595 -34.603  1.00  0.00     0.277 HD
HETATM   18  H   UNL     1      -0.958   5.780 -33.554  1.00  0.00     0.277 HD
HETATM   19  C   UNL     1      -2.853   6.057 -34.336  1.00  0.00     0.232 C 
HETATM   20  C   UNL     1      -4.034   5.184 -34.733  1.00  0.00     0.029 C 
HETATM   21  C   UNL     1      -4.488   4.289 -33.579  1.00  0.00     0.021 C 
ENDBRANCH  12  14
ENDBRANCH   8  12
TORSDOF 2
ENDMDL
MODEL 6
REMARK VINA RESULT:      -6.7      3.825      6.910
REMARK  2 active torsions:
REMARK  status: ('A' for Active; 'I' for Inactive)
REMARK    1  A    between atoms: C_8  and  S_9 
REMARK    2  A    between atoms: S_9  and  C_10 
ROOT
HETATM    1  C   UNL     1     -13.651  -0.403 -33.615  1.00  0.00     0.002 A 
HETATM    2  C   UNL     1     -12.281  -0.201 -33.444  1.00  0.00     0.034 A 
HETATM    3  C   UNL     1     -11.680   1.006 -33.782  1.00  0.00     0.087 A 
HETATM    4  C   UNL     1     -12.484   2.044 -34.322  1.00  0.00     0.087 A 
HETATM    5  N   UNL     1     -11.952   3.225 -34.685  1.00  0.00    -0.232 NA
HETATM    6  C   UNL     1     -10.619   3.372 -34.517  1.00  0.00     0.164 A 
HETATM    7 CL   UNL     1     -10.026   4.883 -35.071  1.00  0.00    -0.059 Cl
HETATM    8  C   UNL     1      -9.834   2.367 -33.973  1.00  0.00     0.165 A 
HETATM    9  N   UNL     1     -10.350   1.168 -33.592  1.00  0.00    -0.234 NA
HETATM   10  C   UNL     1     -13.846   1.833 -34.481  1.00  0.00     0.034 A 
HETATM   11  C   UNL     1     -14.437   0.620 -34.132  1.00  0.00     0.002 A 
ENDROOT
BRANCH   8  12
HETATM   12  S   UNL     1      -8.060   2.487 -33.742  1.00  0.00     0.078 S 
HETATM   13  O   UNL     1      -7.861   3.083 -32.378  1.00  0.00    -0.251 OA
BRANCH  12  14
HETATM   14  C   UNL     1      -7.586   0.725 -33.586  1.00  0.00     0.112 C 
HETATM   15  C   UNL     1      -6.450   0.574 -32.568  1.00  0.00     0.250 C 
HETATM   16  N   UNL     1      -5.961  -0.848 -32.541  1.00  0.00    -0.074 N 
HETATM   17  H   UNL     1      -6.701  -1.467 -32.180  1.00  0.00     0.277 HD
HETATM   18  H   UNL     1      -5.190  -0.915 -31.860  1.00  0.00     0.277 HD
HETATM   19  C   UNL     1      -5.477  -1.342 -33.864  1.00  0.00     0.232 C 
HETATM   20  C   UNL     1      -6.602  -1.222 -34.880  1.00  0.00     0.029 C 
HETATM   21  C   UNL     1      -7.138   0.208 -34.963  1.00  0.00     0.021 C 
ENDBRANCH  12  14
ENDBRANCH   8  12
TORSDOF 2
ENDMDL
MODEL 7
REMARK VINA RESULT:      -6.6      5.411      7.542
REMARK  2 active torsions:
REMARK  status: ('A' for Active; 'I' for Inactive)
REMARK    1  A    between atoms: C_8  and  S_9 
REMARK    2  A    between atoms: S_9  and  C_10 
ROOT
HETATM    1  C   UNL     1       0.575   6.059 -30.266  1.00  0.00     0.002 A 
HETATM    2  C   UNL     1      -0.357   5.024 -30.355  1.00  0.00     0.034 A 
HETATM    3  C   UNL     1      -1.267   4.959 -31.404  1.00  0.00     0.087 A 
HETATM    4  C   UNL     1      -1.247   5.979 -32.393  1.00  0.00     0.087 A 
HETATM    5  N   UNL     1      -2.117   5.977 -33.418  1.00  0.00    -0.232 NA
HETATM    6  C   UNL     1      -3.012   4.965 -33.458  1.00  0.00     0.164 A 
HETATM    7 CL   UNL     1      -4.120   5.088 -34.761  1.00  0.00    -0.059 Cl
HETATM    8  C   UNL     1      -3.023   3.959 -32.505  1.00  0.00     0.165 A 
HETATM    9  N   UNL     1      -2.148   3.935 -31.464  1.00  0.00    -0.234 NA
HETATM   10  C   UNL     1      -0.312   6.999 -32.295  1.00  0.00     0.034 A 
HETATM   11  C   UNL     1       0.600   7.048 -31.241  1.00  0.00     0.002 A 
ENDROOT
BRANCH   8  12
HETATM   12  S   UNL     1      -4.193   2.600 -32.485  1.00  0.00     0.078 S 
HETATM   13  O   UNL     1      -3.400   1.378 -32.122  1.00  0.00    -0.251 OA
BRANCH  12  14
HETATM   14  C   UNL     1      -5.198   2.996 -31.006  1.00  0.00     0.112 C 
HETATM   15  C   UNL     1      -6.089   1.804 -30.642  1.00  0.00     0.250 C 
HETATM   16  N   UNL     1      -7.018   2.172 -29.518  1.00  0.00    -0.074 N 
HETATM   17  H   UNL     1      -6.477   2.349 -28.658  1.00  0.00     0.277 HD
HETATM   18  H   UNL     1      -7.612   1.357 -29.305  1.00  0.00     0.277 HD
HETATM   19  C   UNL     1      -7.896   3.340 -29.823  1.00  0.00     0.232 C 
HETATM   20  C   UNL     1      -7.024   4.540 -30.163  1.00  0.00     0.029 C 
HETATM   21  C   UNL     1      -6.061   4.232 -31.310  1.00  0.00     0.021 C 
ENDBRANCH  12  14
ENDBRANCH   8  12
TORSDOF 2
ENDMDL
MODEL 8
REMARK VINA RESULT:      -6.6      3.038      3.876
REMARK  2 active torsions:
REMARK  status: ('A' for Active; 'I' for Inactive)
REMARK    1  A    between atoms: C_8  and  S_9 
REMARK    2  A    between atoms: S_9  and  C_10 
ROOT
HETATM    1  C   UNL     1      -4.411  -2.844 -34.401  1.00  0.00     0.002 A 
HETATM    2  C   UNL     1      -4.397  -1.989 -33.298  1.00  0.00     0.034 A 
HETATM    3  C   UNL     1      -5.521  -1.251 -32.942  1.00  0.00     0.087 A 
HETATM    4  C   UNL     1      -6.696  -1.368 -33.730  1.00  0.00     0.087 A 
HETATM    5  N   UNL     1      -7.805  -0.663 -33.444  1.00  0.00    -0.232 NA
HETATM    6  C   UNL     1      -7.744   0.164 -32.377  1.00  0.00     0.164 A 
HETATM    7 CL   UNL     1      -9.180   1.068 -32.135  1.00  0.00    -0.059 Cl
HETATM    8  C   UNL     1      -6.604   0.268 -31.595  1.00  0.00     0.165 A 
HETATM    9  N   UNL     1      -5.474  -0.441 -31.860  1.00  0.00    -0.234 NA
HETATM   10  C   UNL     1      -6.698  -2.227 -34.821  1.00  0.00     0.034 A 
HETATM   11  C   UNL     1      -5.566  -2.967 -35.162  1.00  0.00     0.002 A 
ENDROOT
BRANCH   8  12
HETATM   12  S   UNL     1      -6.447   1.359 -30.181  1.00  0.00     0.078 S 
HETATM   13  O   UNL     1      -5.571   0.637 -29.199  1.00  0.00    -0.251 OA
BRANCH  12  14
HETATM   14  C   UNL     1      -5.416   2.710 -30.865  1.00  0.00     0.112 C 
HETATM   15  C   UNL     1      -6.003   3.196 -32.194  1.00  0.00     0.250 C 
HETATM   16  N   UNL     1      -5.085   4.204 -32.830  1.00  0.00    -0.074 N 
HETATM   17  H   UNL     1      -5.044   5.056 -32.251  1.00  0.00     0.277 HD
HETATM   18  H   UNL     1      -5.498   4.501 -33.726  1.00  0.00     0.277 HD
HETATM   19  C   UNL     1      -3.708   3.687 -33.083  1.00  0.00     0.232 C 
HETATM   20  C   UNL     1      -3.103   3.223 -31.767  1.00  0.00     0.029 C 
HETATM   21  C   UNL     1      -3.987   2.185 -31.074  1.00  0.00     0.021 C 
ENDBRANCH  12  14
ENDBRANCH   8  12
TORSDOF 2
ENDMDL
MODEL 9
REMARK VINA RESULT:      -6.5      2.933      6.311
REMARK  2 active torsions:
REMARK  status: ('A' for Active; 'I' for Inactive)
REMARK    1  A    between atoms: C_8  and  S_9 
REMARK    2  A    between atoms: S_9  and  C_10 
ROOT
HETATM    1  C   UNL     1      -4.537   5.630 -33.731  1.00  0.00     0.002 A 
HETATM    2  C   UNL     1      -5.320   4.494 -33.518  1.00  0.00     0.034 A 
HETATM    3  C   UNL     1      -4.800   3.365 -32.896  1.00  0.00     0.087 A 
HETATM    4  C   UNL     1      -3.442   3.373 -32.482  1.00  0.00     0.087 A 
HETATM    5  N   UNL     1      -2.882   2.302 -31.894  1.00  0.00    -0.232 NA
HETATM    6  C   UNL     1      -3.670   1.218 -31.721  1.00  0.00     0.164 A 
HETATM    7 CL   UNL     1      -2.850  -0.117 -31.026  1.00  0.00    -0.059 Cl
HETATM    8  C   UNL     1      -5.002   1.212 -32.107  1.00  0.00     0.165 A 
HETATM    9  N   UNL     1      -5.592   2.287 -32.697  1.00  0.00    -0.234 NA
HETATM   10  C   UNL     1      -2.676   4.512 -32.694  1.00  0.00     0.034 A 
HETATM   11  C   UNL     1      -3.212   5.640 -33.314  1.00  0.00     0.002 A 
ENDROOT
BRANCH   8  12
HETATM   12  S   UNL     1      -6.098  -0.195 -31.928  1.00  0.00     0.078 S 
HETATM   13  O   UNL     1      -7.493   0.357 -31.996  1.00  0.00    -0.251 OA
BRANCH  12  14
HETATM   14  C   UNL     1      -5.836  -1.076 -33.512  1.00  0.00     0.112 C 
HETATM   15  C   UNL     1      -7.079  -1.898 -33.868  1.00  0.00     0.250 C 
HETATM   16  N   UNL     1      -6.818  -2.733 -35.091  1.00  0.00    -0.074 N 
HETATM   17  H   UNL     1      -6.681  -2.123 -35.911  1.00  0.00     0.277 HD
HETATM   18  H   UNL     1      -7.664  -3.284 -35.297  1.00  0.00     0.277 HD
HETATM   19  C   UNL     1      -5.662  -3.666 -34.945  1.00  0.00     0.232 C 
HETATM   20  C   UNL     1      -4.414  -2.861 -34.616  1.00  0.00     0.029 C 
HETATM   21  C   UNL     1      -4.612  -1.995 -33.371  1.00  0.00     0.021 C 
ENDBRANCH  12  14
ENDBRANCH   8  12
TORSDOF 2
ENDMDL
MODEL 10
REMARK VINA RESULT:      -6.4      6.909      8.828
REMARK  2 active torsions:
REMARK  status: ('A' for Active; 'I' for Inactive)
REMARK    1  A    between atoms: C_8  and  S_9 
REMARK    2  A    between atoms: S_9  and  C_10 
ROOT
HETATM    1  C   UNL     1      -7.620   5.886 -32.276  1.00  0.00     0.002 A 
HETATM    2  C   UNL     1      -6.391   6.462 -31.951  1.00  0.00     0.034 A 
HETATM    3  C   UNL     1      -5.248   6.193 -32.696  1.00  0.00     0.087 A 
HETATM    4  C   UNL     1      -5.341   5.304 -33.799  1.00  0.00     0.087 A 
HETATM    5  N   UNL     1      -4.264   4.994 -34.541  1.00  0.00    -0.232 NA
HETATM    6  C   UNL     1      -3.091   5.561 -34.183  1.00  0.00     0.164 A 
HETATM    7 CL   UNL     1      -1.767   5.051 -35.144  1.00  0.00    -0.059 Cl
HETATM    8  C   UNL     1      -3.000   6.442 -33.117  1.00  0.00     0.165 A 
HETATM    9  N   UNL     1      -4.077   6.779 -32.357  1.00  0.00    -0.234 NA
HETATM   10  C   UNL     1      -6.571   4.743 -34.115  1.00  0.00     0.034 A 
HETATM   11  C   UNL     1      -7.711   5.028 -33.364  1.00  0.00     0.002 A 
ENDROOT
BRANCH   8  12
HETATM   12  S   UNL     1      -1.475   7.215 -32.574  1.00  0.00     0.078 S 
HETATM   13  O   UNL     1      -1.846   8.604 -32.144  1.00  0.00    -0.251 OA
BRANCH  12  14
HETATM   14  C   UNL     1      -1.121   6.295 -31.030  1.00  0.00     0.112 C 
HETATM   15  C   UNL     1      -1.311   7.212 -29.817  1.00  0.00     0.250 C 
HETATM   16  N   UNL     1      -0.886   6.506 -28.559  1.00  0.00    -0.074 N 
HETATM   17  H   UNL     1      -1.517   5.713 -28.371  1.00  0.00     0.277 HD
HETATM   18  H   UNL     1      -1.011   7.151 -27.765  1.00  0.00     0.277 HD
HETATM   19  C   UNL     1       0.533   6.042 -28.582  1.00  0.00     0.232 C 
HETATM   20  C   UNL     1       0.730   5.109 -29.767  1.00  0.00     0.029 C 
HETATM   21  C   UNL     1       0.324   5.775 -31.083  1.00  0.00     0.021 C 
ENDBRANCH  12  14
ENDBRANCH   8  12
TORSDOF 2
ENDMDL
