MODEL 1
REMARK VINA RESULT:      -8.1      0.000      0.000
REMARK  9 active torsions:
REMARK  status: ('A' for Active; 'I' for Inactive)
REMARK    1  A    between atoms: C_2  and  C_3 
REMARK    2  A    between atoms: C_6  and  N_7 
REMARK    3  A    between atoms: N_7  and  S_8 
REMARK    4  A    between atoms: S_8  and  C_9 
REMARK    5  A    between atoms: C_15  and  C_16 
REMARK       I    between atoms: C_16  and  N_17 
REMARK    6  A    between atoms: N_17  and  C_18 
REMARK    7  A    between atoms: C_18  and  C_19 
REMARK    8  A    between atoms: C_19  and  C_20 
REMARK    9  A    between atoms: C_20  and  O_21 
ROOT
HETATM    1  C   UNL     1      -6.594   2.168 -32.280  1.00  0.00     0.081 A 
HETATM    2  C   UNL     1      -7.810   1.521 -32.513  1.00  0.00     0.043 A 
HETATM    3  C   UNL     1      -8.799   2.180 -33.248  1.00  0.00     0.043 A 
HETATM    4  C   UNL     1      -8.578   3.469 -33.766  1.00  0.00     0.046 A 
HETATM    5  N   UNL     1      -9.603   4.121 -34.462  1.00  0.00    -0.364 N 
HETATM    6  C   UNL     1     -10.789   3.483 -34.728  1.00  0.00     0.109 A 
HETATM    7  C   UNL     1     -11.123   2.251 -34.309  1.00  0.00     0.098 A 
HETATM    8  C   UNL     1     -10.107   1.517 -33.501  1.00  0.00     0.201 A 
HETATM    9  O   UNL     1     -10.327   0.394 -33.052  1.00  0.00    -0.286 OA
HETATM   10  C   UNL     1      -7.356   4.100 -33.520  1.00  0.00     0.032 A 
HETATM   11  C   UNL     1      -6.357   3.450 -32.788  1.00  0.00     0.027 A 
HETATM   12  H   UNL     1      -9.396   4.980 -34.961  1.00  0.00     0.165 HD
ENDROOT
BRANCH   1  13
HETATM   13  S   UNL     1      -5.313   1.310 -31.388  1.00  0.00     0.263 S 
HETATM   14  O   UNL     1      -5.926   0.209 -30.681  1.00  0.00    -0.200 OA
HETATM   15  O   UNL     1      -4.540   2.315 -30.687  1.00  0.00    -0.200 OA
BRANCH  13  16
HETATM   16  N   UNL     1      -4.325   0.729 -32.624  1.00  0.00    -0.281 N 
HETATM   17  H   UNL     1      -4.015   1.461 -33.261  1.00  0.00     0.179 HD
BRANCH  16  18
HETATM   18  C   UNL     1      -4.562  -0.565 -33.160  1.00  0.00     0.042 A 
HETATM   19  C   UNL     1      -3.746  -1.631 -32.785  1.00  0.00     0.030 A 
HETATM   20  C   UNL     1      -3.982  -2.905 -33.311  1.00  0.00     0.009 A 
HETATM   21  C   UNL     1      -5.035  -3.120 -34.213  1.00  0.00    -0.058 A 
HETATM   22  C   UNL     1      -5.843  -2.039 -34.584  1.00  0.00     0.009 A 
HETATM   23  C   UNL     1      -5.602  -0.766 -34.065  1.00  0.00     0.030 A 
BRANCH  21  24
HETATM   24  C   UNL     1      -5.321  -4.502 -34.744  1.00  0.00     0.034 C 
HETATM   25  C   UNL     1      -6.676  -4.575 -35.430  1.00  0.00     0.010 C 
ENDBRANCH  21  24
ENDBRANCH  16  18
ENDBRANCH  13  16
ENDBRANCH   1  13
BRANCH   7  26
HETATM   26  C   UNL     1     -12.461   1.710 -34.680  1.00  0.00     0.257 C 
HETATM   27  N   UNL     1     -13.192   1.190 -33.642  1.00  0.00    -0.357 N 
HETATM   28  H   UNL     1     -12.794   1.233 -32.703  1.00  0.00     0.162 HD
HETATM   29  O   UNL     1     -12.866   1.734 -35.839  1.00  0.00    -0.267 OA
BRANCH  27  30
HETATM   30  C   UNL     1     -14.516   0.631 -33.814  1.00  0.00     0.125 C 
BRANCH  30  31
HETATM   31  C   UNL     1     -15.628   1.532 -33.287  1.00  0.00     0.046 C 
BRANCH  31  32
HETATM   32  C   UNL     1     -15.254   2.229 -31.984  1.00  0.00     0.168 C 
BRANCH  32  33
HETATM   33  O   UNL     1     -14.538   3.423 -32.305  1.00  0.00    -0.396 OA
HETATM   34  C   UNL     1     -13.897   3.976 -31.164  1.00  0.00     0.201 C 
ENDBRANCH  32  33
ENDBRANCH  31  32
ENDBRANCH  30  31
ENDBRANCH  27  30
ENDBRANCH   7  26
TORSDOF 9
ENDMDL
MODEL 2
REMARK VINA RESULT:      -8.1      4.613      8.783
REMARK  9 active torsions:
REMARK  status: ('A' for Active; 'I' for Inactive)
REMARK    1  A    between atoms: C_2  and  C_3 
REMARK    2  A    between atoms: C_6  and  N_7 
REMARK    3  A    between atoms: N_7  and  S_8 
REMARK    4  A    between atoms: S_8  and  C_9 
REMARK    5  A    between atoms: C_15  and  C_16 
REMARK       I    between atoms: C_16  and  N_17 
REMARK    6  A    between atoms: N_17  and  C_18 
REMARK    7  A    between atoms: C_18  and  C_19 
REMARK    8  A    between atoms: C_19  and  C_20 
REMARK    9  A    between atoms: C_20  and  O_21 
ROOT
HETATM    1  C   UNL     1      -6.439   3.657 -32.919  1.00  0.00     0.081 A 
HETATM    2  C   UNL     1      -5.192   3.383 -32.351  1.00  0.00     0.043 A 
HETATM    3  C   UNL     1      -4.285   4.431 -32.167  1.00  0.00     0.043 A 
HETATM    4  C   UNL     1      -4.620   5.749 -32.526  1.00  0.00     0.046 A 
HETATM    5  N   UNL     1      -3.676   6.770 -32.370  1.00  0.00    -0.364 N 
HETATM    6  C   UNL     1      -2.462   6.521 -31.781  1.00  0.00     0.109 A 
HETATM    7  C   UNL     1      -2.023   5.318 -31.376  1.00  0.00     0.098 A 
HETATM    8  C   UNL     1      -2.947   4.164 -31.574  1.00  0.00     0.201 A 
HETATM    9  O   UNL     1      -2.629   3.019 -31.258  1.00  0.00    -0.286 OA
HETATM   10  C   UNL     1      -5.871   6.001 -33.096  1.00  0.00     0.032 A 
HETATM   11  C   UNL     1      -6.788   4.961 -33.282  1.00  0.00     0.027 A 
HETATM   12  H   UNL     1      -3.965   7.736 -32.487  1.00  0.00     0.165 HD
ENDROOT
BRANCH   1  13
HETATM   13  S   UNL     1      -7.615   2.332 -33.107  1.00  0.00     0.263 S 
HETATM   14  O   UNL     1      -7.702   2.013 -34.514  1.00  0.00    -0.200 OA
HETATM   15  O   UNL     1      -8.790   2.699 -32.345  1.00  0.00    -0.200 OA
BRANCH  13  16
HETATM   16  N   UNL     1      -6.883   1.065 -32.269  1.00  0.00    -0.281 N 
HETATM   17  H   UNL     1      -6.281   1.385 -31.513  1.00  0.00     0.179 HD
BRANCH  16  18
HETATM   18  C   UNL     1      -6.505  -0.112 -32.969  1.00  0.00     0.042 A 
HETATM   19  C   UNL     1      -7.484  -0.940 -33.515  1.00  0.00     0.030 A 
HETATM   20  C   UNL     1      -7.110  -2.097 -34.206  1.00  0.00     0.009 A 
HETATM   21  C   UNL     1      -5.757  -2.430 -34.357  1.00  0.00    -0.058 A 
HETATM   22  C   UNL     1      -4.784  -1.591 -33.800  1.00  0.00     0.009 A 
HETATM   23  C   UNL     1      -5.158  -0.441 -33.103  1.00  0.00     0.030 A 
BRANCH  21  24
HETATM   24  C   UNL     1      -5.350  -3.651 -35.143  1.00  0.00     0.034 C 
HETATM   25  C   UNL     1      -6.526  -4.581 -35.393  1.00  0.00     0.010 C 
ENDBRANCH  21  24
ENDBRANCH  16  18
ENDBRANCH  13  16
ENDBRANCH   1  13
BRANCH   7  26
HETATM   26  C   UNL     1      -0.668   5.222 -30.762  1.00  0.00     0.257 C 
HETATM   27  N   UNL     1      -0.585   5.635 -29.457  1.00  0.00    -0.357 N 
HETATM   28  H   UNL     1      -1.441   5.946 -28.994  1.00  0.00     0.162 HD
HETATM   29  O   UNL     1       0.297   4.801 -31.395  1.00  0.00    -0.267 OA
BRANCH  27  30
HETATM   30  C   UNL     1       0.647   5.602 -28.698  1.00  0.00     0.125 C 
BRANCH  30  31
HETATM   31  C   UNL     1       0.910   6.884 -27.914  1.00  0.00     0.046 C 
BRANCH  31  32
HETATM   32  C   UNL     1      -0.253   7.270 -27.007  1.00  0.00     0.168 C 
BRANCH  32  33
HETATM   33  O   UNL     1      -0.718   6.090 -26.351  1.00  0.00    -0.396 OA
HETATM   34  C   UNL     1      -2.018   6.269 -25.803  1.00  0.00     0.201 C 
ENDBRANCH  32  33
ENDBRANCH  31  32
ENDBRANCH  30  31
ENDBRANCH  27  30
ENDBRANCH   7  26
TORSDOF 9
ENDMDL
MODEL 3
REMARK VINA RESULT:      -8.0      5.909      9.548
REMARK  9 active torsions:
REMARK  status: ('A' for Active; 'I' for Inactive)
REMARK    1  A    between atoms: C_2  and  C_3 
REMARK    2  A    between atoms: C_6  and  N_7 
REMARK    3  A    between atoms: N_7  and  S_8 
REMARK    4  A    between atoms: S_8  and  C_9 
REMARK    5  A    between atoms: C_15  and  C_16 
REMARK       I    between atoms: C_16  and  N_17 
REMARK    6  A    between atoms: N_17  and  C_18 
REMARK    7  A    between atoms: C_18  and  C_19 
REMARK    8  A    between atoms: C_19  and  C_20 
REMARK    9  A    between atoms: C_20  and  O_21 
ROOT
HETATM    1  C   UNL     1      -2.575   5.009 -32.066  1.00  0.00     0.081 A 
HETATM    2  C   UNL     1      -2.913   3.662 -31.917  1.00  0.00     0.043 A 
HETATM    3  C   UNL     1      -4.057   3.174 -32.557  1.00  0.00     0.043 A 
HETATM    4  C   UNL     1      -4.852   4.014 -33.357  1.00  0.00     0.046 A 
HETATM    5  N   UNL     1      -6.014   3.508 -33.951  1.00  0.00    -0.364 N 
HETATM    6  C   UNL     1      -6.338   2.180 -33.842  1.00  0.00     0.109 A 
HETATM    7  C   UNL     1      -5.659   1.267 -33.127  1.00  0.00     0.098 A 
HETATM    8  C   UNL     1      -4.445   1.746 -32.406  1.00  0.00     0.201 A 
HETATM    9  O   UNL     1      -3.769   0.993 -31.707  1.00  0.00    -0.286 OA
HETATM   10  C   UNL     1      -4.498   5.360 -33.491  1.00  0.00     0.032 A 
HETATM   11  C   UNL     1      -3.355   5.859 -32.857  1.00  0.00     0.027 A 
HETATM   12  H   UNL     1      -6.502   4.068 -34.643  1.00  0.00     0.165 HD
ENDROOT
BRANCH   1  13
HETATM   13  S   UNL     1      -1.091   5.620 -31.293  1.00  0.00     0.263 S 
HETATM   14  O   UNL     1      -0.678   6.809 -32.003  1.00  0.00    -0.200 OA
HETATM   15  O   UNL     1      -0.199   4.489 -31.139  1.00  0.00    -0.200 OA
BRANCH  13  16
HETATM   16  N   UNL     1      -1.618   6.022 -29.743  1.00  0.00    -0.281 N 
HETATM   17  H   UNL     1      -2.628   6.143 -29.687  1.00  0.00     0.179 HD
BRANCH  16  18
HETATM   18  C   UNL     1      -0.803   6.839 -28.916  1.00  0.00     0.042 A 
HETATM   19  C   UNL     1       0.313   6.292 -28.285  1.00  0.00     0.030 A 
HETATM   20  C   UNL     1       1.117   7.099 -27.473  1.00  0.00     0.009 A 
HETATM   21  C   UNL     1       0.811   8.455 -27.289  1.00  0.00    -0.058 A 
HETATM   22  C   UNL     1      -0.316   8.989 -27.925  1.00  0.00     0.009 A 
HETATM   23  C   UNL     1      -1.123   8.182 -28.729  1.00  0.00     0.030 A 
BRANCH  21  24
HETATM   24  C   UNL     1       1.703   9.337 -26.453  1.00  0.00     0.034 C 
HETATM   25  C   UNL     1       2.370   8.562 -25.326  1.00  0.00     0.010 C 
ENDBRANCH  21  24
ENDBRANCH  16  18
ENDBRANCH  13  16
ENDBRANCH   1  13
BRANCH   7  26
HETATM   26  C   UNL     1      -6.156  -0.139 -33.108  1.00  0.00     0.257 C 
HETATM   27  N   UNL     1      -6.371  -0.701 -34.340  1.00  0.00    -0.357 N 
HETATM   28  H   UNL     1      -6.155  -0.145 -35.169  1.00  0.00     0.162 HD
HETATM   29  O   UNL     1      -6.355  -0.736 -32.054  1.00  0.00    -0.267 OA
BRANCH  27  30
HETATM   30  C   UNL     1      -6.842  -2.059 -34.514  1.00  0.00     0.125 C 
BRANCH  30  31
HETATM   31  C   UNL     1      -5.730  -3.048 -34.845  1.00  0.00     0.046 C 
BRANCH  31  32
HETATM   32  C   UNL     1      -6.243  -4.469 -35.044  1.00  0.00     0.168 C 
BRANCH  32  33
HETATM   33  O   UNL     1      -5.170  -5.373 -34.777  1.00  0.00    -0.396 OA
HETATM   34  C   UNL     1      -4.151  -4.765 -33.995  1.00  0.00     0.201 C 
ENDBRANCH  32  33
ENDBRANCH  31  32
ENDBRANCH  30  31
ENDBRANCH  27  30
ENDBRANCH   7  26
TORSDOF 9
ENDMDL
MODEL 4
REMARK VINA RESULT:      -7.9      4.307      8.429
REMARK  9 active torsions:
REMARK  status: ('A' for Active; 'I' for Inactive)
REMARK    1  A    between atoms: C_2  and  C_3 
REMARK    2  A    between atoms: C_6  and  N_7 
REMARK    3  A    between atoms: N_7  and  S_8 
REMARK    4  A    between atoms: S_8  and  C_9 
REMARK    5  A    between atoms: C_15  and  C_16 
REMARK       I    between atoms: C_16  and  N_17 
REMARK    6  A    between atoms: N_17  and  C_18 
REMARK    7  A    between atoms: C_18  and  C_19 
REMARK    8  A    between atoms: C_19  and  C_20 
REMARK    9  A    between atoms: C_20  and  O_21 
ROOT
HETATM    1  C   UNL     1      -6.797   3.179 -32.097  1.00  0.00     0.081 A 
HETATM    2  C   UNL     1      -5.666   3.868 -31.652  1.00  0.00     0.043 A 
HETATM    3  C   UNL     1      -4.822   4.466 -32.594  1.00  0.00     0.043 A 
HETATM    4  C   UNL     1      -5.109   4.398 -33.969  1.00  0.00     0.046 A 
HETATM    5  N   UNL     1      -4.224   4.969 -34.890  1.00  0.00    -0.364 N 
HETATM    6  C   UNL     1      -3.128   5.678 -34.466  1.00  0.00     0.109 A 
HETATM    7  C   UNL     1      -2.749   5.837 -33.187  1.00  0.00     0.098 A 
HETATM    8  C   UNL     1      -3.605   5.196 -32.148  1.00  0.00     0.201 A 
HETATM    9  O   UNL     1      -3.329   5.264 -30.951  1.00  0.00    -0.286 OA
HETATM   10  C   UNL     1      -6.244   3.701 -34.393  1.00  0.00     0.032 A 
HETATM   11  C   UNL     1      -7.097   3.101 -33.460  1.00  0.00     0.027 A 
HETATM   12  H   UNL     1      -4.503   5.051 -35.863  1.00  0.00     0.165 HD
ENDROOT
BRANCH   1  13
HETATM   13  S   UNL     1      -7.900   2.461 -30.896  1.00  0.00     0.263 S 
HETATM   14  O   UNL     1      -9.156   2.186 -31.557  1.00  0.00    -0.200 OA
HETATM   15  O   UNL     1      -7.839   3.295 -29.714  1.00  0.00    -0.200 OA
BRANCH  13  16
HETATM   16  N   UNL     1      -7.126   1.017 -30.498  1.00  0.00    -0.281 N 
HETATM   17  H   UNL     1      -6.586   1.081 -29.636  1.00  0.00     0.179 HD
BRANCH  16  18
HETATM   18  C   UNL     1      -6.631   0.179 -31.533  1.00  0.00     0.042 A 
HETATM   19  C   UNL     1      -5.267  -0.095 -31.611  1.00  0.00     0.030 A 
HETATM   20  C   UNL     1      -4.782  -0.923 -32.628  1.00  0.00     0.009 A 
HETATM   21  C   UNL     1      -5.657  -1.482 -33.570  1.00  0.00    -0.058 A 
HETATM   22  C   UNL     1      -7.025  -1.195 -33.482  1.00  0.00     0.009 A 
HETATM   23  C   UNL     1      -7.507  -0.361 -32.472  1.00  0.00     0.030 A 
BRANCH  21  24
HETATM   24  C   UNL     1      -5.143  -2.413 -34.639  1.00  0.00     0.034 C 
HETATM   25  C   UNL     1      -6.152  -3.500 -34.976  1.00  0.00     0.010 C 
ENDBRANCH  21  24
ENDBRANCH  16  18
ENDBRANCH  13  16
ENDBRANCH   1  13
BRANCH   7  26
HETATM   26  C   UNL     1      -1.522   6.633 -32.900  1.00  0.00     0.257 C 
HETATM   27  N   UNL     1      -0.811   6.238 -31.795  1.00  0.00    -0.357 N 
HETATM   28  H   UNL     1      -1.145   5.426 -31.272  1.00  0.00     0.162 HD
HETATM   29  O   UNL     1      -1.185   7.575 -33.612  1.00  0.00    -0.267 OA
BRANCH  27  30
HETATM   30  C   UNL     1       0.411   6.888 -31.371  1.00  0.00     0.125 C 
BRANCH  30  31
HETATM   31  C   UNL     1       0.479   7.126 -29.866  1.00  0.00     0.046 C 
BRANCH  31  32
HETATM   32  C   UNL     1       0.301   5.847 -29.057  1.00  0.00     0.168 C 
BRANCH  32  33
HETATM   33  O   UNL     1      -0.140   6.205 -27.747  1.00  0.00    -0.396 OA
HETATM   34  C   UNL     1      -1.301   7.023 -27.787  1.00  0.00     0.201 C 
ENDBRANCH  32  33
ENDBRANCH  31  32
ENDBRANCH  30  31
ENDBRANCH  27  30
ENDBRANCH   7  26
TORSDOF 9
ENDMDL
MODEL 5
REMARK VINA RESULT:      -7.9      6.361      9.739
REMARK  9 active torsions:
REMARK  status: ('A' for Active; 'I' for Inactive)
REMARK    1  A    between atoms: C_2  and  C_3 
REMARK    2  A    between atoms: C_6  and  N_7 
REMARK    3  A    between atoms: N_7  and  S_8 
REMARK    4  A    between atoms: S_8  and  C_9 
REMARK    5  A    between atoms: C_15  and  C_16 
REMARK       I    between atoms: C_16  and  N_17 
REMARK    6  A    between atoms: N_17  and  C_18 
REMARK    7  A    between atoms: C_18  and  C_19 
REMARK    8  A    between atoms: C_19  and  C_20 
REMARK    9  A    between atoms: C_20  and  O_21 
ROOT
HETATM    1  C   UNL     1      -1.345   5.541 -31.948  1.00  0.00     0.081 A 
HETATM    2  C   UNL     1      -2.238   4.490 -31.726  1.00  0.00     0.043 A 
HETATM    3  C   UNL     1      -3.334   4.339 -32.581  1.00  0.00     0.043 A 
HETATM    4  C   UNL     1      -3.534   5.214 -33.663  1.00  0.00     0.046 A 
HETATM    5  N   UNL     1      -4.663   5.064 -34.477  1.00  0.00    -0.364 N 
HETATM    6  C   UNL     1      -5.528   4.015 -34.292  1.00  0.00     0.109 A 
HETATM    7  C   UNL     1      -5.445   3.099 -33.313  1.00  0.00     0.098 A 
HETATM    8  C   UNL     1      -4.305   3.233 -32.361  1.00  0.00     0.201 A 
HETATM    9  O   UNL     1      -4.156   2.459 -31.418  1.00  0.00    -0.286 OA
HETATM   10  C   UNL     1      -2.631   6.262 -33.866  1.00  0.00     0.032 A 
HETATM   11  C   UNL     1      -1.529   6.422 -33.019  1.00  0.00     0.027 A 
HETATM   12  H   UNL     1      -4.728   5.596 -35.339  1.00  0.00     0.165 HD
ENDROOT
BRANCH   1  13
HETATM   13  S   UNL     1       0.080   5.705 -30.891  1.00  0.00     0.263 S 
HETATM   14  O   UNL     1       0.803   6.887 -31.302  1.00  0.00    -0.200 OA
HETATM   15  O   UNL     1       0.723   4.408 -30.845  1.00  0.00    -0.200 OA
BRANCH  13  16
HETATM   16  N   UNL     1      -0.611   5.945 -29.372  1.00  0.00    -0.281 N 
HETATM   17  H   UNL     1      -1.607   5.733 -29.352  1.00  0.00     0.179 HD
BRANCH  16  18
HETATM   18  C   UNL     1      -0.137   6.999 -28.546  1.00  0.00     0.042 A 
HETATM   19  C   UNL     1       0.997   6.806 -27.758  1.00  0.00     0.030 A 
HETATM   20  C   UNL     1       1.464   7.845 -26.947  1.00  0.00     0.009 A 
HETATM   21  C   UNL     1       0.802   9.082 -26.921  1.00  0.00    -0.058 A 
HETATM   22  C   UNL     1      -0.338   9.259 -27.714  1.00  0.00     0.009 A 
HETATM   23  C   UNL     1      -0.809   8.219 -28.517  1.00  0.00     0.030 A 
BRANCH  21  24
HETATM   24  C   UNL     1       1.332  10.218 -26.084  1.00  0.00     0.034 C 
HETATM   25  C   UNL     1       0.773  11.560 -26.533  1.00  0.00     0.010 C 
ENDBRANCH  21  24
ENDBRANCH  16  18
ENDBRANCH  13  16
ENDBRANCH   1  13
BRANCH   7  26
HETATM   26  C   UNL     1      -6.479   2.026 -33.250  1.00  0.00     0.257 C 
HETATM   27  N   UNL     1      -5.992   0.744 -33.221  1.00  0.00    -0.357 N 
HETATM   28  H   UNL     1      -4.979   0.613 -33.214  1.00  0.00     0.162 HD
HETATM   29  O   UNL     1      -7.678   2.288 -33.228  1.00  0.00    -0.267 OA
BRANCH  27  30
HETATM   30  C   UNL     1      -6.847  -0.421 -33.149  1.00  0.00     0.125 C 
BRANCH  30  31
HETATM   31  C   UNL     1      -7.046  -1.110 -34.496  1.00  0.00     0.046 C 
BRANCH  31  32
HETATM   32  C   UNL     1      -6.145  -2.325 -34.676  1.00  0.00     0.168 C 
BRANCH  32  33
HETATM   33  O   UNL     1      -6.963  -3.496 -34.644  1.00  0.00    -0.396 OA
HETATM   34  C   UNL     1      -6.369  -4.573 -35.357  1.00  0.00     0.201 C 
ENDBRANCH  32  33
ENDBRANCH  31  32
ENDBRANCH  30  31
ENDBRANCH  27  30
ENDBRANCH   7  26
TORSDOF 9
ENDMDL
MODEL 6
REMARK VINA RESULT:      -7.8      4.752      8.549
REMARK  9 active torsions:
REMARK  status: ('A' for Active; 'I' for Inactive)
REMARK    1  A    between atoms: C_2  and  C_3 
REMARK    2  A    between atoms: C_6  and  N_7 
REMARK    3  A    between atoms: N_7  and  S_8 
REMARK    4  A    between atoms: S_8  and  C_9 
REMARK    5  A    between atoms: C_15  and  C_16 
REMARK       I    between atoms: C_16  and  N_17 
REMARK    6  A    between atoms: N_17  and  C_18 
REMARK    7  A    between atoms: C_18  and  C_19 
REMARK    8  A    between atoms: C_19  and  C_20 
REMARK    9  A    between atoms: C_20  and  O_21 
ROOT
HETATM    1  C   UNL     1      -5.404   2.465 -32.133  1.00  0.00     0.081 A 
HETATM    2  C   UNL     1      -5.335   3.856 -32.240  1.00  0.00     0.043 A 
HETATM    3  C   UNL     1      -4.152   4.507 -31.876  1.00  0.00     0.043 A 
HETATM    4  C   UNL     1      -3.035   3.781 -31.427  1.00  0.00     0.046 A 
HETATM    5  N   UNL     1      -1.879   4.463 -31.030  1.00  0.00    -0.364 N 
HETATM    6  C   UNL     1      -1.786   5.825 -31.163  1.00  0.00     0.109 A 
HETATM    7  C   UNL     1      -2.767   6.636 -31.594  1.00  0.00     0.098 A 
HETATM    8  C   UNL     1      -4.057   5.989 -31.971  1.00  0.00     0.201 A 
HETATM    9  O   UNL     1      -5.022   6.647 -32.355  1.00  0.00    -0.286 OA
HETATM   10  C   UNL     1      -3.125   2.390 -31.324  1.00  0.00     0.032 A 
HETATM   11  C   UNL     1      -4.303   1.727 -31.688  1.00  0.00     0.027 A 
HETATM   12  H   UNL     1      -1.030   3.938 -30.850  1.00  0.00     0.165 HD
ENDROOT
BRANCH   1  13
HETATM   13  S   UNL     1      -6.892   1.630 -32.644  1.00  0.00     0.263 S 
HETATM   14  O   UNL     1      -7.920   2.629 -32.829  1.00  0.00    -0.200 OA
HETATM   15  O   UNL     1      -7.083   0.515 -31.739  1.00  0.00    -0.200 OA
BRANCH  13  16
HETATM   16  N   UNL     1      -6.453   0.965 -34.129  1.00  0.00    -0.281 N 
HETATM   17  H   UNL     1      -6.966   1.369 -34.911  1.00  0.00     0.179 HD
BRANCH  16  18
HETATM   18  C   UNL     1      -6.097  -0.409 -34.204  1.00  0.00     0.042 A 
HETATM   19  C   UNL     1      -7.044  -1.350 -34.604  1.00  0.00     0.030 A 
HETATM   20  C   UNL     1      -6.691  -2.701 -34.680  1.00  0.00     0.009 A 
HETATM   21  C   UNL     1      -5.390  -3.117 -34.360  1.00  0.00    -0.058 A 
HETATM   22  C   UNL     1      -4.451  -2.161 -33.955  1.00  0.00     0.009 A 
HETATM   23  C   UNL     1      -4.806  -0.813 -33.871  1.00  0.00     0.030 A 
BRANCH  21  24
HETATM   24  C   UNL     1      -4.995  -4.566 -34.487  1.00  0.00     0.034 C 
HETATM   25  C   UNL     1      -3.785  -4.900 -33.628  1.00  0.00     0.010 C 
ENDBRANCH  21  24
ENDBRANCH  16  18
ENDBRANCH  13  16
ENDBRANCH   1  13
BRANCH   7  26
HETATM   26  C   UNL     1      -2.501   8.101 -31.670  1.00  0.00     0.257 C 
HETATM   27  N   UNL     1      -3.120   8.860 -30.709  1.00  0.00    -0.357 N 
HETATM   28  H   UNL     1      -3.684   8.381 -30.005  1.00  0.00     0.162 HD
HETATM   29  O   UNL     1      -1.777   8.579 -32.539  1.00  0.00    -0.267 OA
BRANCH  27  30
HETATM   30  C   UNL     1      -2.967  10.297 -30.622  1.00  0.00     0.125 C 
BRANCH  30  31
HETATM   31  C   UNL     1      -2.402  10.766 -29.285  1.00  0.00     0.046 C 
BRANCH  31  32
HETATM   32  C   UNL     1      -2.131   9.616 -28.323  1.00  0.00     0.168 C 
BRANCH  32  33
HETATM   33  O   UNL     1      -0.857   9.057 -28.643  1.00  0.00    -0.396 OA
HETATM   34  C   UNL     1      -0.726   7.728 -28.154  1.00  0.00     0.201 C 
ENDBRANCH  32  33
ENDBRANCH  31  32
ENDBRANCH  30  31
ENDBRANCH  27  30
ENDBRANCH   7  26
TORSDOF 9
ENDMDL
MODEL 7
REMARK VINA RESULT:      -7.7      1.979      2.767
REMARK  9 active torsions:
REMARK  status: ('A' for Active; 'I' for Inactive)
REMARK    1  A    between atoms: C_2  and  C_3 
REMARK    2  A    between atoms: C_6  and  N_7 
REMARK    3  A    between atoms: N_7  and  S_8 
REMARK    4  A    between atoms: S_8  and  C_9 
REMARK    5  A    between atoms: C_15  and  C_16 
REMARK       I    between atoms: C_16  and  N_17 
REMARK    6  A    between atoms: N_17  and  C_18 
REMARK    7  A    between atoms: C_18  and  C_19 
REMARK    8  A    between atoms: C_19  and  C_20 
REMARK    9  A    between atoms: C_20  and  O_21 
ROOT
HETATM    1  C   UNL     1      -6.617   2.893 -30.768  1.00  0.00     0.081 A 
HETATM    2  C   UNL     1      -7.830   2.660 -31.421  1.00  0.00     0.043 A 
HETATM    3  C   UNL     1      -8.912   3.507 -31.165  1.00  0.00     0.043 A 
HETATM    4  C   UNL     1      -8.789   4.592 -30.280  1.00  0.00     0.046 A 
HETATM    5  N   UNL     1      -9.901   5.398 -30.012  1.00  0.00    -0.364 N 
HETATM    6  C   UNL     1     -11.087   5.201 -30.673  1.00  0.00     0.109 A 
HETATM    7  C   UNL     1     -11.336   4.218 -31.553  1.00  0.00     0.098 A 
HETATM    8  C   UNL     1     -10.218   3.274 -31.840  1.00  0.00     0.201 A 
HETATM    9  O   UNL     1     -10.353   2.327 -32.613  1.00  0.00    -0.286 OA
HETATM   10  C   UNL     1      -7.568   4.807 -29.634  1.00  0.00     0.032 A 
HETATM   11  C   UNL     1      -6.476   3.968 -29.884  1.00  0.00     0.027 A 
HETATM   12  H   UNL     1      -9.776   6.262 -29.495  1.00  0.00     0.165 HD
ENDROOT
BRANCH   1  13
HETATM   13  S   UNL     1      -5.223   1.846 -31.131  1.00  0.00     0.263 S 
HETATM   14  O   UNL     1      -5.445   0.571 -30.487  1.00  0.00    -0.200 OA
HETATM   15  O   UNL     1      -4.030   2.624 -30.866  1.00  0.00    -0.200 OA
BRANCH  13  16
HETATM   16  N   UNL     1      -5.314   1.674 -32.805  1.00  0.00    -0.281 N 
HETATM   17  H   UNL     1      -5.833   2.427 -33.254  1.00  0.00     0.179 HD
BRANCH  16  18
HETATM   18  C   UNL     1      -5.402   0.375 -33.373  1.00  0.00     0.042 A 
HETATM   19  C   UNL     1      -6.564  -0.015 -34.036  1.00  0.00     0.030 A 
HETATM   20  C   UNL     1      -6.649  -1.294 -34.596  1.00  0.00     0.009 A 
HETATM   21  C   UNL     1      -5.572  -2.187 -34.498  1.00  0.00    -0.058 A 
HETATM   22  C   UNL     1      -4.413  -1.783 -33.825  1.00  0.00     0.009 A 
HETATM   23  C   UNL     1      -4.332  -0.510 -33.259  1.00  0.00     0.030 A 
BRANCH  21  24
HETATM   24  C   UNL     1      -5.643  -3.548 -35.143  1.00  0.00     0.034 C 
HETATM   25  C   UNL     1      -6.875  -4.322 -34.699  1.00  0.00     0.010 C 
ENDBRANCH  21  24
ENDBRANCH  16  18
ENDBRANCH  13  16
ENDBRANCH   1  13
BRANCH   7  26
HETATM   26  C   UNL     1     -12.689   4.142 -32.176  1.00  0.00     0.257 C 
HETATM   27  N   UNL     1     -13.313   2.924 -32.077  1.00  0.00    -0.357 N 
HETATM   28  H   UNL     1     -12.835   2.177 -31.571  1.00  0.00     0.162 HD
HETATM   29  O   UNL     1     -13.194   5.111 -32.736  1.00  0.00    -0.267 OA
BRANCH  27  30
HETATM   30  C   UNL     1     -14.633   2.671 -32.614  1.00  0.00     0.125 C 
BRANCH  30  31
HETATM   31  C   UNL     1     -14.852   1.217 -33.020  1.00  0.00     0.046 C 
BRANCH  31  32
HETATM   32  C   UNL     1     -14.255   0.889 -34.383  1.00  0.00     0.168 C 
BRANCH  32  33
HETATM   33  O   UNL     1     -13.584   2.053 -34.869  1.00  0.00    -0.396 OA
HETATM   34  C   UNL     1     -12.367   1.724 -35.525  1.00  0.00     0.201 C 
ENDBRANCH  32  33
ENDBRANCH  31  32
ENDBRANCH  30  31
ENDBRANCH  27  30
ENDBRANCH   7  26
TORSDOF 9
ENDMDL
MODEL 8
REMARK VINA RESULT:      -7.7      3.976      8.183
REMARK  9 active torsions:
REMARK  status: ('A' for Active; 'I' for Inactive)
REMARK    1  A    between atoms: C_2  and  C_3 
REMARK    2  A    between atoms: C_6  and  N_7 
REMARK    3  A    between atoms: N_7  and  S_8 
REMARK    4  A    between atoms: S_8  and  C_9 
REMARK    5  A    between atoms: C_15  and  C_16 
REMARK       I    between atoms: C_16  and  N_17 
REMARK    6  A    between atoms: N_17  and  C_18 
REMARK    7  A    between atoms: C_18  and  C_19 
REMARK    8  A    between atoms: C_19  and  C_20 
REMARK    9  A    between atoms: C_20  and  O_21 
ROOT
HETATM    1  C   UNL     1      -7.510   1.584 -32.813  1.00  0.00     0.081 A 
HETATM    2  C   UNL     1      -6.654   2.541 -33.362  1.00  0.00     0.043 A 
HETATM    3  C   UNL     1      -5.809   3.262 -32.513  1.00  0.00     0.043 A 
HETATM    4  C   UNL     1      -5.798   3.021 -31.127  1.00  0.00     0.046 A 
HETATM    5  N   UNL     1      -4.972   3.787 -30.297  1.00  0.00    -0.364 N 
HETATM    6  C   UNL     1      -4.101   4.705 -30.826  1.00  0.00     0.109 A 
HETATM    7  C   UNL     1      -3.995   5.021 -32.128  1.00  0.00     0.098 A 
HETATM    8  C   UNL     1      -4.894   4.295 -33.070  1.00  0.00     0.201 A 
HETATM    9  O   UNL     1      -4.890   4.529 -34.277  1.00  0.00    -0.286 OA
HETATM   10  C   UNL     1      -6.665   2.060 -30.598  1.00  0.00     0.032 A 
HETATM   11  C   UNL     1      -7.514   1.331 -31.438  1.00  0.00     0.027 A 
HETATM   12  H   UNL     1      -4.854   3.515 -29.326  1.00  0.00     0.165 HD
ENDROOT
BRANCH   1  13
HETATM   13  S   UNL     1      -8.551   0.629 -33.899  1.00  0.00     0.263 S 
HETATM   14  O   UNL     1      -9.489   1.535 -34.524  1.00  0.00    -0.200 OA
HETATM   15  O   UNL     1      -9.007  -0.521 -33.146  1.00  0.00    -0.200 OA
BRANCH  13  16
HETATM   16  N   UNL     1      -7.459   0.045 -35.042  1.00  0.00    -0.281 N 
HETATM   17  H   UNL     1      -7.848   0.015 -35.983  1.00  0.00     0.179 HD
BRANCH  16  18
HETATM   18  C   UNL     1      -6.531  -0.965 -34.672  1.00  0.00     0.042 A 
HETATM   19  C   UNL     1      -6.776  -2.292 -35.017  1.00  0.00     0.030 A 
HETATM   20  C   UNL     1      -5.860  -3.285 -34.655  1.00  0.00     0.009 A 
HETATM   21  C   UNL     1      -4.695  -2.956 -33.948  1.00  0.00    -0.058 A 
HETATM   22  C   UNL     1      -4.463  -1.618 -33.604  1.00  0.00     0.009 A 
HETATM   23  C   UNL     1      -5.382  -0.629 -33.959  1.00  0.00     0.030 A 
BRANCH  21  24
HETATM   24  C   UNL     1      -3.683  -4.017 -33.599  1.00  0.00     0.034 C 
HETATM   25  C   UNL     1      -3.178  -3.870 -32.171  1.00  0.00     0.010 C 
ENDBRANCH  21  24
ENDBRANCH  16  18
ENDBRANCH  13  16
ENDBRANCH   1  13
BRANCH   7  26
HETATM   26  C   UNL     1      -2.999   6.053 -32.534  1.00  0.00     0.257 C 
HETATM   27  N   UNL     1      -1.937   6.210 -31.680  1.00  0.00    -0.357 N 
HETATM   28  H   UNL     1      -1.884   5.605 -30.859  1.00  0.00     0.162 HD
HETATM   29  O   UNL     1      -3.136   6.709 -33.562  1.00  0.00    -0.267 OA
BRANCH  27  30
HETATM   30  C   UNL     1      -0.869   7.158 -31.919  1.00  0.00     0.125 C 
BRANCH  30  31
HETATM   31  C   UNL     1       0.432   6.795 -31.211  1.00  0.00     0.046 C 
BRANCH  31  32
HETATM   32  C   UNL     1       0.714   5.298 -31.223  1.00  0.00     0.168 C 
BRANCH  32  33
HETATM   33  O   UNL     1       0.258   4.747 -29.987  1.00  0.00    -0.396 OA
HETATM   34  C   UNL     1       0.574   5.591 -28.887  1.00  0.00     0.201 C 
ENDBRANCH  32  33
ENDBRANCH  31  32
ENDBRANCH  30  31
ENDBRANCH  27  30
ENDBRANCH   7  26
TORSDOF 9
ENDMDL
MODEL 9
REMARK VINA RESULT:      -7.6      3.632      7.701
REMARK  9 active torsions:
REMARK  status: ('A' for Active; 'I' for Inactive)
REMARK    1  A    between atoms: C_2  and  C_3 
REMARK    2  A    between atoms: C_6  and  N_7 
REMARK    3  A    between atoms: N_7  and  S_8 
REMARK    4  A    between atoms: S_8  and  C_9 
REMARK    5  A    between atoms: C_15  and  C_16 
REMARK       I    between atoms: C_16  and  N_17 
REMARK    6  A    between atoms: N_17  and  C_18 
REMARK    7  A    between atoms: C_18  and  C_19 
REMARK    8  A    between atoms: C_19  and  C_20 
REMARK    9  A    between atoms: C_20  and  O_21 
ROOT
HETATM    1  C   UNL     1      -7.993   2.060 -32.470  1.00  0.00     0.081 A 
HETATM    2  C   UNL     1      -6.874   2.872 -32.667  1.00  0.00     0.043 A 
HETATM    3  C   UNL     1      -6.471   3.734 -31.642  1.00  0.00     0.043 A 
HETATM    4  C   UNL     1      -7.164   3.776 -30.419  1.00  0.00     0.046 A 
HETATM    5  N   UNL     1      -6.763   4.679 -29.427  1.00  0.00    -0.364 N 
HETATM    6  C   UNL     1      -5.645   5.457 -29.595  1.00  0.00     0.109 A 
HETATM    7  C   UNL     1      -4.884   5.502 -30.701  1.00  0.00     0.098 A 
HETATM    8  C   UNL     1      -5.289   4.617 -31.831  1.00  0.00     0.201 A 
HETATM    9  O   UNL     1      -4.671   4.603 -32.894  1.00  0.00    -0.286 OA
HETATM   10  C   UNL     1      -8.283   2.958 -30.242  1.00  0.00     0.032 A 
HETATM   11  C   UNL     1      -8.694   2.090 -31.260  1.00  0.00     0.027 A 
HETATM   12  H   UNL     1      -7.164   4.606 -28.498  1.00  0.00     0.165 HD
ENDROOT
BRANCH   1  13
HETATM   13  S   UNL     1      -8.477   0.925 -33.755  1.00  0.00     0.263 S 
HETATM   14  O   UNL     1      -9.462   1.585 -34.581  1.00  0.00    -0.200 OA
HETATM   15  O   UNL     1      -8.762  -0.342 -33.114  1.00  0.00    -0.200 OA
BRANCH  13  16
HETATM   16  N   UNL     1      -7.045   0.709 -34.618  1.00  0.00    -0.281 N 
HETATM   17  H   UNL     1      -7.122   1.000 -35.591  1.00  0.00     0.179 HD
BRANCH  16  18
HETATM   18  C   UNL     1      -6.206  -0.396 -34.317  1.00  0.00     0.042 A 
HETATM   19  C   UNL     1      -5.199  -0.264 -33.362  1.00  0.00     0.030 A 
HETATM   20  C   UNL     1      -4.375  -1.353 -33.064  1.00  0.00     0.009 A 
HETATM   21  C   UNL     1      -4.554  -2.581 -33.718  1.00  0.00    -0.058 A 
HETATM   22  C   UNL     1      -5.566  -2.699 -34.679  1.00  0.00     0.009 A 
HETATM   23  C   UNL     1      -6.383  -1.608 -34.981  1.00  0.00     0.030 A 
BRANCH  21  24
HETATM   24  C   UNL     1      -3.698  -3.771 -33.365  1.00  0.00     0.034 C 
HETATM   25  C   UNL     1      -3.030  -3.605 -32.008  1.00  0.00     0.010 C 
ENDBRANCH  21  24
ENDBRANCH  16  18
ENDBRANCH  13  16
ENDBRANCH   1  13
BRANCH   7  26
HETATM   26  C   UNL     1      -3.705   6.413 -30.720  1.00  0.00     0.257 C 
HETATM   27  N   UNL     1      -3.436   7.000 -31.931  1.00  0.00    -0.357 N 
HETATM   28  H   UNL     1      -4.063   6.801 -32.713  1.00  0.00     0.162 HD
HETATM   29  O   UNL     1      -3.030   6.614 -29.714  1.00  0.00    -0.267 OA
BRANCH  27  30
HETATM   30  C   UNL     1      -2.338   7.920 -32.133  1.00  0.00     0.125 C 
BRANCH  30  31
HETATM   31  C   UNL     1      -1.308   7.422 -33.142  1.00  0.00     0.046 C 
BRANCH  31  32
HETATM   32  C   UNL     1      -0.704   6.078 -32.755  1.00  0.00     0.168 C 
BRANCH  32  33
HETATM   33  O   UNL     1      -1.456   5.049 -33.401  1.00  0.00    -0.396 OA
HETATM   34  C   UNL     1      -1.614   5.305 -34.790  1.00  0.00     0.201 C 
ENDBRANCH  32  33
ENDBRANCH  31  32
ENDBRANCH  30  31
ENDBRANCH  27  30
ENDBRANCH   7  26
TORSDOF 9
ENDMDL
MODEL 10
REMARK VINA RESULT:      -7.3      5.094      8.994
REMARK  9 active torsions:
REMARK  status: ('A' for Active; 'I' for Inactive)
REMARK    1  A    between atoms: C_2  and  C_3 
REMARK    2  A    between atoms: C_6  and  N_7 
REMARK    3  A    between atoms: N_7  and  S_8 
REMARK    4  A    between atoms: S_8  and  C_9 
REMARK    5  A    between atoms: C_15  and  C_16 
REMARK       I    between atoms: C_16  and  N_17 
REMARK    6  A    between atoms: N_17  and  C_18 
REMARK    7  A    between atoms: C_18  and  C_19 
REMARK    8  A    between atoms: C_19  and  C_20 
REMARK    9  A    between atoms: C_20  and  O_21 
ROOT
HETATM    1  C   UNL     1      -6.951   4.224 -31.930  1.00  0.00     0.081 A 
HETATM    2  C   UNL     1      -5.915   5.083 -31.555  1.00  0.00     0.043 A 
HETATM    3  C   UNL     1      -5.732   5.372 -30.199  1.00  0.00     0.043 A 
HETATM    4  C   UNL     1      -6.559   4.797 -29.218  1.00  0.00     0.046 A 
HETATM    5  N   UNL     1      -6.379   5.138 -27.872  1.00  0.00    -0.364 N 
HETATM    6  C   UNL     1      -5.344   5.952 -27.487  1.00  0.00     0.109 A 
HETATM    7  C   UNL     1      -4.472   6.552 -28.314  1.00  0.00     0.098 A 
HETATM    8  C   UNL     1      -4.643   6.292 -29.773  1.00  0.00     0.201 A 
HETATM    9  O   UNL     1      -3.911   6.813 -30.612  1.00  0.00    -0.286 OA
HETATM   10  C   UNL     1      -7.592   3.942 -29.615  1.00  0.00     0.032 A 
HETATM   11  C   UNL     1      -7.784   3.643 -30.968  1.00  0.00     0.027 A 
HETATM   12  H   UNL     1      -6.872   4.614 -27.157  1.00  0.00     0.165 HD
ENDROOT
BRANCH   1  13
HETATM   13  S   UNL     1      -7.154   3.814 -33.652  1.00  0.00     0.263 S 
HETATM   14  O   UNL     1      -5.849   3.510 -34.193  1.00  0.00    -0.200 OA
HETATM   15  O   UNL     1      -7.988   4.845 -34.236  1.00  0.00    -0.200 OA
BRANCH  13  16
HETATM   16  N   UNL     1      -8.098   2.419 -33.592  1.00  0.00    -0.281 N 
HETATM   17  H   UNL     1      -8.853   2.480 -32.911  1.00  0.00     0.179 HD
BRANCH  16  18
HETATM   18  C   UNL     1      -7.490   1.152 -33.803  1.00  0.00     0.042 A 
HETATM   19  C   UNL     1      -6.829   0.517 -32.753  1.00  0.00     0.030 A 
HETATM   20  C   UNL     1      -6.234  -0.731 -32.961  1.00  0.00     0.009 A 
HETATM   21  C   UNL     1      -6.298  -1.351 -34.217  1.00  0.00    -0.058 A 
HETATM   22  C   UNL     1      -6.962  -0.699 -35.264  1.00  0.00     0.009 A 
HETATM   23  C   UNL     1      -7.549   0.550 -35.058  1.00  0.00     0.030 A 
BRANCH  21  24
HETATM   24  C   UNL     1      -5.699  -2.718 -34.431  1.00  0.00     0.034 C 
HETATM   25  C   UNL     1      -6.749  -3.738 -34.845  1.00  0.00     0.010 C 
ENDBRANCH  21  24
ENDBRANCH  16  18
ENDBRANCH  13  16
ENDBRANCH   1  13
BRANCH   7  26
HETATM   26  C   UNL     1      -3.409   7.416 -27.727  1.00  0.00     0.257 C 
HETATM   27  N   UNL     1      -2.269   6.760 -27.337  1.00  0.00    -0.357 N 
HETATM   28  H   UNL     1      -2.213   5.753 -27.498  1.00  0.00     0.162 HD
HETATM   29  O   UNL     1      -3.559   8.629 -27.606  1.00  0.00    -0.267 OA
BRANCH  27  30
HETATM   30  C   UNL     1      -1.129   7.439 -26.757  1.00  0.00     0.125 C 
BRANCH  30  31
HETATM   31  C   UNL     1       0.155   6.618 -26.808  1.00  0.00     0.046 C 
BRANCH  31  32
HETATM   32  C   UNL     1       0.560   6.243 -28.229  1.00  0.00     0.168 C 
BRANCH  32  33
HETATM   33  O   UNL     1      -0.039   7.178 -29.126  1.00  0.00    -0.396 OA
HETATM   34  C   UNL     1       0.259   6.874 -30.481  1.00  0.00     0.201 C 
ENDBRANCH  32  33
ENDBRANCH  31  32
ENDBRANCH  30  31
ENDBRANCH  27  30
ENDBRANCH   7  26
TORSDOF 9
ENDMDL
