MODEL 1
REMARK VINA RESULT:      -8.1      0.000      0.000
REMARK  3 active torsions:
REMARK  status: ('A' for Active; 'I' for Inactive)
REMARK    1  A    between atoms: C_2  and  N_3 
REMARK       I    between atoms: N_3  and  C_4 
REMARK    2  A    between atoms: C_4  and  C_5 
REMARK    3  A    between atoms: C_5  and  C_6 
ROOT
HETATM    1  C   UNL     1      -3.821   3.425 -32.894  1.00  0.00     0.286 C 
HETATM    2  N   UNL     1      -3.532   4.853 -33.353  1.00  0.00    -0.056 N 
HETATM    3  H   UNL     1      -2.697   4.831 -33.951  1.00  0.00     0.278 HD
HETATM    4  H   UNL     1      -4.306   5.140 -33.991  1.00  0.00     0.278 HD
HETATM    5  C   UNL     1      -3.368   5.849 -32.238  1.00  0.00     0.209 C 
HETATM    6  C   UNL     1      -2.232   5.359 -31.309  1.00  0.00     0.115 C 
HETATM    7  N   UNL     1      -2.441   3.976 -30.887  1.00  0.00    -0.353 N 
HETATM    8  C   UNL     1      -3.004   2.995 -31.663  1.00  0.00     0.249 C 
HETATM    9  O   UNL     1      -2.927   1.819 -31.321  1.00  0.00    -0.271 OA
HETATM   10  C   UNL     1      -3.091   7.229 -32.833  1.00  0.00     0.035 C 
HETATM   11  C   UNL     1      -1.705   7.348 -33.463  1.00  0.00     0.002 C 
HETATM   12  C   UNL     1      -0.610   6.910 -32.496  1.00  0.00     0.002 C 
HETATM   13  C   UNL     1      -0.849   5.501 -31.964  1.00  0.00     0.027 C 
HETATM   14  H   UNL     1      -1.913   3.623 -30.091  1.00  0.00     0.163 HD
ENDROOT
BRANCH   1  15
HETATM   15  C   UNL     1      -5.311   3.202 -32.603  1.00  0.00     0.146 C 
BRANCH  15  16
HETATM   16  C   UNL     1      -5.830   2.030 -33.401  1.00  0.00     0.224 C 
HETATM   17  N   UNL     1      -5.355   0.807 -32.989  1.00  0.00    -0.327 N 
HETATM   18  H   UNL     1      -4.648   0.787 -32.259  1.00  0.00     0.169 HD
HETATM   19  O   UNL     1      -6.628   2.253 -34.311  1.00  0.00    -0.273 OA
BRANCH  17  20
HETATM   20  C   UNL     1      -5.687  -0.458 -33.526  1.00  0.00     0.034 A 
HETATM   21  C   UNL     1      -4.626  -1.325 -33.825  1.00  0.00     0.031 A 
HETATM   22  C   UNL     1      -4.872  -2.590 -34.371  1.00  0.00     0.026 A 
HETATM   23  C   UNL     1      -6.180  -3.000 -34.607  1.00  0.00     0.034 A 
HETATM   24  C   UNL     1      -7.242  -2.154 -34.303  1.00  0.00     0.026 A 
HETATM   25 CL   UNL     1      -6.485  -4.554 -35.275  1.00  0.00    -0.084 Cl
HETATM   26  C   UNL     1      -6.996  -0.885 -33.765  1.00  0.00     0.031 A 
ENDBRANCH  17  20
ENDBRANCH  15  16
ENDBRANCH   1  15
TORSDOF 3
ENDMDL
MODEL 2
REMARK VINA RESULT:      -8.1      1.529      2.019
REMARK  3 active torsions:
REMARK  status: ('A' for Active; 'I' for Inactive)
REMARK    1  A    between atoms: C_2  and  N_3 
REMARK       I    between atoms: N_3  and  C_4 
REMARK    2  A    between atoms: C_4  and  C_5 
REMARK    3  A    between atoms: C_5  and  C_6 
ROOT
HETATM    1  C   UNL     1      -4.726   3.611 -31.904  1.00  0.00     0.286 C 
HETATM    2  N   UNL     1      -3.924   3.836 -33.184  1.00  0.00    -0.056 N 
HETATM    3  H   UNL     1      -2.931   3.683 -32.967  1.00  0.00     0.278 HD
HETATM    4  H   UNL     1      -4.169   3.069 -33.848  1.00  0.00     0.278 HD
HETATM    5  C   UNL     1      -4.132   5.180 -33.827  1.00  0.00     0.209 C 
HETATM    6  C   UNL     1      -3.783   6.275 -32.791  1.00  0.00     0.115 C 
HETATM    7  N   UNL     1      -4.491   6.068 -31.530  1.00  0.00    -0.353 N 
HETATM    8  C   UNL     1      -4.783   4.844 -30.986  1.00  0.00     0.249 C 
HETATM    9  O   UNL     1      -5.165   4.762 -29.823  1.00  0.00    -0.271 OA
HETATM   10  C   UNL     1      -3.280   5.270 -35.092  1.00  0.00     0.035 C 
HETATM   11  C   UNL     1      -1.784   5.374 -34.806  1.00  0.00     0.002 C 
HETATM   12  C   UNL     1      -1.476   6.501 -33.827  1.00  0.00     0.002 C 
HETATM   13  C   UNL     1      -2.271   6.364 -32.533  1.00  0.00     0.027 C 
HETATM   14  H   UNL     1      -4.545   6.840 -30.868  1.00  0.00     0.163 HD
ENDROOT
BRANCH   1  15
HETATM   15  C   UNL     1      -6.159   3.143 -32.196  1.00  0.00     0.146 C 
BRANCH  15  16
HETATM   16  C   UNL     1      -6.144   1.999 -33.182  1.00  0.00     0.224 C 
HETATM   17  N   UNL     1      -5.903   0.767 -32.620  1.00  0.00    -0.327 N 
HETATM   18  H   UNL     1      -5.675   0.727 -31.630  1.00  0.00     0.169 HD
HETATM   19  O   UNL     1      -6.365   2.249 -34.367  1.00  0.00    -0.273 OA
BRANCH  17  20
HETATM   20  C   UNL     1      -5.861  -0.478 -33.288  1.00  0.00     0.034 A 
HETATM   21  C   UNL     1      -7.087  -1.036 -33.679  1.00  0.00     0.031 A 
HETATM   22  C   UNL     1      -7.131  -2.271 -34.335  1.00  0.00     0.026 A 
HETATM   23  C   UNL     1      -5.949  -2.948 -34.616  1.00  0.00     0.034 A 
HETATM   24  C   UNL     1      -4.725  -2.400 -34.244  1.00  0.00     0.026 A 
HETATM   25 CL   UNL     1      -5.999  -4.464 -35.423  1.00  0.00    -0.084 Cl
HETATM   26  C   UNL     1      -4.682  -1.168 -33.580  1.00  0.00     0.031 A 
ENDBRANCH  17  20
ENDBRANCH  15  16
ENDBRANCH   1  15
TORSDOF 3
ENDMDL
MODEL 3
REMARK VINA RESULT:      -8.0      5.144      7.514
REMARK  3 active torsions:
REMARK  status: ('A' for Active; 'I' for Inactive)
REMARK    1  A    between atoms: C_2  and  N_3 
REMARK       I    between atoms: N_3  and  C_4 
REMARK    2  A    between atoms: C_4  and  C_5 
REMARK    3  A    between atoms: C_5  and  C_6 
ROOT
HETATM    1  C   UNL     1      -6.298  -0.669 -32.920  1.00  0.00     0.286 C 
HETATM    2  N   UNL     1      -6.583  -1.903 -33.773  1.00  0.00    -0.056 N 
HETATM    3  H   UNL     1      -6.712  -2.703 -33.141  1.00  0.00     0.278 HD
HETATM    4  H   UNL     1      -7.516  -1.768 -34.220  1.00  0.00     0.278 HD
HETATM    5  C   UNL     1      -5.537  -2.204 -34.811  1.00  0.00     0.209 C 
HETATM    6  C   UNL     1      -4.173  -2.365 -34.097  1.00  0.00     0.115 C 
HETATM    7  N   UNL     1      -3.884  -1.227 -33.227  1.00  0.00    -0.353 N 
HETATM    8  C   UNL     1      -4.822  -0.528 -32.511  1.00  0.00     0.249 C 
HETATM    9  O   UNL     1      -4.470   0.253 -31.633  1.00  0.00    -0.271 OA
HETATM   10  C   UNL     1      -5.946  -3.452 -35.591  1.00  0.00     0.035 C 
HETATM   11  C   UNL     1      -5.843  -4.737 -34.773  1.00  0.00     0.002 C 
HETATM   12  C   UNL     1      -4.467  -4.886 -34.134  1.00  0.00     0.002 C 
HETATM   13  C   UNL     1      -4.094  -3.671 -33.291  1.00  0.00     0.027 C 
HETATM   14  H   UNL     1      -2.928  -1.091 -32.903  1.00  0.00     0.163 HD
ENDROOT
BRANCH   1  15
HETATM   15  C   UNL     1      -6.747   0.626 -33.611  1.00  0.00     0.146 C 
BRANCH  15  16
HETATM   16  C   UNL     1      -8.124   0.450 -34.205  1.00  0.00     0.224 C 
HETATM   17  N   UNL     1      -9.151   0.893 -33.404  1.00  0.00    -0.327 N 
HETATM   18  H   UNL     1      -8.924   1.216 -32.467  1.00  0.00     0.169 HD
HETATM   19  O   UNL     1      -8.213  -0.038 -35.332  1.00  0.00    -0.273 OA
BRANCH  17  20
HETATM   20  C   UNL     1     -10.531   0.883 -33.709  1.00  0.00     0.034 A 
HETATM   21  C   UNL     1     -11.301  -0.150 -33.156  1.00  0.00     0.031 A 
HETATM   22  C   UNL     1     -12.673  -0.237 -33.420  1.00  0.00     0.026 A 
HETATM   23  C   UNL     1     -13.283   0.716 -34.227  1.00  0.00     0.034 A 
HETATM   24  C   UNL     1     -12.533   1.754 -34.773  1.00  0.00     0.026 A 
HETATM   25 CL   UNL     1     -14.968   0.614 -34.552  1.00  0.00    -0.084 Cl
HETATM   26  C   UNL     1     -11.159   1.835 -34.515  1.00  0.00     0.031 A 
ENDBRANCH  17  20
ENDBRANCH  15  16
ENDBRANCH   1  15
TORSDOF 3
ENDMDL
MODEL 4
REMARK VINA RESULT:      -7.9      4.418      6.561
REMARK  3 active torsions:
REMARK  status: ('A' for Active; 'I' for Inactive)
REMARK    1  A    between atoms: C_2  and  N_3 
REMARK       I    between atoms: N_3  and  C_4 
REMARK    2  A    between atoms: C_4  and  C_5 
REMARK    3  A    between atoms: C_5  and  C_6 
ROOT
HETATM    1  C   UNL     1      -8.142   2.842 -34.203  1.00  0.00     0.286 C 
HETATM    2  N   UNL     1      -9.357   1.941 -34.412  1.00  0.00    -0.056 N 
HETATM    3  H   UNL     1      -9.598   1.961 -35.411  1.00  0.00     0.278 HD
HETATM    4  H   UNL     1      -9.054   0.959 -34.234  1.00  0.00     0.278 HD
HETATM    5  C   UNL     1     -10.550   2.290 -33.566  1.00  0.00     0.209 C 
HETATM    6  C   UNL     1     -10.936   3.762 -33.848  1.00  0.00     0.115 C 
HETATM    7  N   UNL     1      -9.787   4.654 -33.710  1.00  0.00    -0.353 N 
HETATM    8  C   UNL     1      -8.497   4.331 -34.043  1.00  0.00     0.249 C 
HETATM    9  O   UNL     1      -7.641   5.207 -34.117  1.00  0.00    -0.271 OA
HETATM   10  C   UNL     1     -11.686   1.313 -33.870  1.00  0.00     0.035 C 
HETATM   11  C   UNL     1     -12.306   1.520 -35.250  1.00  0.00     0.002 C 
HETATM   12  C   UNL     1     -12.725   2.970 -35.466  1.00  0.00     0.002 C 
HETATM   13  C   UNL     1     -11.568   3.936 -35.238  1.00  0.00     0.027 C 
HETATM   14  H   UNL     1      -9.954   5.655 -33.622  1.00  0.00     0.163 HD
ENDROOT
BRANCH   1  15
HETATM   15  C   UNL     1      -7.297   2.401 -32.999  1.00  0.00     0.146 C 
BRANCH  15  16
HETATM   16  C   UNL     1      -7.175   0.896 -32.970  1.00  0.00     0.224 C 
HETATM   17  N   UNL     1      -6.280   0.381 -33.879  1.00  0.00    -0.327 N 
HETATM   18  H   UNL     1      -5.845   1.019 -34.539  1.00  0.00     0.169 HD
HETATM   19  O   UNL     1      -7.847   0.274 -32.147  1.00  0.00    -0.273 OA
BRANCH  17  20
HETATM   20  C   UNL     1      -5.940  -0.980 -34.057  1.00  0.00     0.034 A 
HETATM   21  C   UNL     1      -4.685  -1.392 -33.588  1.00  0.00     0.031 A 
HETATM   22  C   UNL     1      -4.268  -2.720 -33.737  1.00  0.00     0.026 A 
HETATM   23  C   UNL     1      -5.111  -3.645 -34.344  1.00  0.00     0.034 A 
HETATM   24  C   UNL     1      -6.365  -3.252 -34.803  1.00  0.00     0.026 A 
HETATM   25 CL   UNL     1      -4.604  -5.277 -34.527  1.00  0.00    -0.084 Cl
HETATM   26  C   UNL     1      -6.777  -1.921 -34.661  1.00  0.00     0.031 A 
ENDBRANCH  17  20
ENDBRANCH  15  16
ENDBRANCH   1  15
TORSDOF 3
ENDMDL
MODEL 5
REMARK VINA RESULT:      -7.8      5.464      7.975
REMARK  3 active torsions:
REMARK  status: ('A' for Active; 'I' for Inactive)
REMARK    1  A    between atoms: C_2  and  N_3 
REMARK       I    between atoms: N_3  and  C_4 
REMARK    2  A    between atoms: C_4  and  C_5 
REMARK    3  A    between atoms: C_5  and  C_6 
ROOT
HETATM    1  C   UNL     1     -11.462   1.762 -33.718  1.00  0.00     0.286 C 
HETATM    2  N   UNL     1     -11.549   2.503 -32.385  1.00  0.00    -0.056 N 
HETATM    3  H   UNL     1     -12.263   2.039 -31.810  1.00  0.00     0.278 HD
HETATM    4  H   UNL     1     -10.654   2.338 -31.875  1.00  0.00     0.278 HD
HETATM    5  C   UNL     1     -11.829   3.976 -32.502  1.00  0.00     0.209 C 
HETATM    6  C   UNL     1     -13.148   4.160 -33.290  1.00  0.00     0.115 C 
HETATM    7  N   UNL     1     -13.128   3.424 -34.552  1.00  0.00    -0.353 N 
HETATM    8  C   UNL     1     -12.516   2.212 -34.744  1.00  0.00     0.249 C 
HETATM    9  O   UNL     1     -12.746   1.559 -35.757  1.00  0.00    -0.271 OA
HETATM   10  C   UNL     1     -11.886   4.590 -31.104  1.00  0.00     0.035 C 
HETATM   11  C   UNL     1     -13.123   4.177 -30.312  1.00  0.00     0.002 C 
HETATM   12  C   UNL     1     -14.404   4.428 -31.100  1.00  0.00     0.002 C 
HETATM   13  C   UNL     1     -14.376   3.747 -32.464  1.00  0.00     0.027 C 
HETATM   14  H   UNL     1     -13.816   3.659 -35.266  1.00  0.00     0.163 HD
ENDROOT
BRANCH   1  15
HETATM   15  C   UNL     1     -10.069   1.880 -34.353  1.00  0.00     0.146 C 
BRANCH  15  16
HETATM   16  C   UNL     1      -9.176   0.764 -33.864  1.00  0.00     0.224 C 
HETATM   17  N   UNL     1      -8.007   0.620 -34.573  1.00  0.00    -0.327 N 
HETATM   18  H   UNL     1      -7.871   1.197 -35.398  1.00  0.00     0.169 HD
HETATM   19  O   UNL     1      -9.544   0.110 -32.888  1.00  0.00    -0.273 OA
BRANCH  17  20
HETATM   20  C   UNL     1      -6.974  -0.314 -34.326  1.00  0.00     0.034 A 
HETATM   21  C   UNL     1      -7.152  -1.611 -34.828  1.00  0.00     0.031 A 
HETATM   22  C   UNL     1      -6.181  -2.596 -34.617  1.00  0.00     0.026 A 
HETATM   23  C   UNL     1      -5.022  -2.286 -33.913  1.00  0.00     0.034 A 
HETATM   24  C   UNL     1      -4.828  -0.999 -33.420  1.00  0.00     0.026 A 
HETATM   25 CL   UNL     1      -3.826  -3.493 -33.653  1.00  0.00    -0.084 Cl
HETATM   26  C   UNL     1      -5.803  -0.016 -33.625  1.00  0.00     0.031 A 
ENDBRANCH  17  20
ENDBRANCH  15  16
ENDBRANCH   1  15
TORSDOF 3
ENDMDL
MODEL 6
REMARK VINA RESULT:      -7.5      4.579      6.953
REMARK  3 active torsions:
REMARK  status: ('A' for Active; 'I' for Inactive)
REMARK    1  A    between atoms: C_2  and  N_3 
REMARK       I    between atoms: N_3  and  C_4 
REMARK    2  A    between atoms: C_4  and  C_5 
REMARK    3  A    between atoms: C_5  and  C_6 
ROOT
HETATM    1  C   UNL     1      -5.396  -0.160 -31.629  1.00  0.00     0.286 C 
HETATM    2  N   UNL     1      -6.270  -0.943 -32.607  1.00  0.00    -0.056 N 
HETATM    3  H   UNL     1      -6.381  -1.896 -32.239  1.00  0.00     0.278 HD
HETATM    4  H   UNL     1      -7.228  -0.533 -32.569  1.00  0.00     0.278 HD
HETATM    5  C   UNL     1      -5.760  -0.970 -34.021  1.00  0.00     0.209 C 
HETATM    6  C   UNL     1      -4.329  -1.559 -34.013  1.00  0.00     0.115 C 
HETATM    7  N   UNL     1      -3.471  -0.871 -33.051  1.00  0.00    -0.353 N 
HETATM    8  C   UNL     1      -3.887  -0.372 -31.844  1.00  0.00     0.249 C 
HETATM    9  O   UNL     1      -3.064  -0.024 -31.004  1.00  0.00    -0.271 OA
HETATM   10  C   UNL     1      -6.725  -1.778 -34.889  1.00  0.00     0.035 C 
HETATM   11  C   UNL     1      -6.691  -3.276 -34.596  1.00  0.00     0.002 C 
HETATM   12  C   UNL     1      -5.271  -3.827 -34.655  1.00  0.00     0.002 C 
HETATM   13  C   UNL     1      -4.327  -3.069 -33.728  1.00  0.00     0.027 C 
HETATM   14  H   UNL     1      -2.461  -0.989 -33.125  1.00  0.00     0.163 HD
ENDROOT
BRANCH   1  15
HETATM   15  C   UNL     1      -5.696   1.345 -31.666  1.00  0.00     0.146 C 
BRANCH  15  16
HETATM   16  C   UNL     1      -7.163   1.579 -31.934  1.00  0.00     0.224 C 
HETATM   17  N   UNL     1      -7.437   2.123 -33.167  1.00  0.00    -0.327 N 
HETATM   18  H   UNL     1      -6.654   2.397 -33.755  1.00  0.00     0.169 HD
HETATM   19  O   UNL     1      -7.972   1.254 -31.064  1.00  0.00    -0.273 OA
BRANCH  17  20
HETATM   20  C   UNL     1      -8.712   2.421 -33.700  1.00  0.00     0.034 A 
HETATM   21  C   UNL     1      -9.033   3.775 -33.868  1.00  0.00     0.031 A 
HETATM   22  C   UNL     1     -10.280   4.154 -34.378  1.00  0.00     0.026 A 
HETATM   23  C   UNL     1     -11.206   3.179 -34.735  1.00  0.00     0.034 A 
HETATM   24  C   UNL     1     -10.895   1.832 -34.585  1.00  0.00     0.026 A 
HETATM   25 CL   UNL     1     -12.738   3.641 -35.364  1.00  0.00    -0.084 Cl
HETATM   26  C   UNL     1      -9.651   1.454 -34.066  1.00  0.00     0.031 A 
ENDBRANCH  17  20
ENDBRANCH  15  16
ENDBRANCH   1  15
TORSDOF 3
ENDMDL
MODEL 7
REMARK VINA RESULT:      -7.5      3.338      7.798
REMARK  3 active torsions:
REMARK  status: ('A' for Active; 'I' for Inactive)
REMARK    1  A    between atoms: C_2  and  N_3 
REMARK       I    between atoms: N_3  and  C_4 
REMARK    2  A    between atoms: C_4  and  C_5 
REMARK    3  A    between atoms: C_5  and  C_6 
ROOT
HETATM    1  C   UNL     1      -6.565   2.148 -33.302  1.00  0.00     0.286 C 
HETATM    2  N   UNL     1      -5.528   1.031 -33.210  1.00  0.00    -0.056 N 
HETATM    3  H   UNL     1      -5.174   0.848 -34.157  1.00  0.00     0.278 HD
HETATM    4  H   UNL     1      -4.706   1.408 -32.690  1.00  0.00     0.278 HD
HETATM    5  C   UNL     1      -6.025  -0.236 -32.569  1.00  0.00     0.209 C 
HETATM    6  C   UNL     1      -7.259  -0.732 -33.361  1.00  0.00     0.115 C 
HETATM    7  N   UNL     1      -8.256   0.324 -33.518  1.00  0.00    -0.353 N 
HETATM    8  C   UNL     1      -7.972   1.655 -33.685  1.00  0.00     0.249 C 
HETATM    9  O   UNL     1      -8.850   2.433 -34.042  1.00  0.00    -0.271 OA
HETATM   10  C   UNL     1      -4.893  -1.261 -32.537  1.00  0.00     0.035 C 
HETATM   11  C   UNL     1      -4.541  -1.816 -33.915  1.00  0.00     0.002 C 
HETATM   12  C   UNL     1      -5.774  -2.347 -34.639  1.00  0.00     0.002 C 
HETATM   13  C   UNL     1      -6.873  -1.294 -34.738  1.00  0.00     0.027 C 
HETATM   14  H   UNL     1      -9.203   0.065 -33.793  1.00  0.00     0.163 HD
ENDROOT
BRANCH   1  15
HETATM   15  C   UNL     1      -6.660   2.956 -32.000  1.00  0.00     0.146 C 
BRANCH  15  16
HETATM   16  C   UNL     1      -5.279   3.322 -31.511  1.00  0.00     0.224 C 
HETATM   17  N   UNL     1      -4.733   4.427 -32.121  1.00  0.00    -0.327 N 
HETATM   18  H   UNL     1      -5.244   4.852 -32.890  1.00  0.00     0.169 HD
HETATM   19  O   UNL     1      -4.778   2.637 -30.618  1.00  0.00    -0.273 OA
BRANCH  17  20
HETATM   20  C   UNL     1      -3.477   5.014 -31.847  1.00  0.00     0.034 A 
HETATM   21  C   UNL     1      -2.397   4.616 -32.648  1.00  0.00     0.031 A 
HETATM   22  C   UNL     1      -1.118   5.142 -32.433  1.00  0.00     0.026 A 
HETATM   23  C   UNL     1      -0.916   6.079 -31.425  1.00  0.00     0.034 A 
HETATM   24  C   UNL     1      -1.982   6.492 -30.630  1.00  0.00     0.026 A 
HETATM   25 CL   UNL     1       0.653   6.729 -31.159  1.00  0.00    -0.084 Cl
HETATM   26  C   UNL     1      -3.259   5.958 -30.841  1.00  0.00     0.031 A 
ENDBRANCH  17  20
ENDBRANCH  15  16
ENDBRANCH   1  15
TORSDOF 3
ENDMDL
MODEL 8
REMARK VINA RESULT:      -7.5      2.824      4.263
REMARK  3 active torsions:
REMARK  status: ('A' for Active; 'I' for Inactive)
REMARK    1  A    between atoms: C_2  and  N_3 
REMARK       I    between atoms: N_3  and  C_4 
REMARK    2  A    between atoms: C_4  and  C_5 
REMARK    3  A    between atoms: C_5  and  C_6 
ROOT
HETATM    1  C   UNL     1      -2.241   5.349 -31.753  1.00  0.00     0.286 C 
HETATM    2  N   UNL     1      -1.405   5.035 -30.514  1.00  0.00    -0.056 N 
HETATM    3  H   UNL     1      -1.776   5.590 -29.733  1.00  0.00     0.278 HD
HETATM    4  H   UNL     1      -1.597   4.045 -30.249  1.00  0.00     0.278 HD
HETATM    5  C   UNL     1       0.072   5.263 -30.680  1.00  0.00     0.209 C 
HETATM    6  C   UNL     1       0.295   6.736 -31.102  1.00  0.00     0.115 C 
HETATM    7  N   UNL     1      -0.528   7.094 -32.255  1.00  0.00    -0.353 N 
HETATM    8  C   UNL     1      -1.790   6.618 -32.497  1.00  0.00     0.249 C 
HETATM    9  O   UNL     1      -2.494   7.146 -33.353  1.00  0.00    -0.271 OA
HETATM   10  C   UNL     1       0.785   4.909 -29.376  1.00  0.00     0.035 C 
HETATM   11  C   UNL     1       0.517   5.905 -28.250  1.00  0.00     0.002 C 
HETATM   12  C   UNL     1       0.803   7.337 -28.688  1.00  0.00     0.002 C 
HETATM   13  C   UNL     1       0.029   7.713 -29.946  1.00  0.00     0.027 C 
HETATM   14  H   UNL     1      -0.295   7.937 -32.778  1.00  0.00     0.163 HD
ENDROOT
BRANCH   1  15
HETATM   15  C   UNL     1      -2.267   4.177 -32.744  1.00  0.00     0.146 C 
BRANCH  15  16
HETATM   16  C   UNL     1      -3.324   3.176 -32.340  1.00  0.00     0.224 C 
HETATM   17  N   UNL     1      -4.537   3.345 -32.966  1.00  0.00    -0.327 N 
HETATM   18  H   UNL     1      -4.657   4.155 -33.569  1.00  0.00     0.169 HD
HETATM   19  O   UNL     1      -3.018   2.303 -31.527  1.00  0.00    -0.273 OA
BRANCH  17  20
HETATM   20  C   UNL     1      -5.692   2.547 -32.809  1.00  0.00     0.034 A 
HETATM   21  C   UNL     1      -6.484   2.784 -31.676  1.00  0.00     0.031 A 
HETATM   22  C   UNL     1      -7.638   2.028 -31.442  1.00  0.00     0.026 A 
HETATM   23  C   UNL     1      -8.013   1.040 -32.347  1.00  0.00     0.034 A 
HETATM   24  C   UNL     1      -7.243   0.803 -33.481  1.00  0.00     0.026 A 
HETATM   25 CL   UNL     1      -9.431   0.110 -32.063  1.00  0.00    -0.084 Cl
HETATM   26  C   UNL     1      -6.084   1.554 -33.710  1.00  0.00     0.031 A 
ENDBRANCH  17  20
ENDBRANCH  15  16
ENDBRANCH   1  15
TORSDOF 3
ENDMDL
MODEL 9
REMARK VINA RESULT:      -7.4      1.566      2.031
REMARK  3 active torsions:
REMARK  status: ('A' for Active; 'I' for Inactive)
REMARK    1  A    between atoms: C_2  and  N_3 
REMARK       I    between atoms: N_3  and  C_4 
REMARK    2  A    between atoms: C_4  and  C_5 
REMARK    3  A    between atoms: C_5  and  C_6 
ROOT
HETATM    1  C   UNL     1      -4.301   3.507 -31.186  1.00  0.00     0.286 C 
HETATM    2  N   UNL     1      -2.870   3.733 -31.666  1.00  0.00    -0.056 N 
HETATM    3  H   UNL     1      -2.242   3.611 -30.862  1.00  0.00     0.278 HD
HETATM    4  H   UNL     1      -2.627   2.950 -32.311  1.00  0.00     0.278 HD
HETATM    5  C   UNL     1      -2.633   5.061 -32.333  1.00  0.00     0.209 C 
HETATM    6  C   UNL     1      -3.037   6.182 -31.346  1.00  0.00     0.115 C 
HETATM    7  N   UNL     1      -4.384   5.976 -30.820  1.00  0.00    -0.353 N 
HETATM    8  C   UNL     1      -4.943   4.753 -30.551  1.00  0.00     0.249 C 
HETATM    9  O   UNL     1      -5.979   4.680 -29.897  1.00  0.00    -0.271 OA
HETATM   10  C   UNL     1      -1.171   5.153 -32.767  1.00  0.00     0.035 C 
HETATM   11  C   UNL     1      -0.202   5.301 -31.596  1.00  0.00     0.002 C 
HETATM   12  C   UNL     1      -0.602   6.452 -30.679  1.00  0.00     0.002 C 
HETATM   13  C   UNL     1      -2.038   6.315 -30.185  1.00  0.00     0.027 C 
HETATM   14  H   UNL     1      -4.856   6.757 -30.367  1.00  0.00     0.163 HD
ENDROOT
BRANCH   1  15
HETATM   15  C   UNL     1      -5.214   2.998 -32.310  1.00  0.00     0.146 C 
BRANCH  15  16
HETATM   16  C   UNL     1      -5.178   1.489 -32.368  1.00  0.00     0.224 C 
HETATM   17  N   UNL     1      -5.654   0.953 -33.541  1.00  0.00    -0.327 N 
HETATM   18  H   UNL     1      -6.062   1.584 -34.227  1.00  0.00     0.169 HD
HETATM   19  O   UNL     1      -4.718   0.880 -31.401  1.00  0.00    -0.273 OA
BRANCH  17  20
HETATM   20  C   UNL     1      -5.714  -0.416 -33.887  1.00  0.00     0.034 A 
HETATM   21  C   UNL     1      -4.515  -1.141 -33.837  1.00  0.00     0.031 A 
HETATM   22  C   UNL     1      -4.489  -2.499 -34.176  1.00  0.00     0.026 A 
HETATM   23  C   UNL     1      -5.664  -3.141 -34.553  1.00  0.00     0.034 A 
HETATM   24  C   UNL     1      -6.862  -2.436 -34.596  1.00  0.00     0.026 A 
HETATM   25 CL   UNL     1      -5.635  -4.808 -34.969  1.00  0.00    -0.084 Cl
HETATM   26  C   UNL     1      -6.887  -1.075 -34.265  1.00  0.00     0.031 A 
ENDBRANCH  17  20
ENDBRANCH  15  16
ENDBRANCH   1  15
TORSDOF 3
ENDMDL
MODEL 10
REMARK VINA RESULT:      -7.3      4.405      6.932
REMARK  3 active torsions:
REMARK  status: ('A' for Active; 'I' for Inactive)
REMARK    1  A    between atoms: C_2  and  N_3 
REMARK       I    between atoms: N_3  and  C_4 
REMARK    2  A    between atoms: C_4  and  C_5 
REMARK    3  A    between atoms: C_5  and  C_6 
ROOT
HETATM    1  C   UNL     1      -6.846   1.214 -31.678  1.00  0.00     0.286 C 
HETATM    2  N   UNL     1      -7.236   0.148 -32.699  1.00  0.00    -0.056 N 
HETATM    3  H   UNL     1      -7.167  -0.769 -32.242  1.00  0.00     0.278 HD
HETATM    4  H   UNL     1      -8.253   0.265 -32.903  1.00  0.00     0.278 HD
HETATM    5  C   UNL     1      -6.435   0.175 -33.972  1.00  0.00     0.209 C 
HETATM    6  C   UNL     1      -4.937   0.029 -33.608  1.00  0.00     0.115 C 
HETATM    7  N   UNL     1      -4.534   0.998 -32.593  1.00  0.00    -0.353 N 
HETATM    8  C   UNL     1      -5.328   1.434 -31.564  1.00  0.00     0.249 C 
HETATM    9  O   UNL     1      -4.838   2.062 -30.630  1.00  0.00    -0.271 OA
HETATM   10  C   UNL     1      -6.928  -0.933 -34.901  1.00  0.00     0.035 C 
HETATM   11  C   UNL     1      -6.559  -2.334 -34.419  1.00  0.00     0.002 C 
HETATM   12  C   UNL     1      -5.068  -2.453 -34.128  1.00  0.00     0.002 C 
HETATM   13  C   UNL     1      -4.594  -1.393 -33.139  1.00  0.00     0.027 C 
HETATM   14  H   UNL     1      -3.540   1.173 -32.452  1.00  0.00     0.163 HD
ENDROOT
BRANCH   1  15
HETATM   15  C   UNL     1      -7.523   2.562 -31.963  1.00  0.00     0.146 C 
BRANCH  15  16
HETATM   16  C   UNL     1      -9.023   2.427 -31.853  1.00  0.00     0.224 C 
HETATM   17  N   UNL     1      -9.664   2.198 -33.048  1.00  0.00    -0.327 N 
HETATM   18  H   UNL     1      -9.111   2.221 -33.901  1.00  0.00     0.169 HD
HETATM   19  O   UNL     1      -9.533   2.508 -30.735  1.00  0.00    -0.273 OA
BRANCH  17  20
HETATM   20  C   UNL     1     -11.050   2.003 -33.245  1.00  0.00     0.034 A 
HETATM   21  C   UNL     1     -11.480   0.695 -33.509  1.00  0.00     0.031 A 
HETATM   22  C   UNL     1     -12.835   0.421 -33.728  1.00  0.00     0.026 A 
HETATM   23  C   UNL     1     -13.767   1.451 -33.669  1.00  0.00     0.034 A 
HETATM   24  C   UNL     1     -13.355   2.752 -33.395  1.00  0.00     0.026 A 
HETATM   25 CL   UNL     1     -15.432   1.118 -33.934  1.00  0.00    -0.084 Cl
HETATM   26  C   UNL     1     -11.998   3.027 -33.185  1.00  0.00     0.031 A 
ENDBRANCH  17  20
ENDBRANCH  15  16
ENDBRANCH   1  15
TORSDOF 3
ENDMDL
