MODEL 1
REMARK VINA RESULT:      -8.6      0.000      0.000
REMARK  3 active torsions:
REMARK  status: ('A' for Active; 'I' for Inactive)
REMARK    1  A    between atoms: N_3  and  C_4 
REMARK    2  A    between atoms: C_8  and  C_9 
REMARK       I    between atoms: C_9  and  N_10 
REMARK    3  A    between atoms: C_17  and  O_18 
ROOT
HETATM    1  C   UNL     1      -5.393   3.034 -30.923  1.00  0.00     0.254 C 
HETATM    2  N   UNL     1      -4.280   3.814 -31.218  1.00  0.00    -0.343 N 
HETATM    3  C   UNL     1      -4.242   5.154 -30.648  1.00  0.00     0.165 C 
HETATM    4  C   UNL     1      -3.298   6.082 -31.382  1.00  0.00    -0.031 A 
HETATM    5  C   UNL     1      -2.342   5.589 -32.293  1.00  0.00    -0.049 A 
HETATM    6  C   UNL     1      -2.282   4.116 -32.621  1.00  0.00     0.059 C 
HETATM    7  C   UNL     1      -2.971   3.259 -31.561  1.00  0.00     0.131 C 
HETATM    8  C   UNL     1      -3.360   7.461 -31.128  1.00  0.00     0.046 A 
HETATM    9  C   UNL     1      -2.499   8.329 -31.792  1.00  0.00     0.066 A 
HETATM   10  C   UNL     1      -1.566   7.851 -32.702  1.00  0.00     0.037 A 
HETATM   11  C   UNL     1      -1.488   6.482 -32.955  1.00  0.00     0.010 A 
HETATM   12  O   UNL     1      -6.254   3.371 -30.112  1.00  0.00    -0.267 OA
ENDROOT
BRANCH   1  13
HETATM   13  C   UNL     1      -5.603   1.765 -31.662  1.00  0.00     0.035 A 
HETATM   14  C   UNL     1      -5.941   1.821 -33.015  1.00  0.00     0.061 A 
HETATM   15  C   UNL     1      -6.065   0.643 -33.751  1.00  0.00     0.146 A 
HETATM   16  C   UNL     1      -5.843  -0.603 -33.157  1.00  0.00     0.096 A 
HETATM   17  F   UNL     1      -6.403   0.764 -35.042  1.00  0.00    -0.204 F 
HETATM   18  C   UNL     1      -5.491  -0.650 -31.796  1.00  0.00     0.036 A 
HETATM   19  C   UNL     1      -5.358   0.529 -31.056  1.00  0.00     0.019 A 
BRANCH  16  20
HETATM   20  N   UNL     1      -5.943  -1.820 -33.886  1.00  0.00    -0.242 N 
HETATM   21  C   UNL     1      -7.066  -2.524 -34.264  1.00  0.00     0.120 A 
HETATM   22  C   UNL     1      -6.645  -3.629 -34.964  1.00  0.00     0.040 A 
HETATM   23  C   UNL     1      -5.249  -3.530 -34.967  1.00  0.00     0.140 A 
HETATM   24  N   UNL     1      -4.813  -2.448 -34.323  1.00  0.00    -0.180 NA
ENDBRANCH  16  20
ENDBRANCH   1  13
BRANCH   9  25
HETATM   25  O   UNL     1      -2.545   9.675 -31.579  1.00  0.00    -0.361 OA
HETATM   26  H   UNL     1      -2.592  10.124 -32.439  1.00  0.00     0.217 HD
ENDBRANCH   9  25
TORSDOF 3
ENDMDL
MODEL 2
REMARK VINA RESULT:      -8.1      5.378      7.971
REMARK  3 active torsions:
REMARK  status: ('A' for Active; 'I' for Inactive)
REMARK    1  A    between atoms: N_3  and  C_4 
REMARK    2  A    between atoms: C_8  and  C_9 
REMARK       I    between atoms: C_9  and  N_10 
REMARK    3  A    between atoms: C_17  and  O_18 
ROOT
HETATM    1  C   UNL     1      -9.175   2.544 -33.563  1.00  0.00     0.254 C 
HETATM    2  N   UNL     1     -10.552   2.367 -33.659  1.00  0.00    -0.343 N 
HETATM    3  C   UNL     1     -11.392   3.483 -33.244  1.00  0.00     0.165 C 
HETATM    4  C   UNL     1     -12.808   3.064 -32.912  1.00  0.00    -0.031 A 
HETATM    5  C   UNL     1     -13.308   1.801 -33.285  1.00  0.00    -0.049 A 
HETATM    6  C   UNL     1     -12.416   0.792 -33.968  1.00  0.00     0.059 C 
HETATM    7  C   UNL     1     -11.186   1.442 -34.597  1.00  0.00     0.131 C 
HETATM    8  C   UNL     1     -13.647   3.967 -32.240  1.00  0.00     0.046 A 
HETATM    9  C   UNL     1     -14.953   3.601 -31.928  1.00  0.00     0.066 A 
HETATM   10  C   UNL     1     -15.447   2.352 -32.279  1.00  0.00     0.037 A 
HETATM   11  C   UNL     1     -14.626   1.450 -32.956  1.00  0.00     0.010 A 
HETATM   12  O   UNL     1      -8.654   3.621 -33.281  1.00  0.00    -0.267 OA
ENDROOT
BRANCH   1  13
HETATM   13  C   UNL     1      -8.283   1.373 -33.738  1.00  0.00     0.035 A 
HETATM   14  C   UNL     1      -7.737   0.765 -32.606  1.00  0.00     0.061 A 
HETATM   15  C   UNL     1      -6.960  -0.386 -32.740  1.00  0.00     0.146 A 
HETATM   16  C   UNL     1      -6.725  -0.953 -33.996  1.00  0.00     0.096 A 
HETATM   17  F   UNL     1      -6.457  -0.915 -31.617  1.00  0.00    -0.204 F 
HETATM   18  C   UNL     1      -7.288  -0.341 -35.130  1.00  0.00     0.036 A 
HETATM   19  C   UNL     1      -8.075   0.807 -35.000  1.00  0.00     0.019 A 
BRANCH  16  20
HETATM   20  N   UNL     1      -5.954  -2.136 -34.162  1.00  0.00    -0.242 N 
HETATM   21  C   UNL     1      -4.615  -2.350 -33.912  1.00  0.00     0.120 A 
HETATM   22  C   UNL     1      -4.343  -3.663 -34.216  1.00  0.00     0.040 A 
HETATM   23  C   UNL     1      -5.567  -4.182 -34.650  1.00  0.00     0.140 A 
HETATM   24  N   UNL     1      -6.544  -3.277 -34.622  1.00  0.00    -0.180 NA
ENDBRANCH  16  20
ENDBRANCH   1  13
BRANCH   9  25
HETATM   25  O   UNL     1     -15.789   4.448 -31.262  1.00  0.00    -0.361 OA
HETATM   26  H   UNL     1     -15.276   5.216 -30.960  1.00  0.00     0.217 HD
ENDBRANCH   9  25
TORSDOF 3
ENDMDL
MODEL 3
REMARK VINA RESULT:      -8.0      4.513      8.561
REMARK  3 active torsions:
REMARK  status: ('A' for Active; 'I' for Inactive)
REMARK    1  A    between atoms: N_3  and  C_4 
REMARK    2  A    between atoms: C_8  and  C_9 
REMARK       I    between atoms: C_9  and  N_10 
REMARK    3  A    between atoms: C_17  and  O_18 
ROOT
HETATM    1  C   UNL     1      -7.583   0.826 -33.781  1.00  0.00     0.254 C 
HETATM    2  N   UNL     1      -6.466  -0.003 -33.755  1.00  0.00    -0.343 N 
HETATM    3  C   UNL     1      -6.499  -1.185 -34.607  1.00  0.00     0.165 C 
HETATM    4  C   UNL     1      -5.519  -2.253 -34.173  1.00  0.00    -0.031 A 
HETATM    5  C   UNL     1      -4.485  -1.974 -33.257  1.00  0.00    -0.049 A 
HETATM    6  C   UNL     1      -4.369  -0.610 -32.620  1.00  0.00     0.059 C 
HETATM    7  C   UNL     1      -5.123   0.460 -33.407  1.00  0.00     0.131 C 
HETATM    8  C   UNL     1      -5.628  -3.542 -34.718  1.00  0.00     0.046 A 
HETATM    9  C   UNL     1      -4.735  -4.537 -34.334  1.00  0.00     0.066 A 
HETATM   10  C   UNL     1      -3.723  -4.273 -33.419  1.00  0.00     0.037 A 
HETATM   11  C   UNL     1      -3.598  -2.993 -32.879  1.00  0.00     0.010 A 
HETATM   12  O   UNL     1      -8.511   0.677 -34.573  1.00  0.00    -0.267 OA
ENDROOT
BRANCH   1  13
HETATM   13  C   UNL     1      -7.708   1.900 -32.766  1.00  0.00     0.035 A 
HETATM   14  C   UNL     1      -7.345   3.202 -33.114  1.00  0.00     0.061 A 
HETATM   15  C   UNL     1      -7.528   4.243 -32.204  1.00  0.00     0.146 A 
HETATM   16  C   UNL     1      -8.085   4.007 -30.943  1.00  0.00     0.096 A 
HETATM   17  F   UNL     1      -7.149   5.467 -32.594  1.00  0.00    -0.204 F 
HETATM   18  C   UNL     1      -8.460   2.694 -30.605  1.00  0.00     0.036 A 
HETATM   19  C   UNL     1      -8.286   1.649 -31.517  1.00  0.00     0.019 A 
BRANCH  16  20
HETATM   20  N   UNL     1      -8.303   5.049 -30.002  1.00  0.00    -0.242 N 
HETATM   21  C   UNL     1      -7.564   5.393 -28.890  1.00  0.00     0.120 A 
HETATM   22  C   UNL     1      -8.171   6.481 -28.310  1.00  0.00     0.040 A 
HETATM   23  C   UNL     1      -9.277   6.740 -29.126  1.00  0.00     0.140 A 
HETATM   24  N   UNL     1      -9.369   5.888 -30.147  1.00  0.00    -0.180 NA
ENDBRANCH  16  20
ENDBRANCH   1  13
BRANCH   9  25
HETATM   25  O   UNL     1      -4.823  -5.803 -34.832  1.00  0.00    -0.361 OA
HETATM   26  H   UNL     1      -5.158  -6.389 -34.134  1.00  0.00     0.217 HD
ENDBRANCH   9  25
TORSDOF 3
ENDMDL
MODEL 4
REMARK VINA RESULT:      -7.9     16.931     18.298
REMARK  3 active torsions:
REMARK  status: ('A' for Active; 'I' for Inactive)
REMARK    1  A    between atoms: N_3  and  C_4 
REMARK    2  A    between atoms: C_8  and  C_9 
REMARK       I    between atoms: C_9  and  N_10 
REMARK    3  A    between atoms: C_17  and  O_18 
ROOT
HETATM    1  C   UNL     1      -4.314 -13.141 -37.163  1.00  0.00     0.254 C 
HETATM    2  N   UNL     1      -3.371 -13.968 -37.766  1.00  0.00    -0.343 N 
HETATM    3  C   UNL     1      -2.001 -13.874 -37.277  1.00  0.00     0.165 C 
HETATM    4  C   UNL     1      -0.984 -14.403 -38.265  1.00  0.00    -0.031 A 
HETATM    5  C   UNL     1      -1.372 -15.186 -39.372  1.00  0.00    -0.049 A 
HETATM    6  C   UNL     1      -2.831 -15.458 -39.647  1.00  0.00     0.059 C 
HETATM    7  C   UNL     1      -3.703 -15.237 -38.412  1.00  0.00     0.131 C 
HETATM    8  C   UNL     1       0.377 -14.130 -38.057  1.00  0.00     0.046 A 
HETATM    9  C   UNL     1       1.327 -14.610 -38.954  1.00  0.00     0.066 A 
HETATM   10  C   UNL     1       0.950 -15.368 -40.055  1.00  0.00     0.037 A 
HETATM   11  C   UNL     1      -0.399 -15.655 -40.266  1.00  0.00     0.010 A 
HETATM   12  O   UNL     1      -4.070 -12.455 -36.172  1.00  0.00    -0.267 OA
ENDROOT
BRANCH   1  13
HETATM   13  C   UNL     1      -5.659 -13.015 -37.774  1.00  0.00     0.035 A 
HETATM   14  C   UNL     1      -5.770 -12.481 -39.058  1.00  0.00     0.061 A 
HETATM   15  C   UNL     1      -7.015 -12.427 -39.685  1.00  0.00     0.146 A 
HETATM   16  C   UNL     1      -8.162 -12.912 -39.050  1.00  0.00     0.096 A 
HETATM   17  F   UNL     1      -7.055 -11.892 -40.913  1.00  0.00    -0.204 F 
HETATM   18  C   UNL     1      -8.040 -13.460 -37.760  1.00  0.00     0.036 A 
HETATM   19  C   UNL     1      -6.792 -13.524 -37.131  1.00  0.00     0.019 A 
BRANCH  16  20
HETATM   20  N   UNL     1      -9.440 -12.889 -39.671  1.00  0.00    -0.242 N 
HETATM   21  C   UNL     1     -10.273 -13.938 -39.998  1.00  0.00     0.120 A 
HETATM   22  C   UNL     1     -11.405 -13.405 -40.568  1.00  0.00     0.040 A 
HETATM   23  C   UNL     1     -11.184 -12.023 -40.556  1.00  0.00     0.140 A 
HETATM   24  N   UNL     1     -10.009 -11.698 -40.019  1.00  0.00    -0.180 NA
ENDBRANCH  16  20
ENDBRANCH   1  13
BRANCH   9  25
HETATM   25  O   UNL     1       2.655 -14.349 -38.789  1.00  0.00    -0.361 OA
HETATM   26  H   UNL     1       3.078 -14.329 -39.663  1.00  0.00     0.217 HD
ENDBRANCH   9  25
TORSDOF 3
ENDMDL
MODEL 5
REMARK VINA RESULT:      -7.9     16.807     18.682
REMARK  3 active torsions:
REMARK  status: ('A' for Active; 'I' for Inactive)
REMARK    1  A    between atoms: N_3  and  C_4 
REMARK    2  A    between atoms: C_8  and  C_9 
REMARK       I    between atoms: C_9  and  N_10 
REMARK    3  A    between atoms: C_17  and  O_18 
ROOT
HETATM    1  C   UNL     1      -3.532 -12.456 -38.638  1.00  0.00     0.254 C 
HETATM    2  N   UNL     1      -2.775 -13.613 -38.487  1.00  0.00    -0.343 N 
HETATM    3  C   UNL     1      -1.331 -13.448 -38.373  1.00  0.00     0.165 C 
HETATM    4  C   UNL     1      -0.565 -14.710 -38.704  1.00  0.00    -0.031 A 
HETATM    5  C   UNL     1      -1.209 -15.962 -38.785  1.00  0.00    -0.049 A 
HETATM    6  C   UNL     1      -2.705 -16.069 -38.617  1.00  0.00     0.059 C 
HETATM    7  C   UNL     1      -3.295 -14.851 -37.908  1.00  0.00     0.131 C 
HETATM    8  C   UNL     1       0.822 -14.634 -38.907  1.00  0.00     0.046 A 
HETATM    9  C   UNL     1       1.544 -15.784 -39.210  1.00  0.00     0.066 A 
HETATM   10  C   UNL     1       0.913 -17.018 -39.307  1.00  0.00     0.037 A 
HETATM   11  C   UNL     1      -0.463 -17.108 -39.097  1.00  0.00     0.010 A 
HETATM   12  O   UNL     1      -3.058 -11.326 -38.544  1.00  0.00    -0.267 OA
ENDROOT
BRANCH   1  13
HETATM   13  C   UNL     1      -4.966 -12.574 -38.998  1.00  0.00     0.035 A 
HETATM   14  C   UNL     1      -5.902 -12.783 -37.984  1.00  0.00     0.061 A 
HETATM   15  C   UNL     1      -7.263 -12.817 -38.288  1.00  0.00     0.146 A 
HETATM   16  C   UNL     1      -7.712 -12.633 -39.599  1.00  0.00     0.096 A 
HETATM   17  F   UNL     1      -8.108 -13.033 -37.272  1.00  0.00    -0.204 F 
HETATM   18  C   UNL     1      -6.763 -12.411 -40.614  1.00  0.00     0.036 A 
HETATM   19  C   UNL     1      -5.398 -12.368 -40.312  1.00  0.00     0.019 A 
BRANCH  16  20
HETATM   20  N   UNL     1      -9.092 -12.643 -39.937  1.00  0.00    -0.242 N 
HETATM   21  C   UNL     1      -9.924 -11.589 -40.253  1.00  0.00     0.120 A 
HETATM   22  C   UNL     1     -11.168 -12.109 -40.518  1.00  0.00     0.040 A 
HETATM   23  C   UNL     1     -11.015 -13.489 -40.339  1.00  0.00     0.140 A 
HETATM   24  N   UNL     1      -9.774 -13.824 -39.991  1.00  0.00    -0.180 NA
ENDBRANCH  16  20
ENDBRANCH   1  13
BRANCH   9  25
HETATM   25  O   UNL     1       2.889 -15.742 -39.428  1.00  0.00    -0.361 OA
HETATM   26  H   UNL     1       3.148 -14.820 -39.590  1.00  0.00     0.217 HD
ENDBRANCH   9  25
TORSDOF 3
ENDMDL
MODEL 6
REMARK VINA RESULT:      -7.5      3.169      8.432
REMARK  3 active torsions:
REMARK  status: ('A' for Active; 'I' for Inactive)
REMARK    1  A    between atoms: N_3  and  C_4 
REMARK    2  A    between atoms: C_8  and  C_9 
REMARK       I    between atoms: C_9  and  N_10 
REMARK    3  A    between atoms: C_17  and  O_18 
ROOT
HETATM    1  C   UNL     1      -3.940   1.170 -31.508  1.00  0.00     0.254 C 
HETATM    2  N   UNL     1      -4.734   0.145 -32.014  1.00  0.00    -0.343 N 
HETATM    3  C   UNL     1      -4.106  -1.160 -32.174  1.00  0.00     0.165 C 
HETATM    4  C   UNL     1      -4.840  -2.052 -33.152  1.00  0.00    -0.031 A 
HETATM    5  C   UNL     1      -6.148  -1.751 -33.584  1.00  0.00    -0.049 A 
HETATM    6  C   UNL     1      -6.831  -0.481 -33.138  1.00  0.00     0.059 C 
HETATM    7  C   UNL     1      -6.190   0.110 -31.883  1.00  0.00     0.131 C 
HETATM    8  C   UNL     1      -4.213  -3.219 -33.616  1.00  0.00     0.046 A 
HETATM    9  C   UNL     1      -4.872  -4.053 -34.513  1.00  0.00     0.066 A 
HETATM   10  C   UNL     1      -6.154  -3.753 -34.955  1.00  0.00     0.037 A 
HETATM   11  C   UNL     1      -6.793  -2.603 -34.493  1.00  0.00     0.010 A 
HETATM   12  O   UNL     1      -2.804   0.987 -31.075  1.00  0.00    -0.267 OA
ENDROOT
BRANCH   1  13
HETATM   13  C   UNL     1      -4.446   2.563 -31.549  1.00  0.00     0.035 A 
HETATM   14  C   UNL     1      -4.550   3.207 -32.783  1.00  0.00     0.061 A 
HETATM   15  C   UNL     1      -5.098   4.487 -32.856  1.00  0.00     0.146 A 
HETATM   16  C   UNL     1      -5.560   5.139 -31.709  1.00  0.00     0.096 A 
HETATM   17  F   UNL     1      -5.158   5.055 -34.068  1.00  0.00    -0.204 F 
HETATM   18  C   UNL     1      -5.463   4.478 -30.471  1.00  0.00     0.036 A 
HETATM   19  C   UNL     1      -4.922   3.191 -30.394  1.00  0.00     0.019 A 
BRANCH  16  20
HETATM   20  N   UNL     1      -6.141   6.435 -31.755  1.00  0.00    -0.242 N 
HETATM   21  C   UNL     1      -7.353   6.833 -32.280  1.00  0.00     0.120 A 
HETATM   22  C   UNL     1      -7.470   8.186 -32.069  1.00  0.00     0.040 A 
HETATM   23  C   UNL     1      -6.287   8.542 -31.413  1.00  0.00     0.140 A 
HETATM   24  N   UNL     1      -5.479   7.500 -31.216  1.00  0.00    -0.180 NA
ENDBRANCH  16  20
ENDBRANCH   1  13
BRANCH   9  25
HETATM   25  O   UNL     1      -4.284  -5.185 -34.995  1.00  0.00    -0.361 OA
HETATM   26  H   UNL     1      -4.433  -5.905 -34.361  1.00  0.00     0.217 HD
ENDBRANCH   9  25
TORSDOF 3
ENDMDL
MODEL 7
REMARK VINA RESULT:      -7.5      3.663      8.601
REMARK  3 active torsions:
REMARK  status: ('A' for Active; 'I' for Inactive)
REMARK    1  A    between atoms: N_3  and  C_4 
REMARK    2  A    between atoms: C_8  and  C_9 
REMARK       I    between atoms: C_9  and  N_10 
REMARK    3  A    between atoms: C_17  and  O_18 
ROOT
HETATM    1  C   UNL     1      -7.920   1.409 -32.095  1.00  0.00     0.254 C 
HETATM    2  N   UNL     1      -7.095   0.601 -32.872  1.00  0.00    -0.343 N 
HETATM    3  C   UNL     1      -7.726  -0.517 -33.562  1.00  0.00     0.165 C 
HETATM    4  C   UNL     1      -6.741  -1.595 -33.960  1.00  0.00    -0.031 A 
HETATM    5  C   UNL     1      -5.351  -1.364 -33.946  1.00  0.00    -0.049 A 
HETATM    6  C   UNL     1      -4.796  -0.047 -33.458  1.00  0.00     0.059 C 
HETATM    7  C   UNL     1      -5.845   1.063 -33.474  1.00  0.00     0.131 C 
HETATM    8  C   UNL     1      -7.227  -2.844 -34.378  1.00  0.00     0.046 A 
HETATM    9  C   UNL     1      -6.338  -3.847 -34.750  1.00  0.00     0.066 A 
HETATM   10  C   UNL     1      -4.967  -3.630 -34.723  1.00  0.00     0.037 A 
HETATM   11  C   UNL     1      -4.471  -2.391 -34.320  1.00  0.00     0.010 A 
HETATM   12  O   UNL     1      -9.144   1.300 -32.078  1.00  0.00    -0.267 OA
ENDROOT
BRANCH   1  13
HETATM   13  C   UNL     1      -7.304   2.405 -31.186  1.00  0.00     0.035 A 
HETATM   14  C   UNL     1      -5.934   2.650 -31.281  1.00  0.00     0.061 A 
HETATM   15  C   UNL     1      -5.346   3.639 -30.493  1.00  0.00     0.146 A 
HETATM   16  C   UNL     1      -6.113   4.405 -29.609  1.00  0.00     0.096 A 
HETATM   17  F   UNL     1      -4.025   3.817 -30.624  1.00  0.00    -0.204 F 
HETATM   18  C   UNL     1      -7.495   4.160 -29.527  1.00  0.00     0.036 A 
HETATM   19  C   UNL     1      -8.090   3.175 -30.322  1.00  0.00     0.019 A 
BRANCH  16  20
HETATM   20  N   UNL     1      -5.546   5.433 -28.808  1.00  0.00    -0.242 N 
HETATM   21  C   UNL     1      -4.945   6.613 -29.194  1.00  0.00     0.120 A 
HETATM   22  C   UNL     1      -4.571   7.279 -28.051  1.00  0.00     0.040 A 
HETATM   23  C   UNL     1      -4.975   6.439 -27.008  1.00  0.00     0.140 A 
HETATM   24  N   UNL     1      -5.563   5.327 -27.448  1.00  0.00    -0.180 NA
ENDBRANCH  16  20
ENDBRANCH   1  13
BRANCH   9  25
HETATM   25  O   UNL     1      -6.778  -5.076 -35.145  1.00  0.00    -0.361 OA
HETATM   26  H   UNL     1      -7.566  -4.959 -35.701  1.00  0.00     0.217 HD
ENDBRANCH   9  25
TORSDOF 3
ENDMDL
MODEL 8
REMARK VINA RESULT:      -7.5      3.612      8.538
REMARK  3 active torsions:
REMARK  status: ('A' for Active; 'I' for Inactive)
REMARK    1  A    between atoms: N_3  and  C_4 
REMARK    2  A    between atoms: C_8  and  C_9 
REMARK       I    between atoms: C_9  and  N_10 
REMARK    3  A    between atoms: C_17  and  O_18 
ROOT
HETATM    1  C   UNL     1      -4.496   4.395 -33.446  1.00  0.00     0.254 C 
HETATM    2  N   UNL     1      -5.275   3.278 -33.160  1.00  0.00    -0.343 N 
HETATM    3  C   UNL     1      -6.357   2.972 -34.087  1.00  0.00     0.165 C 
HETATM    4  C   UNL     1      -7.425   2.090 -33.477  1.00  0.00    -0.031 A 
HETATM    5  C   UNL     1      -7.206   1.397 -32.269  1.00  0.00    -0.049 A 
HETATM    6  C   UNL     1      -5.916   1.576 -31.504  1.00  0.00     0.059 C 
HETATM    7  C   UNL     1      -4.798   2.137 -32.380  1.00  0.00     0.131 C 
HETATM    8  C   UNL     1      -8.650   1.938 -34.145  1.00  0.00     0.046 A 
HETATM    9  C   UNL     1      -9.643   1.130 -33.602  1.00  0.00     0.066 A 
HETATM   10  C   UNL     1      -9.439   0.458 -32.404  1.00  0.00     0.037 A 
HETATM   11  C   UNL     1      -8.222   0.592 -31.735  1.00  0.00     0.010 A 
HETATM   12  O   UNL     1      -4.595   5.033 -34.492  1.00  0.00    -0.267 OA
ENDROOT
BRANCH   1  13
HETATM   13  C   UNL     1      -3.545   4.893 -32.423  1.00  0.00     0.035 A 
HETATM   14  C   UNL     1      -2.180   4.665 -32.603  1.00  0.00     0.061 A 
HETATM   15  C   UNL     1      -1.260   5.193 -31.696  1.00  0.00     0.146 A 
HETATM   16  C   UNL     1      -1.684   5.962 -30.607  1.00  0.00     0.096 A 
HETATM   17  F   UNL     1       0.034   4.929 -31.919  1.00  0.00    -0.204 F 
HETATM   18  C   UNL     1      -3.061   6.196 -30.440  1.00  0.00     0.036 A 
HETATM   19  C   UNL     1      -3.985   5.677 -31.351  1.00  0.00     0.019 A 
BRANCH  16  20
HETATM   20  N   UNL     1      -0.770   6.529 -29.678  1.00  0.00    -0.242 N 
HETATM   21  C   UNL     1       0.156   5.904 -28.869  1.00  0.00     0.120 A 
HETATM   22  C   UNL     1       0.811   6.882 -28.160  1.00  0.00     0.040 A 
HETATM   23  C   UNL     1       0.225   8.078 -28.590  1.00  0.00     0.140 A 
HETATM   24  N   UNL     1      -0.725   7.881 -29.502  1.00  0.00    -0.180 NA
ENDBRANCH  16  20
ENDBRANCH   1  13
BRANCH   9  25
HETATM   25  O   UNL     1     -10.850   0.975 -34.218  1.00  0.00    -0.361 OA
HETATM   26  H   UNL     1     -11.482   1.597 -33.823  1.00  0.00     0.217 HD
ENDBRANCH   9  25
TORSDOF 3
ENDMDL
MODEL 9
REMARK VINA RESULT:      -7.4      4.196      9.062
REMARK  3 active torsions:
REMARK  status: ('A' for Active; 'I' for Inactive)
REMARK    1  A    between atoms: N_3  and  C_4 
REMARK    2  A    between atoms: C_8  and  C_9 
REMARK       I    between atoms: C_9  and  N_10 
REMARK    3  A    between atoms: C_17  and  O_18 
ROOT
HETATM    1  C   UNL     1      -2.616   6.031 -32.663  1.00  0.00     0.254 C 
HETATM    2  N   UNL     1      -3.268   4.804 -32.580  1.00  0.00    -0.343 N 
HETATM    3  C   UNL     1      -4.245   4.504 -33.619  1.00  0.00     0.165 C 
HETATM    4  C   UNL     1      -5.230   3.431 -33.209  1.00  0.00    -0.031 A 
HETATM    5  C   UNL     1      -5.001   2.611 -32.085  1.00  0.00    -0.049 A 
HETATM    6  C   UNL     1      -3.793   2.831 -31.207  1.00  0.00     0.059 C 
HETATM    7  C   UNL     1      -2.701   3.630 -31.917  1.00  0.00     0.131 C 
HETATM    8  C   UNL     1      -6.384   3.231 -33.983  1.00  0.00     0.046 A 
HETATM    9  C   UNL     1      -7.301   2.249 -33.624  1.00  0.00     0.066 A 
HETATM   10  C   UNL     1      -7.089   1.449 -32.508  1.00  0.00     0.037 A 
HETATM   11  C   UNL     1      -5.941   1.630 -31.737  1.00  0.00     0.010 A 
HETATM   12  O   UNL     1      -2.730   6.788 -33.624  1.00  0.00    -0.267 OA
ENDROOT
BRANCH   1  13
HETATM   13  C   UNL     1      -1.799   6.492 -31.515  1.00  0.00     0.035 A 
HETATM   14  C   UNL     1      -2.436   6.797 -30.312  1.00  0.00     0.061 A 
HETATM   15  C   UNL     1      -1.681   7.156 -29.195  1.00  0.00     0.146 A 
HETATM   16  C   UNL     1      -0.285   7.206 -29.256  1.00  0.00     0.096 A 
HETATM   17  F   UNL     1      -2.354   7.447 -28.073  1.00  0.00    -0.204 F 
HETATM   18  C   UNL     1       0.350   6.886 -30.469  1.00  0.00     0.036 A 
HETATM   19  C   UNL     1      -0.402   6.517 -31.589  1.00  0.00     0.019 A 
BRANCH  16  20
HETATM   20  N   UNL     1       0.512   7.548 -28.130  1.00  0.00    -0.242 N 
HETATM   21  C   UNL     1       0.611   6.922 -26.905  1.00  0.00     0.120 A 
HETATM   22  C   UNL     1       1.525   7.624 -26.156  1.00  0.00     0.040 A 
HETATM   23  C   UNL     1       1.936   8.667 -26.992  1.00  0.00     0.140 A 
HETATM   24  N   UNL     1       1.336   8.634 -28.182  1.00  0.00    -0.180 NA
ENDBRANCH  16  20
ENDBRANCH   1  13
BRANCH   9  25
HETATM   25  O   UNL     1      -8.440   2.041 -34.345  1.00  0.00    -0.361 OA
HETATM   26  H   UNL     1      -8.932   2.876 -34.395  1.00  0.00     0.217 HD
ENDBRANCH   9  25
TORSDOF 3
ENDMDL
MODEL 10
REMARK VINA RESULT:      -7.4     17.636     18.875
REMARK  3 active torsions:
REMARK  status: ('A' for Active; 'I' for Inactive)
REMARK    1  A    between atoms: N_3  and  C_4 
REMARK    2  A    between atoms: C_8  and  C_9 
REMARK       I    between atoms: C_9  and  N_10 
REMARK    3  A    between atoms: C_17  and  O_18 
ROOT
HETATM    1  C   UNL     1      -2.910 -13.993 -40.019  1.00  0.00     0.254 C 
HETATM    2  N   UNL     1      -2.230 -14.090 -38.809  1.00  0.00    -0.343 N 
HETATM    3  C   UNL     1      -0.831 -14.491 -38.868  1.00  0.00     0.165 C 
HETATM    4  C   UNL     1      -0.319 -15.040 -37.553  1.00  0.00    -0.031 A 
HETATM    5  C   UNL     1      -1.035 -14.862 -36.353  1.00  0.00    -0.049 A 
HETATM    6  C   UNL     1      -2.382 -14.179 -36.355  1.00  0.00     0.059 C 
HETATM    7  C   UNL     1      -2.600 -13.337 -37.611  1.00  0.00     0.131 C 
HETATM    8  C   UNL     1       0.911 -15.716 -37.528  1.00  0.00     0.046 A 
HETATM    9  C   UNL     1       1.399 -16.226 -36.329  1.00  0.00     0.066 A 
HETATM   10  C   UNL     1       0.690 -16.068 -35.145  1.00  0.00     0.037 A 
HETATM   11  C   UNL     1      -0.528 -15.388 -35.156  1.00  0.00     0.010 A 
HETATM   12  O   UNL     1      -2.355 -14.096 -41.111  1.00  0.00    -0.267 OA
ENDROOT
BRANCH   1  13
HETATM   13  C   UNL     1      -4.384 -13.827 -40.008  1.00  0.00     0.035 A 
HETATM   14  C   UNL     1      -4.933 -12.644 -40.504  1.00  0.00     0.061 A 
HETATM   15  C   UNL     1      -6.318 -12.496 -40.578  1.00  0.00     0.146 A 
HETATM   16  C   UNL     1      -7.174 -13.525 -40.171  1.00  0.00     0.096 A 
HETATM   17  F   UNL     1      -6.782 -11.333 -41.054  1.00  0.00    -0.204 F 
HETATM   18  C   UNL     1      -6.612 -14.718 -39.683  1.00  0.00     0.036 A 
HETATM   19  C   UNL     1      -5.224 -14.874 -39.615  1.00  0.00     0.019 A 
BRANCH  16  20
HETATM   20  N   UNL     1      -8.588 -13.412 -40.253  1.00  0.00    -0.242 N 
HETATM   21  C   UNL     1      -9.396 -12.323 -39.996  1.00  0.00     0.120 A 
HETATM   22  C   UNL     1     -10.694 -12.708 -40.231  1.00  0.00     0.040 A 
HETATM   23  C   UNL     1     -10.597 -14.047 -40.624  1.00  0.00     0.140 A 
HETATM   24  N   UNL     1      -9.338 -14.483 -40.642  1.00  0.00    -0.180 NA
ENDBRANCH  16  20
ENDBRANCH   1  13
BRANCH   9  25
HETATM   25  O   UNL     1       2.582 -16.902 -36.273  1.00  0.00    -0.361 OA
HETATM   26  H   UNL     1       3.309 -16.258 -36.299  1.00  0.00     0.217 HD
ENDBRANCH   9  25
TORSDOF 3
ENDMDL
