MODEL 1
REMARK VINA RESULT:      -8.3      0.000      0.000
REMARK  6 active torsions:
REMARK  status: ('A' for Active; 'I' for Inactive)
REMARK    1  A    between atoms: C_4  and  C_5 
REMARK    2  A    between atoms: C_10  and  C_11 
REMARK    3  A    between atoms: C_11  and  N_12 
REMARK    4  A    between atoms: N_12  and  C_14 
REMARK    5  A    between atoms: C_14  and  C_15 
REMARK       I    between atoms: C_15  and  N_16 
REMARK    6  A    between atoms: N_16  and  C_17 
ROOT
HETATM    1  N   UNL     1      -4.514   3.421 -31.470  1.00  0.00    -0.063 N 
HETATM    2  H   UNL     1      -4.753   3.341 -30.470  1.00  0.00     0.280 HD
HETATM    3  C   UNL     1      -3.273   2.599 -31.677  1.00  0.00     0.270 C 
ENDROOT
BRANCH   1   4
HETATM    4  C   UNL     1      -4.262   4.874 -31.772  1.00  0.00     0.277 C 
BRANCH   4   5
HETATM    5  C   UNL     1      -3.669   5.122 -33.107  1.00  0.00     0.018 A 
HETATM    6  C   UNL     1      -2.344   5.541 -33.414  1.00  0.00     0.120 A 
HETATM    7  N   UNL     1      -2.161   5.670 -34.732  1.00  0.00    -0.172 NA
HETATM    8  N   UNL     1      -3.350   5.372 -35.272  1.00  0.00    -0.288 N 
HETATM    9  H   UNL     1      -3.451   5.432 -36.282  1.00  0.00     0.188 HD
HETATM   10  C   UNL     1      -4.283   5.010 -34.341  1.00  0.00     0.120 A 
BRANCH   6  11
HETATM   11  C   UNL     1      -1.240   5.787 -32.436  1.00  0.00     0.106 A 
HETATM   12  O   UNL     1      -0.708   4.835 -31.607  1.00  0.00    -0.313 OA
HETATM   13  C   UNL     1       0.254   5.442 -30.855  1.00  0.00     0.050 A 
HETATM   14  C   UNL     1       0.943   4.610 -29.847  1.00  0.00     0.076 C 
HETATM   15  C   UNL     1       0.365   6.767 -31.208  1.00  0.00     0.035 A 
HETATM   16  C   UNL     1      -0.589   6.987 -32.230  1.00  0.00     0.042 A 
ENDBRANCH   6  11
ENDBRANCH   4   5
ENDBRANCH   1   4
BRANCH   1  17
HETATM   17  C   UNL     1      -5.731   2.831 -32.204  1.00  0.00     0.337 C 
BRANCH  17  18
HETATM   18  C   UNL     1      -6.559   1.954 -31.264  1.00  0.00     0.248 C 
HETATM   19  N   UNL     1      -6.407   0.602 -31.219  1.00  0.00    -0.326 N 
HETATM   20  H   UNL     1      -6.881   0.193 -30.415  1.00  0.00     0.169 HD
HETATM   21  O   UNL     1      -7.334   2.503 -30.471  1.00  0.00    -0.271 OA
BRANCH  19  22
HETATM   22  C   UNL     1      -5.758  -0.308 -32.073  1.00  0.00     0.040 A 
HETATM   23  C   UNL     1      -4.543  -0.839 -31.619  1.00  0.00     0.072 A 
HETATM   24  C   UNL     1      -3.842  -1.762 -32.395  1.00  0.00     0.121 A 
HETATM   25  F   UNL     1      -2.672  -2.235 -31.948  1.00  0.00    -0.206 F 
HETATM   26  C   UNL     1      -4.333  -2.193 -33.614  1.00  0.00     0.084 A 
HETATM   27  C   UNL     1      -5.546  -1.686 -34.048  1.00  0.00     0.121 A 
HETATM   28  F   UNL     1      -6.059  -2.109 -35.211  1.00  0.00    -0.206 F 
HETATM   29  C   UNL     1      -6.262  -0.753 -33.295  1.00  0.00     0.072 A 
ENDBRANCH  19  22
ENDBRANCH  17  18
ENDBRANCH   1  17
TORSDOF 6
ENDMDL
MODEL 2
REMARK VINA RESULT:      -8.0      1.642      2.117
REMARK  6 active torsions:
REMARK  status: ('A' for Active; 'I' for Inactive)
REMARK    1  A    between atoms: C_4  and  C_5 
REMARK    2  A    between atoms: C_10  and  C_11 
REMARK    3  A    between atoms: C_11  and  N_12 
REMARK    4  A    between atoms: N_12  and  C_14 
REMARK    5  A    between atoms: C_14  and  C_15 
REMARK       I    between atoms: C_15  and  N_16 
REMARK    6  A    between atoms: N_16  and  C_17 
ROOT
HETATM    1  N   UNL     1      -5.288   3.507 -31.931  1.00  0.00    -0.063 N 
HETATM    2  H   UNL     1      -5.378   3.223 -32.919  1.00  0.00     0.280 HD
HETATM    3  C   UNL     1      -6.567   4.210 -31.574  1.00  0.00     0.270 C 
ENDROOT
BRANCH   1   4
HETATM    4  C   UNL     1      -4.107   4.433 -31.821  1.00  0.00     0.277 C 
BRANCH   4   5
HETATM    5  C   UNL     1      -3.576   4.896 -33.124  1.00  0.00     0.018 A 
HETATM    6  C   UNL     1      -2.312   5.492 -33.395  1.00  0.00     0.120 A 
HETATM    7  N   UNL     1      -2.175   5.789 -34.691  1.00  0.00    -0.172 NA
HETATM    8  N   UNL     1      -3.336   5.425 -35.249  1.00  0.00    -0.288 N 
HETATM    9  H   UNL     1      -3.467   5.588 -36.245  1.00  0.00     0.188 HD
HETATM   10  C   UNL     1      -4.202   4.858 -34.356  1.00  0.00     0.120 A 
BRANCH   6  11
HETATM   11  C   UNL     1      -1.219   5.746 -32.407  1.00  0.00     0.106 A 
HETATM   12  O   UNL     1      -0.709   4.805 -31.551  1.00  0.00    -0.313 OA
HETATM   13  C   UNL     1       0.250   5.418 -30.799  1.00  0.00     0.050 A 
HETATM   14  C   UNL     1       0.916   4.599 -29.764  1.00  0.00     0.076 C 
HETATM   15  C   UNL     1       0.380   6.734 -31.177  1.00  0.00     0.035 A 
HETATM   16  C   UNL     1      -0.558   6.943 -32.217  1.00  0.00     0.042 A 
ENDBRANCH   6  11
ENDBRANCH   4   5
ENDBRANCH   1   4
BRANCH   1  17
HETATM   17  C   UNL     1      -5.119   2.183 -31.165  1.00  0.00     0.337 C 
BRANCH  17  18
HETATM   18  C   UNL     1      -3.873   1.435 -31.642  1.00  0.00     0.248 C 
HETATM   19  N   UNL     1      -3.902   0.597 -32.714  1.00  0.00    -0.326 N 
HETATM   20  H   UNL     1      -2.965   0.337 -33.018  1.00  0.00     0.169 HD
HETATM   21  O   UNL     1      -2.795   1.662 -31.079  1.00  0.00    -0.271 OA
BRANCH  19  22
HETATM   22  C   UNL     1      -4.961   0.019 -33.437  1.00  0.00     0.040 A 
HETATM   23  C   UNL     1      -4.986  -1.380 -33.504  1.00  0.00     0.072 A 
HETATM   24  C   UNL     1      -6.010  -2.037 -34.186  1.00  0.00     0.121 A 
HETATM   25  F   UNL     1      -5.997  -3.374 -34.256  1.00  0.00    -0.206 F 
HETATM   26  C   UNL     1      -7.036  -1.331 -34.791  1.00  0.00     0.084 A 
HETATM   27  C   UNL     1      -7.023   0.051 -34.700  1.00  0.00     0.121 A 
HETATM   28  F   UNL     1      -8.018   0.757 -35.251  1.00  0.00    -0.206 F 
HETATM   29  C   UNL     1      -6.002   0.731 -34.032  1.00  0.00     0.072 A 
ENDBRANCH  19  22
ENDBRANCH  17  18
ENDBRANCH   1  17
TORSDOF 6
ENDMDL
MODEL 3
REMARK VINA RESULT:      -8.0      3.423      7.583
REMARK  6 active torsions:
REMARK  status: ('A' for Active; 'I' for Inactive)
REMARK    1  A    between atoms: C_4  and  C_5 
REMARK    2  A    between atoms: C_10  and  C_11 
REMARK    3  A    between atoms: C_11  and  N_12 
REMARK    4  A    between atoms: N_12  and  C_14 
REMARK    5  A    between atoms: C_14  and  C_15 
REMARK       I    between atoms: C_15  and  N_16 
REMARK    6  A    between atoms: N_16  and  C_17 
ROOT
HETATM    1  N   UNL     1      -6.463   3.018 -32.278  1.00  0.00    -0.063 N 
HETATM    2  H   UNL     1      -6.479   2.159 -31.707  1.00  0.00     0.280 HD
HETATM    3  C   UNL     1      -6.813   4.148 -31.352  1.00  0.00     0.270 C 
ENDROOT
BRANCH   1   4
HETATM    4  C   UNL     1      -7.488   2.869 -33.370  1.00  0.00     0.277 C 
BRANCH   4   5
HETATM    5  C   UNL     1      -8.542   1.869 -33.079  1.00  0.00     0.018 A 
HETATM    6  C   UNL     1      -8.439   0.450 -33.117  1.00  0.00     0.120 A 
HETATM    7  N   UNL     1      -9.598  -0.136 -32.800  1.00  0.00    -0.172 NA
HETATM    8  N   UNL     1     -10.447   0.878 -32.591  1.00  0.00    -0.288 N 
HETATM    9  H   UNL     1     -11.413   0.660 -32.359  1.00  0.00     0.188 HD
HETATM   10  C   UNL     1      -9.856   2.103 -32.719  1.00  0.00     0.120 A 
BRANCH   6  11
HETATM   11  C   UNL     1      -7.212  -0.345 -33.428  1.00  0.00     0.106 A 
HETATM   12  O   UNL     1      -6.019  -0.227 -32.764  1.00  0.00    -0.313 OA
HETATM   13  C   UNL     1      -5.142  -1.096 -33.345  1.00  0.00     0.050 A 
HETATM   14  C   UNL     1      -3.763  -1.112 -32.816  1.00  0.00     0.076 C 
HETATM   15  C   UNL     1      -5.764  -1.789 -34.359  1.00  0.00     0.035 A 
HETATM   16  C   UNL     1      -7.096  -1.313 -34.406  1.00  0.00     0.042 A 
ENDBRANCH   6  11
ENDBRANCH   4   5
ENDBRANCH   1   4
BRANCH   1  17
HETATM   17  C   UNL     1      -5.013   3.112 -32.788  1.00  0.00     0.337 C 
BRANCH  17  18
HETATM   18  C   UNL     1      -4.020   2.914 -31.642  1.00  0.00     0.248 C 
HETATM   19  N   UNL     1      -3.041   3.821 -31.373  1.00  0.00    -0.326 N 
HETATM   20  H   UNL     1      -2.598   3.644 -30.472  1.00  0.00     0.169 HD
HETATM   21  O   UNL     1      -4.165   1.938 -30.896  1.00  0.00    -0.271 OA
BRANCH  19  22
HETATM   22  C   UNL     1      -2.526   4.906 -32.105  1.00  0.00     0.040 A 
HETATM   23  C   UNL     1      -1.938   4.608 -33.341  1.00  0.00     0.072 A 
HETATM   24  C   UNL     1      -1.418   5.627 -34.140  1.00  0.00     0.121 A 
HETATM   25  F   UNL     1      -0.839   5.312 -35.305  1.00  0.00    -0.206 F 
HETATM   26  C   UNL     1      -1.490   6.952 -33.748  1.00  0.00     0.084 A 
HETATM   27  C   UNL     1      -2.096   7.246 -32.538  1.00  0.00     0.121 A 
HETATM   28  F   UNL     1      -2.205   8.522 -32.148  1.00  0.00    -0.206 F 
HETATM   29  C   UNL     1      -2.614   6.242 -31.715  1.00  0.00     0.072 A 
ENDBRANCH  19  22
ENDBRANCH  17  18
ENDBRANCH   1  17
TORSDOF 6
ENDMDL
MODEL 4
REMARK VINA RESULT:      -8.0      3.349      7.480
REMARK  6 active torsions:
REMARK  status: ('A' for Active; 'I' for Inactive)
REMARK    1  A    between atoms: C_4  and  C_5 
REMARK    2  A    between atoms: C_10  and  C_11 
REMARK    3  A    between atoms: C_11  and  N_12 
REMARK    4  A    between atoms: N_12  and  C_14 
REMARK    5  A    between atoms: C_14  and  C_15 
REMARK       I    between atoms: C_15  and  N_16 
REMARK    6  A    between atoms: N_16  and  C_17 
ROOT
HETATM    1  N   UNL     1      -6.444   2.932 -32.261  1.00  0.00    -0.063 N 
HETATM    2  H   UNL     1      -6.525   2.097 -31.660  1.00  0.00     0.280 HD
HETATM    3  C   UNL     1      -6.740   4.116 -31.384  1.00  0.00     0.270 C 
ENDROOT
BRANCH   1   4
HETATM    4  C   UNL     1      -7.455   2.806 -33.369  1.00  0.00     0.277 C 
BRANCH   4   5
HETATM    5  C   UNL     1      -8.536   1.830 -33.094  1.00  0.00     0.018 A 
HETATM    6  C   UNL     1      -8.458   0.409 -33.105  1.00  0.00     0.120 A 
HETATM    7  N   UNL     1      -9.637  -0.151 -32.815  1.00  0.00    -0.172 NA
HETATM    8  N   UNL     1     -10.473   0.881 -32.650  1.00  0.00    -0.288 N 
HETATM    9  H   UNL     1     -11.450   0.685 -32.445  1.00  0.00     0.188 HD
HETATM   10  C   UNL     1      -9.856   2.094 -32.780  1.00  0.00     0.120 A 
BRANCH   6  11
HETATM   11  C   UNL     1      -7.237  -0.413 -33.364  1.00  0.00     0.106 A 
HETATM   12  O   UNL     1      -6.109  -0.397 -32.587  1.00  0.00    -0.313 OA
HETATM   13  C   UNL     1      -5.213  -1.256 -33.152  1.00  0.00     0.050 A 
HETATM   14  C   UNL     1      -3.891  -1.371 -32.502  1.00  0.00     0.076 C 
HETATM   15  C   UNL     1      -5.760  -1.844 -34.269  1.00  0.00     0.035 A 
HETATM   16  C   UNL     1      -7.064  -1.308 -34.401  1.00  0.00     0.042 A 
ENDBRANCH   6  11
ENDBRANCH   4   5
ENDBRANCH   1   4
BRANCH   1  17
HETATM   17  C   UNL     1      -4.982   2.916 -32.743  1.00  0.00     0.337 C 
BRANCH  17  18
HETATM   18  C   UNL     1      -4.025   2.711 -31.569  1.00  0.00     0.248 C 
HETATM   19  N   UNL     1      -2.986   3.557 -31.329  1.00  0.00    -0.326 N 
HETATM   20  H   UNL     1      -2.572   3.400 -30.411  1.00  0.00     0.169 HD
HETATM   21  O   UNL     1      -4.253   1.791 -30.773  1.00  0.00    -0.271 OA
BRANCH  19  22
HETATM   22  C   UNL     1      -2.381   4.560 -32.109  1.00  0.00     0.040 A 
HETATM   23  C   UNL     1      -2.106   5.774 -31.467  1.00  0.00     0.072 A 
HETATM   24  C   UNL     1      -1.491   6.817 -32.160  1.00  0.00     0.121 A 
HETATM   25  F   UNL     1      -1.262   7.975 -31.529  1.00  0.00    -0.206 F 
HETATM   26  C   UNL     1      -1.117   6.674 -33.485  1.00  0.00     0.084 A 
HETATM   27  C   UNL     1      -1.367   5.463 -34.109  1.00  0.00     0.121 A 
HETATM   28  F   UNL     1      -0.989   5.288 -35.382  1.00  0.00    -0.206 F 
HETATM   29  C   UNL     1      -1.991   4.408 -33.439  1.00  0.00     0.072 A 
ENDBRANCH  19  22
ENDBRANCH  17  18
ENDBRANCH   1  17
TORSDOF 6
ENDMDL
MODEL 5
REMARK VINA RESULT:      -7.9      3.180      7.618
REMARK  6 active torsions:
REMARK  status: ('A' for Active; 'I' for Inactive)
REMARK    1  A    between atoms: C_4  and  C_5 
REMARK    2  A    between atoms: C_10  and  C_11 
REMARK    3  A    between atoms: C_11  and  N_12 
REMARK    4  A    between atoms: N_12  and  C_14 
REMARK    5  A    between atoms: C_14  and  C_15 
REMARK       I    between atoms: C_15  and  N_16 
REMARK    6  A    between atoms: N_16  and  C_17 
ROOT
HETATM    1  N   UNL     1      -4.739   1.055 -32.118  1.00  0.00    -0.063 N 
HETATM    2  H   UNL     1      -4.872   1.702 -32.910  1.00  0.00     0.280 HD
HETATM    3  C   UNL     1      -3.333   0.538 -32.223  1.00  0.00     0.270 C 
ENDROOT
BRANCH   1   4
HETATM    4  C   UNL     1      -5.742  -0.059 -32.256  1.00  0.00     0.277 C 
BRANCH   4   5
HETATM    5  C   UNL     1      -6.586   0.033 -33.471  1.00  0.00     0.018 A 
HETATM    6  C   UNL     1      -6.792  -0.956 -34.472  1.00  0.00     0.120 A 
HETATM    7  N   UNL     1      -7.616  -0.522 -35.432  1.00  0.00    -0.172 NA
HETATM    8  N   UNL     1      -7.915   0.735 -35.081  1.00  0.00    -0.288 N 
HETATM    9  H   UNL     1      -8.519   1.278 -35.694  1.00  0.00     0.188 HD
HETATM   10  C   UNL     1      -7.344   1.108 -33.897  1.00  0.00     0.120 A 
BRANCH   6  11
HETATM   11  C   UNL     1      -6.221  -2.337 -34.490  1.00  0.00     0.106 A 
HETATM   12  O   UNL     1      -4.946  -2.657 -34.102  1.00  0.00    -0.313 OA
HETATM   13  C   UNL     1      -4.791  -4.001 -34.280  1.00  0.00     0.050 A 
HETATM   14  C   UNL     1      -3.465  -4.572 -33.964  1.00  0.00     0.076 C 
HETATM   15  C   UNL     1      -5.959  -4.553 -34.753  1.00  0.00     0.035 A 
HETATM   16  C   UNL     1      -6.880  -3.486 -34.881  1.00  0.00     0.042 A 
ENDBRANCH   6  11
ENDBRANCH   4   5
ENDBRANCH   1   4
BRANCH   1  17
HETATM   17  C   UNL     1      -4.945   1.931 -30.869  1.00  0.00     0.337 C 
BRANCH  17  18
HETATM   18  C   UNL     1      -5.706   3.210 -31.222  1.00  0.00     0.248 C 
HETATM   19  N   UNL     1      -5.123   4.227 -31.913  1.00  0.00    -0.326 N 
HETATM   20  H   UNL     1      -5.808   4.909 -32.236  1.00  0.00     0.169 HD
HETATM   21  O   UNL     1      -6.907   3.283 -30.935  1.00  0.00    -0.271 OA
BRANCH  19  22
HETATM   22  C   UNL     1      -3.782   4.513 -32.228  1.00  0.00     0.040 A 
HETATM   23  C   UNL     1      -3.440   4.508 -33.586  1.00  0.00     0.072 A 
HETATM   24  C   UNL     1      -2.136   4.799 -33.987  1.00  0.00     0.121 A 
HETATM   25  F   UNL     1      -1.831   4.764 -35.291  1.00  0.00    -0.206 F 
HETATM   26  C   UNL     1      -1.157   5.122 -33.064  1.00  0.00     0.084 A 
HETATM   27  C   UNL     1      -1.504   5.151 -31.724  1.00  0.00     0.121 A 
HETATM   28  F   UNL     1      -0.584   5.489 -30.812  1.00  0.00    -0.206 F 
HETATM   29  C   UNL     1      -2.801   4.853 -31.296  1.00  0.00     0.072 A 
ENDBRANCH  19  22
ENDBRANCH  17  18
ENDBRANCH   1  17
TORSDOF 6
ENDMDL
MODEL 6
REMARK VINA RESULT:      -7.8      3.240      7.674
REMARK  6 active torsions:
REMARK  status: ('A' for Active; 'I' for Inactive)
REMARK    1  A    between atoms: C_4  and  C_5 
REMARK    2  A    between atoms: C_10  and  C_11 
REMARK    3  A    between atoms: C_11  and  N_12 
REMARK    4  A    between atoms: N_12  and  C_14 
REMARK    5  A    between atoms: C_14  and  C_15 
REMARK       I    between atoms: C_15  and  N_16 
REMARK    6  A    between atoms: N_16  and  C_17 
ROOT
HETATM    1  N   UNL     1      -5.219   3.044 -32.154  1.00  0.00    -0.063 N 
HETATM    2  H   UNL     1      -5.772   2.704 -32.955  1.00  0.00     0.280 HD
HETATM    3  C   UNL     1      -3.862   2.409 -32.275  1.00  0.00     0.270 C 
ENDROOT
BRANCH   1   4
HETATM    4  C   UNL     1      -5.915   2.609 -30.892  1.00  0.00     0.277 C 
BRANCH   4   5
HETATM    5  C   UNL     1      -7.220   1.947 -31.118  1.00  0.00     0.018 A 
HETATM    6  C   UNL     1      -7.476   0.721 -31.794  1.00  0.00     0.120 A 
HETATM    7  N   UNL     1      -8.781   0.432 -31.813  1.00  0.00    -0.172 NA
HETATM    8  N   UNL     1      -9.367   1.462 -31.191  1.00  0.00    -0.288 N 
HETATM    9  H   UNL     1     -10.382   1.465 -31.112  1.00  0.00     0.188 HD
HETATM   10  C   UNL     1      -8.473   2.386 -30.730  1.00  0.00     0.120 A 
BRANCH   6  11
HETATM   11  C   UNL     1      -6.457  -0.192 -32.397  1.00  0.00     0.106 A 
HETATM   12  O   UNL     1      -5.383  -0.712 -31.723  1.00  0.00    -0.313 OA
HETATM   13  C   UNL     1      -4.678  -1.474 -32.608  1.00  0.00     0.050 A 
HETATM   14  C   UNL     1      -3.439  -2.108 -32.110  1.00  0.00     0.076 C 
HETATM   15  C   UNL     1      -5.300  -1.472 -33.836  1.00  0.00     0.035 A 
HETATM   16  C   UNL     1      -6.447  -0.655 -33.698  1.00  0.00     0.042 A 
ENDBRANCH   6  11
ENDBRANCH   4   5
ENDBRANCH   1   4
BRANCH   1  17
HETATM   17  C   UNL     1      -5.166   4.571 -32.346  1.00  0.00     0.337 C 
BRANCH  17  18
HETATM   18  C   UNL     1      -4.747   4.924 -33.773  1.00  0.00     0.248 C 
HETATM   19  N   UNL     1      -3.505   5.401 -34.062  1.00  0.00    -0.326 N 
HETATM   20  H   UNL     1      -3.321   5.398 -35.065  1.00  0.00     0.169 HD
HETATM   21  O   UNL     1      -5.539   4.696 -34.696  1.00  0.00    -0.271 OA
BRANCH  19  22
HETATM   22  C   UNL     1      -2.472   5.908 -33.253  1.00  0.00     0.040 A 
HETATM   23  C   UNL     1      -2.563   7.258 -32.890  1.00  0.00     0.072 A 
HETATM   24  C   UNL     1      -1.591   7.837 -32.076  1.00  0.00     0.121 A 
HETATM   25  F   UNL     1      -1.689   9.136 -31.764  1.00  0.00    -0.206 F 
HETATM   26  C   UNL     1      -0.530   7.096 -31.587  1.00  0.00     0.084 A 
HETATM   27  C   UNL     1      -0.457   5.755 -31.926  1.00  0.00     0.121 A 
HETATM   28  F   UNL     1       0.544   5.007 -31.444  1.00  0.00    -0.206 F 
HETATM   29  C   UNL     1      -1.412   5.154 -32.750  1.00  0.00     0.072 A 
ENDBRANCH  19  22
ENDBRANCH  17  18
ENDBRANCH   1  17
TORSDOF 6
ENDMDL
MODEL 7
REMARK VINA RESULT:      -7.7      3.507      7.608
REMARK  6 active torsions:
REMARK  status: ('A' for Active; 'I' for Inactive)
REMARK    1  A    between atoms: C_4  and  C_5 
REMARK    2  A    between atoms: C_10  and  C_11 
REMARK    3  A    between atoms: C_11  and  N_12 
REMARK    4  A    between atoms: N_12  and  C_14 
REMARK    5  A    between atoms: C_14  and  C_15 
REMARK       I    between atoms: C_15  and  N_16 
REMARK    6  A    between atoms: N_16  and  C_17 
ROOT
HETATM    1  N   UNL     1      -6.331   1.264 -31.000  1.00  0.00    -0.063 N 
HETATM    2  H   UNL     1      -5.806   0.837 -30.221  1.00  0.00     0.280 HD
HETATM    3  C   UNL     1      -7.086   2.424 -30.416  1.00  0.00     0.270 C 
ENDROOT
BRANCH   1   4
HETATM    4  C   UNL     1      -7.269   0.225 -31.554  1.00  0.00     0.277 C 
BRANCH   4   5
HETATM    5  C   UNL     1      -7.756   0.516 -32.922  1.00  0.00     0.018 A 
HETATM    6  C   UNL     1      -7.422  -0.153 -34.133  1.00  0.00     0.120 A 
HETATM    7  N   UNL     1      -8.049   0.387 -35.183  1.00  0.00    -0.172 NA
HETATM    8  N   UNL     1      -8.750   1.407 -34.674  1.00  0.00    -0.288 N 
HETATM    9  H   UNL     1      -9.293   1.986 -35.310  1.00  0.00     0.188 HD
HETATM   10  C   UNL     1      -8.631   1.511 -33.316  1.00  0.00     0.120 A 
BRANCH   6  11
HETATM   11  C   UNL     1      -6.522  -1.338 -34.275  1.00  0.00     0.106 A 
HETATM   12  O   UNL     1      -6.917  -2.564 -34.742  1.00  0.00    -0.313 OA
HETATM   13  C   UNL     1      -5.828  -3.384 -34.705  1.00  0.00     0.050 A 
HETATM   14  C   UNL     1      -6.028  -4.787 -35.126  1.00  0.00     0.076 C 
HETATM   15  C   UNL     1      -4.731  -2.693 -34.244  1.00  0.00     0.035 A 
HETATM   16  C   UNL     1      -5.174  -1.376 -33.976  1.00  0.00     0.042 A 
ENDBRANCH   6  11
ENDBRANCH   4   5
ENDBRANCH   1   4
BRANCH   1  17
HETATM   17  C   UNL     1      -5.244   1.718 -31.991  1.00  0.00     0.337 C 
BRANCH  17  18
HETATM   18  C   UNL     1      -3.857   1.638 -31.351  1.00  0.00     0.248 C 
HETATM   19  N   UNL     1      -3.024   2.712 -31.301  1.00  0.00    -0.326 N 
HETATM   20  H   UNL     1      -2.234   2.552 -30.677  1.00  0.00     0.169 HD
HETATM   21  O   UNL     1      -3.522   0.584 -30.796  1.00  0.00    -0.271 OA
BRANCH  19  22
HETATM   22  C   UNL     1      -3.039   3.956 -31.959  1.00  0.00     0.040 A 
HETATM   23  C   UNL     1      -2.484   3.993 -33.245  1.00  0.00     0.072 A 
HETATM   24  C   UNL     1      -2.474   5.181 -33.976  1.00  0.00     0.121 A 
HETATM   25  F   UNL     1      -1.916   5.194 -35.193  1.00  0.00    -0.206 F 
HETATM   26  C   UNL     1      -3.029   6.341 -33.465  1.00  0.00     0.084 A 
HETATM   27  C   UNL     1      -3.600   6.295 -32.205  1.00  0.00     0.121 A 
HETATM   28  F   UNL     1      -4.169   7.395 -31.698  1.00  0.00    -0.206 F 
HETATM   29  C   UNL     1      -3.612   5.120 -31.449  1.00  0.00     0.072 A 
ENDBRANCH  19  22
ENDBRANCH  17  18
ENDBRANCH   1  17
TORSDOF 6
ENDMDL
MODEL 8
REMARK VINA RESULT:      -7.6      3.373      7.576
REMARK  6 active torsions:
REMARK  status: ('A' for Active; 'I' for Inactive)
REMARK    1  A    between atoms: C_4  and  C_5 
REMARK    2  A    between atoms: C_10  and  C_11 
REMARK    3  A    between atoms: C_11  and  N_12 
REMARK    4  A    between atoms: N_12  and  C_14 
REMARK    5  A    between atoms: C_14  and  C_15 
REMARK       I    between atoms: C_15  and  N_16 
REMARK    6  A    between atoms: N_16  and  C_17 
ROOT
HETATM    1  N   UNL     1      -4.426   2.654 -30.652  1.00  0.00    -0.063 N 
HETATM    2  H   UNL     1      -3.611   2.453 -30.052  1.00  0.00     0.280 HD
HETATM    3  C   UNL     1      -5.618   2.051 -29.962  1.00  0.00     0.270 C 
ENDROOT
BRANCH   1   4
HETATM    4  C   UNL     1      -4.187   2.009 -31.991  1.00  0.00     0.277 C 
BRANCH   4   5
HETATM    5  C   UNL     1      -3.887   0.560 -31.921  1.00  0.00     0.018 A 
HETATM    6  C   UNL     1      -4.682  -0.524 -32.388  1.00  0.00     0.120 A 
HETATM    7  N   UNL     1      -4.097  -1.702 -32.149  1.00  0.00    -0.172 NA
HETATM    8  N   UNL     1      -2.960  -1.396 -31.512  1.00  0.00    -0.288 N 
HETATM    9  H   UNL     1      -2.357  -2.156 -31.205  1.00  0.00     0.188 HD
HETATM   10  C   UNL     1      -2.773  -0.049 -31.373  1.00  0.00     0.120 A 
BRANCH   6  11
HETATM   11  C   UNL     1      -5.994  -0.424 -33.096  1.00  0.00     0.106 A 
HETATM   12  O   UNL     1      -7.186  -0.124 -32.489  1.00  0.00    -0.313 OA
HETATM   13  C   UNL     1      -8.151  -0.148 -33.452  1.00  0.00     0.050 A 
HETATM   14  C   UNL     1      -9.540   0.107 -33.017  1.00  0.00     0.076 C 
HETATM   15  C   UNL     1      -7.591  -0.434 -34.676  1.00  0.00     0.035 A 
HETATM   16  C   UNL     1      -6.205  -0.604 -34.449  1.00  0.00     0.042 A 
ENDBRANCH   6  11
ENDBRANCH   4   5
ENDBRANCH   1   4
BRANCH   1  17
HETATM   17  C   UNL     1      -4.498   4.190 -30.700  1.00  0.00     0.337 C 
BRANCH  17  18
HETATM   18  C   UNL     1      -5.427   4.656 -31.822  1.00  0.00     0.248 C 
HETATM   19  N   UNL     1      -4.949   5.217 -32.966  1.00  0.00    -0.326 N 
HETATM   20  H   UNL     1      -5.669   5.288 -33.684  1.00  0.00     0.169 HD
HETATM   21  O   UNL     1      -6.640   4.444 -31.712  1.00  0.00    -0.271 OA
BRANCH  19  22
HETATM   22  C   UNL     1      -3.686   5.728 -33.316  1.00  0.00     0.040 A 
HETATM   23  C   UNL     1      -3.256   6.868 -32.624  1.00  0.00     0.072 A 
HETATM   24  C   UNL     1      -2.009   7.431 -32.896  1.00  0.00     0.121 A 
HETATM   25  F   UNL     1      -1.632   8.534 -32.238  1.00  0.00    -0.206 F 
HETATM   26  C   UNL     1      -1.158   6.870 -33.832  1.00  0.00     0.084 A 
HETATM   27  C   UNL     1      -1.575   5.728 -34.495  1.00  0.00     0.121 A 
HETATM   28  F   UNL     1      -0.760   5.147 -35.385  1.00  0.00    -0.206 F 
HETATM   29  C   UNL     1      -2.824   5.152 -34.249  1.00  0.00     0.072 A 
ENDBRANCH  19  22
ENDBRANCH  17  18
ENDBRANCH   1  17
TORSDOF 6
ENDMDL
MODEL 9
REMARK VINA RESULT:      -7.6      3.235      7.991
REMARK  6 active torsions:
REMARK  status: ('A' for Active; 'I' for Inactive)
REMARK    1  A    between atoms: C_4  and  C_5 
REMARK    2  A    between atoms: C_10  and  C_11 
REMARK    3  A    between atoms: C_11  and  N_12 
REMARK    4  A    between atoms: N_12  and  C_14 
REMARK    5  A    between atoms: C_14  and  C_15 
REMARK       I    between atoms: C_15  and  N_16 
REMARK    6  A    between atoms: N_16  and  C_17 
ROOT
HETATM    1  N   UNL     1      -3.996   4.148 -32.261  1.00  0.00    -0.063 N 
HETATM    2  H   UNL     1      -3.878   4.215 -31.239  1.00  0.00     0.280 HD
HETATM    3  C   UNL     1      -4.400   5.516 -32.733  1.00  0.00     0.270 C 
ENDROOT
BRANCH   1   4
HETATM    4  C   UNL     1      -5.074   3.135 -32.538  1.00  0.00     0.277 C 
BRANCH   4   5
HETATM    5  C   UNL     1      -5.515   2.379 -31.343  1.00  0.00     0.018 A 
HETATM    6  C   UNL     1      -5.703   0.974 -31.213  1.00  0.00     0.120 A 
HETATM    7  N   UNL     1      -6.116   0.643 -29.985  1.00  0.00    -0.172 NA
HETATM    8  N   UNL     1      -6.228   1.809 -29.338  1.00  0.00    -0.288 N 
HETATM    9  H   UNL     1      -6.560   1.799 -28.376  1.00  0.00     0.188 HD
HETATM   10  C   UNL     1      -5.853   2.880 -30.099  1.00  0.00     0.120 A 
BRANCH   6  11
HETATM   11  C   UNL     1      -5.451  -0.058 -32.265  1.00  0.00     0.106 A 
HETATM   12  O   UNL     1      -6.432  -0.735 -32.941  1.00  0.00    -0.313 OA
HETATM   13  C   UNL     1      -5.814  -1.600 -33.797  1.00  0.00     0.050 A 
HETATM   14  C   UNL     1      -6.683  -2.477 -34.609  1.00  0.00     0.076 C 
HETATM   15  C   UNL     1      -4.448  -1.469 -33.697  1.00  0.00     0.035 A 
HETATM   16  C   UNL     1      -4.215  -0.472 -32.719  1.00  0.00     0.042 A 
ENDBRANCH   6  11
ENDBRANCH   4   5
ENDBRANCH   1   4
BRANCH   1  17
HETATM   17  C   UNL     1      -2.605   3.740 -32.781  1.00  0.00     0.337 C 
BRANCH  17  18
HETATM   18  C   UNL     1      -1.996   4.854 -33.633  1.00  0.00     0.248 C 
HETATM   19  N   UNL     1      -1.111   5.751 -33.119  1.00  0.00    -0.326 N 
HETATM   20  H   UNL     1      -0.654   6.296 -33.850  1.00  0.00     0.169 HD
HETATM   21  O   UNL     1      -2.261   4.888 -34.841  1.00  0.00    -0.271 OA
BRANCH  19  22
HETATM   22  C   UNL     1      -0.745   6.073 -31.800  1.00  0.00     0.040 A 
HETATM   23  C   UNL     1       0.119   5.180 -31.152  1.00  0.00     0.072 A 
HETATM   24  C   UNL     1       0.546   5.431 -29.848  1.00  0.00     0.121 A 
HETATM   25  F   UNL     1       1.352   4.549 -29.243  1.00  0.00    -0.206 F 
HETATM   26  C   UNL     1       0.152   6.572 -29.171  1.00  0.00     0.084 A 
HETATM   27  C   UNL     1      -0.680   7.466 -29.824  1.00  0.00     0.121 A 
HETATM   28  F   UNL     1      -1.054   8.592 -29.204  1.00  0.00    -0.206 F 
HETATM   29  C   UNL     1      -1.131   7.231 -31.126  1.00  0.00     0.072 A 
ENDBRANCH  19  22
ENDBRANCH  17  18
ENDBRANCH   1  17
TORSDOF 6
ENDMDL
MODEL 10
REMARK VINA RESULT:      -7.5      2.590      4.816
REMARK  6 active torsions:
REMARK  status: ('A' for Active; 'I' for Inactive)
REMARK    1  A    between atoms: C_4  and  C_5 
REMARK    2  A    between atoms: C_10  and  C_11 
REMARK    3  A    between atoms: C_11  and  N_12 
REMARK    4  A    between atoms: N_12  and  C_14 
REMARK    5  A    between atoms: C_14  and  C_15 
REMARK       I    between atoms: C_15  and  N_16 
REMARK    6  A    between atoms: N_16  and  C_17 
ROOT
HETATM    1  N   UNL     1      -5.412   1.523 -31.018  1.00  0.00    -0.063 N 
HETATM    2  H   UNL     1      -5.533   1.484 -32.042  1.00  0.00     0.280 HD
HETATM    3  C   UNL     1      -6.791   1.633 -30.432  1.00  0.00     0.270 C 
ENDROOT
BRANCH   1   4
HETATM    4  C   UNL     1      -4.582   2.736 -30.694  1.00  0.00     0.277 C 
BRANCH   4   5
HETATM    5  C   UNL     1      -4.070   3.455 -31.885  1.00  0.00     0.018 A 
HETATM    6  C   UNL     1      -4.814   3.989 -32.974  1.00  0.00     0.120 A 
HETATM    7  N   UNL     1      -4.017   4.568 -33.878  1.00  0.00    -0.172 NA
HETATM    8  N   UNL     1      -2.778   4.388 -33.405  1.00  0.00    -0.288 N 
HETATM    9  H   UNL     1      -1.995   4.732 -33.956  1.00  0.00     0.188 HD
HETATM   10  C   UNL     1      -2.756   3.748 -32.197  1.00  0.00     0.120 A 
BRANCH   6  11
HETATM   11  C   UNL     1      -6.301   3.971 -33.130  1.00  0.00     0.106 A 
HETATM   12  O   UNL     1      -7.014   2.932 -33.669  1.00  0.00    -0.313 OA
HETATM   13  C   UNL     1      -8.329   3.295 -33.660  1.00  0.00     0.050 A 
HETATM   14  C   UNL     1      -9.294   2.336 -34.240  1.00  0.00     0.076 C 
HETATM   15  C   UNL     1      -8.473   4.543 -33.099  1.00  0.00     0.035 A 
HETATM   16  C   UNL     1      -7.171   4.974 -32.751  1.00  0.00     0.042 A 
ENDBRANCH   6  11
ENDBRANCH   4   5
ENDBRANCH   1   4
BRANCH   1  17
HETATM   17  C   UNL     1      -4.734   0.187 -30.662  1.00  0.00     0.337 C 
BRANCH  17  18
HETATM   18  C   UNL     1      -3.462  -0.013 -31.487  1.00  0.00     0.248 C 
HETATM   19  N   UNL     1      -3.499  -0.470 -32.769  1.00  0.00    -0.326 N 
HETATM   20  H   UNL     1      -2.601  -0.360 -33.238  1.00  0.00     0.169 HD
HETATM   21  O   UNL     1      -2.378   0.325 -30.996  1.00  0.00    -0.271 OA
BRANCH  19  22
HETATM   22  C   UNL     1      -4.515  -1.076 -33.530  1.00  0.00     0.040 A 
HETATM   23  C   UNL     1      -4.393  -2.454 -33.757  1.00  0.00     0.072 A 
HETATM   24  C   UNL     1      -5.365  -3.138 -34.486  1.00  0.00     0.121 A 
HETATM   25  F   UNL     1      -5.212  -4.449 -34.709  1.00  0.00    -0.206 F 
HETATM   26  C   UNL     1      -6.480  -2.486 -34.983  1.00  0.00     0.084 A 
HETATM   27  C   UNL     1      -6.611  -1.130 -34.734  1.00  0.00     0.121 A 
HETATM   28  F   UNL     1      -7.694  -0.480 -35.178  1.00  0.00    -0.206 F 
HETATM   29  C   UNL     1      -5.645  -0.420 -34.016  1.00  0.00     0.072 A 
ENDBRANCH  19  22
ENDBRANCH  17  18
ENDBRANCH   1  17
TORSDOF 6
ENDMDL
