MODEL 1
REMARK VINA RESULT:      -8.6      0.000      0.000
REMARK  2 active torsions:
REMARK  status: ('A' for Active; 'I' for Inactive)
REMARK    1  A    between atoms: C_5  and  O_6 
REMARK    2  A    between atoms: C_5  and  C_7 
ROOT
HETATM    1  C   UNL     1      -5.853   4.630 -31.855  1.00  0.00     0.050 C 
HETATM    2  C   UNL     1      -6.105   3.190 -31.528  1.00  0.00    -0.035 A 
HETATM    3  C   UNL     1      -6.332   2.213 -32.484  1.00  0.00     0.051 A 
HETATM    4  C   UNL     1      -6.553   0.868 -32.151  1.00  0.00     0.018 A 
HETATM    5  C   UNL     1      -6.798   0.068 -33.405  1.00  0.00     0.199 A 
HETATM    6  C   UNL     1      -6.699   1.179 -34.503  1.00  0.00     0.266 A 
HETATM    7  O   UNL     1      -6.924   1.056 -35.699  1.00  0.00    -0.269 OA
HETATM    8  N   UNL     1      -6.398   2.376 -33.864  1.00  0.00    -0.323 N 
HETATM    9  C   UNL     1      -6.570   0.465 -30.823  1.00  0.00     0.013 A 
HETATM   10  C   UNL     1      -6.328   1.427 -29.840  1.00  0.00     0.001 A 
HETATM   11  C   UNL     1      -6.094   2.770 -30.188  1.00  0.00     0.009 A 
HETATM   12  H   UNL     1      -6.313   3.247 -34.363  1.00  0.00     0.169 HD
ENDROOT
BRANCH   5  13
HETATM   13  O   UNL     1      -8.118  -0.463 -33.323  1.00  0.00    -0.371 OA
HETATM   14  H   UNL     1      -8.128  -0.971 -32.495  1.00  0.00     0.212 HD
ENDBRANCH   5  13
BRANCH   5  15
HETATM   15  C   UNL     1      -5.731  -0.996 -33.596  1.00  0.00     0.025 A 
HETATM   16  C   UNL     1      -5.864  -2.365 -34.069  1.00  0.00     0.003 A 
HETATM   17  C   UNL     1      -4.593  -2.944 -34.056  1.00  0.00     0.043 A 
HETATM   18  C   UNL     1      -6.933  -3.182 -34.510  1.00  0.00     0.014 A 
HETATM   19  C   UNL     1      -4.337  -4.258 -34.468  1.00  0.00     0.030 A 
HETATM   20  N   UNL     1      -3.724  -2.005 -33.571  1.00  0.00    -0.359 N 
HETATM   21  C   UNL     1      -5.413  -5.026 -34.914  1.00  0.00     0.002 A 
HETATM   22  C   UNL     1      -6.696  -4.496 -34.934  1.00  0.00     0.001 A 
HETATM   23  H   UNL     1      -2.735  -2.166 -33.436  1.00  0.00     0.166 HD
HETATM   24  C   UNL     1      -4.381  -0.846 -33.258  1.00  0.00     0.016 A 
HETATM   25  C   UNL     1      -3.636   0.288 -32.646  1.00  0.00     0.069 C 
ENDBRANCH   5  15
TORSDOF 2
ENDMDL
MODEL 2
REMARK VINA RESULT:      -8.5      3.430      5.904
REMARK  2 active torsions:
REMARK  status: ('A' for Active; 'I' for Inactive)
REMARK    1  A    between atoms: C_5  and  O_6 
REMARK    2  A    between atoms: C_5  and  C_7 
ROOT
HETATM    1  C   UNL     1      -3.739   0.268 -32.458  1.00  0.00     0.050 C 
HETATM    2  C   UNL     1      -5.134  -0.099 -32.858  1.00  0.00    -0.035 A 
HETATM    3  C   UNL     1      -6.265   0.556 -32.397  1.00  0.00     0.051 A 
HETATM    4  C   UNL     1      -7.561   0.199 -32.799  1.00  0.00     0.018 A 
HETATM    5  C   UNL     1      -8.568   1.077 -32.100  1.00  0.00     0.199 A 
HETATM    6  C   UNL     1      -7.636   1.978 -31.224  1.00  0.00     0.266 A 
HETATM    7  O   UNL     1      -7.981   2.800 -30.386  1.00  0.00    -0.269 OA
HETATM    8  N   UNL     1      -6.322   1.612 -31.494  1.00  0.00    -0.323 N 
HETATM    9  C   UNL     1      -7.760  -0.858 -33.676  1.00  0.00     0.013 A 
HETATM   10  C   UNL     1      -6.637  -1.526 -34.168  1.00  0.00     0.001 A 
HETATM   11  C   UNL     1      -5.342  -1.149 -33.768  1.00  0.00     0.009 A 
HETATM   12  H   UNL     1      -5.538   2.034 -31.023  1.00  0.00     0.169 HD
ENDROOT
BRANCH   5  13
HETATM   13  O   UNL     1      -9.383   0.233 -31.292  1.00  0.00    -0.371 OA
HETATM   14  H   UNL     1      -9.955   0.843 -30.797  1.00  0.00     0.212 HD
ENDBRANCH   5  13
BRANCH   5  15
HETATM   15  C   UNL     1      -9.361   1.905 -33.097  1.00  0.00     0.025 A 
HETATM   16  C   UNL     1     -10.693   1.680 -33.634  1.00  0.00     0.003 A 
HETATM   17  C   UNL     1     -10.973   2.717 -34.527  1.00  0.00     0.043 A 
HETATM   18  C   UNL     1     -11.700   0.700 -33.460  1.00  0.00     0.014 A 
HETATM   19  C   UNL     1     -12.183   2.836 -35.222  1.00  0.00     0.030 A 
HETATM   20  N   UNL     1      -9.868   3.524 -34.570  1.00  0.00    -0.359 N 
HETATM   21  C   UNL     1     -13.158   1.861 -35.009  1.00  0.00     0.002 A 
HETATM   22  C   UNL     1     -12.921   0.804 -34.140  1.00  0.00     0.001 A 
HETATM   23  H   UNL     1      -9.789   4.345 -35.155  1.00  0.00     0.166 HD
HETATM   24  C   UNL     1      -8.880   3.044 -33.753  1.00  0.00     0.016 A 
HETATM   25  C   UNL     1      -7.560   3.731 -33.701  1.00  0.00     0.069 C 
ENDBRANCH   5  15
TORSDOF 2
ENDMDL
MODEL 3
REMARK VINA RESULT:      -8.3      2.265      6.077
REMARK  2 active torsions:
REMARK  status: ('A' for Active; 'I' for Inactive)
REMARK    1  A    between atoms: C_5  and  O_6 
REMARK    2  A    between atoms: C_5  and  C_7 
ROOT
HETATM    1  C   UNL     1      -3.051  -2.557 -31.914  1.00  0.00     0.050 C 
HETATM    2  C   UNL     1      -4.180  -1.880 -32.627  1.00  0.00    -0.035 A 
HETATM    3  C   UNL     1      -4.816  -0.742 -32.156  1.00  0.00     0.051 A 
HETATM    4  C   UNL     1      -5.863  -0.120 -32.852  1.00  0.00     0.018 A 
HETATM    5  C   UNL     1      -6.360   1.067 -32.065  1.00  0.00     0.199 A 
HETATM    6  C   UNL     1      -5.437   1.008 -30.803  1.00  0.00     0.266 A 
HETATM    7  O   UNL     1      -5.511   1.708 -29.802  1.00  0.00    -0.269 OA
HETATM    8  N   UNL     1      -4.562  -0.059 -30.971  1.00  0.00    -0.323 N 
HETATM    9  C   UNL     1      -6.321  -0.645 -34.052  1.00  0.00     0.013 A 
HETATM   10  C   UNL     1      -5.688  -1.781 -34.558  1.00  0.00     0.001 A 
HETATM   11  C   UNL     1      -4.628  -2.387 -33.857  1.00  0.00     0.009 A 
HETATM   12  H   UNL     1      -3.887  -0.318 -30.269  1.00  0.00     0.169 HD
ENDROOT
BRANCH   5  13
HETATM   13  O   UNL     1      -7.721   0.816 -31.725  1.00  0.00    -0.371 OA
HETATM   14  H   UNL     1      -8.221   1.041 -32.528  1.00  0.00     0.212 HD
ENDBRANCH   5  13
BRANCH   5  15
HETATM   15  C   UNL     1      -6.160   2.360 -32.837  1.00  0.00     0.025 A 
HETATM   16  C   UNL     1      -4.954   3.151 -33.019  1.00  0.00     0.003 A 
HETATM   17  C   UNL     1      -5.286   4.261 -33.799  1.00  0.00     0.043 A 
HETATM   18  C   UNL     1      -3.605   3.047 -32.602  1.00  0.00     0.014 A 
HETATM   19  C   UNL     1      -4.361   5.236 -34.193  1.00  0.00     0.030 A 
HETATM   20  N   UNL     1      -6.627   4.185 -34.061  1.00  0.00    -0.359 N 
HETATM   21  C   UNL     1      -3.037   5.088 -33.779  1.00  0.00     0.002 A 
HETATM   22  C   UNL     1      -2.662   4.008 -32.991  1.00  0.00     0.001 A 
HETATM   23  H   UNL     1      -7.140   4.875 -34.593  1.00  0.00     0.166 HD
HETATM   24  C   UNL     1      -7.179   3.080 -33.470  1.00  0.00     0.016 A 
HETATM   25  C   UNL     1      -8.645   2.840 -33.568  1.00  0.00     0.069 C 
ENDBRANCH   5  15
TORSDOF 2
ENDMDL
MODEL 4
REMARK VINA RESULT:      -8.3      2.362      3.621
REMARK  2 active torsions:
REMARK  status: ('A' for Active; 'I' for Inactive)
REMARK    1  A    between atoms: C_5  and  O_6 
REMARK    2  A    between atoms: C_5  and  C_7 
ROOT
HETATM    1  C   UNL     1      -4.996   5.476 -30.062  1.00  0.00     0.050 C 
HETATM    2  C   UNL     1      -4.509   4.384 -30.962  1.00  0.00    -0.035 A 
HETATM    3  C   UNL     1      -4.789   3.041 -30.763  1.00  0.00     0.051 A 
HETATM    4  C   UNL     1      -4.330   2.038 -31.630  1.00  0.00     0.018 A 
HETATM    5  C   UNL     1      -4.773   0.688 -31.125  1.00  0.00     0.199 A 
HETATM    6  C   UNL     1      -5.543   1.086 -29.821  1.00  0.00     0.266 A 
HETATM    7  O   UNL     1      -6.016   0.329 -28.985  1.00  0.00    -0.269 OA
HETATM    8  N   UNL     1      -5.515   2.472 -29.723  1.00  0.00    -0.323 N 
HETATM    9  C   UNL     1      -3.547   2.361 -32.730  1.00  0.00     0.013 A 
HETATM   10  C   UNL     1      -3.263   3.708 -32.963  1.00  0.00     0.001 A 
HETATM   11  C   UNL     1      -3.741   4.706 -32.093  1.00  0.00     0.009 A 
HETATM   12  H   UNL     1      -5.923   2.965 -28.944  1.00  0.00     0.169 HD
ENDROOT
BRANCH   5  13
HETATM   13  O   UNL     1      -3.601  -0.063 -30.826  1.00  0.00    -0.371 OA
HETATM   14  H   UNL     1      -2.871   0.460 -31.198  1.00  0.00     0.212 HD
ENDBRANCH   5  13
BRANCH   5  15
HETATM   15  C   UNL     1      -5.691   0.002 -32.122  1.00  0.00     0.025 A 
HETATM   16  C   UNL     1      -5.414  -1.103 -33.026  1.00  0.00     0.003 A 
HETATM   17  C   UNL     1      -6.580  -1.363 -33.749  1.00  0.00     0.043 A 
HETATM   18  C   UNL     1      -4.291  -1.916 -33.312  1.00  0.00     0.014 A 
HETATM   19  C   UNL     1      -6.687  -2.381 -34.705  1.00  0.00     0.030 A 
HETATM   20  N   UNL     1      -7.519  -0.453 -33.346  1.00  0.00    -0.359 N 
HETATM   21  C   UNL     1      -5.565  -3.174 -34.945  1.00  0.00     0.002 A 
HETATM   22  C   UNL     1      -4.380  -2.945 -34.259  1.00  0.00     0.001 A 
HETATM   23  H   UNL     1      -8.456  -0.401 -33.724  1.00  0.00     0.166 HD
HETATM   24  C   UNL     1      -7.005   0.394 -32.402  1.00  0.00     0.016 A 
HETATM   25  C   UNL     1      -7.837   1.510 -31.874  1.00  0.00     0.069 C 
ENDBRANCH   5  15
TORSDOF 2
ENDMDL
MODEL 5
REMARK VINA RESULT:      -8.3      2.210      6.275
REMARK  2 active torsions:
REMARK  status: ('A' for Active; 'I' for Inactive)
REMARK    1  A    between atoms: C_5  and  O_6 
REMARK    2  A    between atoms: C_5  and  C_7 
ROOT
HETATM    1  C   UNL     1      -4.649  -2.280 -33.892  1.00  0.00     0.050 C 
HETATM    2  C   UNL     1      -5.825  -1.353 -33.897  1.00  0.00    -0.035 A 
HETATM    3  C   UNL     1      -6.204  -0.585 -32.807  1.00  0.00     0.051 A 
HETATM    4  C   UNL     1      -7.304   0.285 -32.843  1.00  0.00     0.018 A 
HETATM    5  C   UNL     1      -7.472   0.947 -31.498  1.00  0.00     0.199 A 
HETATM    6  C   UNL     1      -6.300   0.298 -30.688  1.00  0.00     0.266 A 
HETATM    7  O   UNL     1      -6.065   0.433 -29.495  1.00  0.00    -0.269 OA
HETATM    8  N   UNL     1      -5.613  -0.551 -31.549  1.00  0.00    -0.323 N 
HETATM    9  C   UNL     1      -8.078   0.395 -33.990  1.00  0.00     0.013 A 
HETATM   10  C   UNL     1      -7.709  -0.355 -35.108  1.00  0.00     0.001 A 
HETATM   11  C   UNL     1      -6.595  -1.214 -35.063  1.00  0.00     0.009 A 
HETATM   12  H   UNL     1      -4.831  -1.108 -31.244  1.00  0.00     0.169 HD
ENDROOT
BRANCH   5  13
HETATM   13  O   UNL     1      -8.740   0.552 -30.982  1.00  0.00    -0.371 OA
HETATM   14  H   UNL     1      -9.148   0.036 -31.698  1.00  0.00     0.212 HD
ENDBRANCH   5  13
BRANCH   5  15
HETATM   15  C   UNL     1      -7.305   2.453 -31.602  1.00  0.00     0.025 A 
HETATM   16  C   UNL     1      -6.178   3.227 -32.097  1.00  0.00     0.003 A 
HETATM   17  C   UNL     1      -6.503   4.579 -31.974  1.00  0.00     0.043 A 
HETATM   18  C   UNL     1      -4.905   2.925 -32.638  1.00  0.00     0.014 A 
HETATM   19  C   UNL     1      -5.655   5.620 -32.373  1.00  0.00     0.030 A 
HETATM   20  N   UNL     1      -7.747   4.647 -31.406  1.00  0.00    -0.359 N 
HETATM   21  C   UNL     1      -4.417   5.282 -32.921  1.00  0.00     0.002 A 
HETATM   22  C   UNL     1      -4.044   3.951 -33.051  1.00  0.00     0.001 A 
HETATM   23  H   UNL     1      -8.221   5.512 -31.184  1.00  0.00     0.166 HD
HETATM   24  C   UNL     1      -8.232   3.395 -31.142  1.00  0.00     0.016 A 
HETATM   25  C   UNL     1      -9.544   3.236 -30.457  1.00  0.00     0.069 C 
ENDBRANCH   5  15
TORSDOF 2
ENDMDL
MODEL 6
REMARK VINA RESULT:      -8.3      2.656      3.949
REMARK  2 active torsions:
REMARK  status: ('A' for Active; 'I' for Inactive)
REMARK    1  A    between atoms: C_5  and  O_6 
REMARK    2  A    between atoms: C_5  and  C_7 
ROOT
HETATM    1  C   UNL     1      -5.574   5.596 -30.656  1.00  0.00     0.050 C 
HETATM    2  C   UNL     1      -4.698   4.626 -31.385  1.00  0.00    -0.035 A 
HETATM    3  C   UNL     1      -4.681   3.264 -31.132  1.00  0.00     0.051 A 
HETATM    4  C   UNL     1      -3.859   2.374 -31.840  1.00  0.00     0.018 A 
HETATM    5  C   UNL     1      -4.048   0.976 -31.309  1.00  0.00     0.199 A 
HETATM    6  C   UNL     1      -5.098   1.217 -30.174  1.00  0.00     0.266 A 
HETATM    7  O   UNL     1      -5.512   0.398 -29.366  1.00  0.00    -0.269 OA
HETATM    8  N   UNL     1      -5.416   2.571 -30.177  1.00  0.00    -0.323 N 
HETATM    9  C   UNL     1      -3.001   2.841 -32.827  1.00  0.00     0.013 A 
HETATM   10  C   UNL     1      -3.009   4.208 -33.113  1.00  0.00     0.001 A 
HETATM   11  C   UNL     1      -3.850   5.087 -32.406  1.00  0.00     0.009 A 
HETATM   12  H   UNL     1      -6.054   2.975 -29.509  1.00  0.00     0.169 HD
ENDROOT
BRANCH   5  13
HETATM   13  O   UNL     1      -2.798   0.547 -30.777  1.00  0.00    -0.371 OA
HETATM   14  H   UNL     1      -2.956   0.452 -29.822  1.00  0.00     0.212 HD
ENDBRANCH   5  13
BRANCH   5  15
HETATM   15  C   UNL     1      -4.596   0.050 -32.382  1.00  0.00     0.025 A 
HETATM   16  C   UNL     1      -5.694   0.260 -33.311  1.00  0.00     0.003 A 
HETATM   17  C   UNL     1      -5.818  -0.892 -34.091  1.00  0.00     0.043 A 
HETATM   18  C   UNL     1      -6.605   1.310 -33.578  1.00  0.00     0.014 A 
HETATM   19  C   UNL     1      -6.766  -1.040 -35.111  1.00  0.00     0.030 A 
HETATM   20  N   UNL     1      -4.875  -1.782 -33.651  1.00  0.00    -0.359 N 
HETATM   21  C   UNL     1      -7.634   0.025 -35.357  1.00  0.00     0.002 A 
HETATM   22  C   UNL     1      -7.557   1.186 -34.599  1.00  0.00     0.001 A 
HETATM   23  H   UNL     1      -4.755  -2.712 -34.029  1.00  0.00     0.166 HD
HETATM   24  C   UNL     1      -4.157  -1.259 -32.610  1.00  0.00     0.016 A 
HETATM   25  C   UNL     1      -3.122  -2.087 -31.932  1.00  0.00     0.069 C 
ENDBRANCH   5  15
TORSDOF 2
ENDMDL
MODEL 7
REMARK VINA RESULT:      -8.2      1.849      2.958
REMARK  2 active torsions:
REMARK  status: ('A' for Active; 'I' for Inactive)
REMARK    1  A    between atoms: C_5  and  O_6 
REMARK    2  A    between atoms: C_5  and  C_7 
ROOT
HETATM    1  C   UNL     1      -6.268   5.305 -33.427  1.00  0.00     0.050 C 
HETATM    2  C   UNL     1      -5.348   4.170 -33.103  1.00  0.00    -0.035 A 
HETATM    3  C   UNL     1      -5.784   2.917 -32.699  1.00  0.00     0.051 A 
HETATM    4  C   UNL     1      -4.899   1.866 -32.415  1.00  0.00     0.018 A 
HETATM    5  C   UNL     1      -5.679   0.653 -31.974  1.00  0.00     0.199 A 
HETATM    6  C   UNL     1      -7.147   1.190 -32.037  1.00  0.00     0.266 A 
HETATM    7  O   UNL     1      -8.161   0.611 -31.674  1.00  0.00    -0.269 OA
HETATM    8  N   UNL     1      -7.095   2.502 -32.496  1.00  0.00    -0.323 N 
HETATM    9  C   UNL     1      -3.527   2.054 -32.511  1.00  0.00     0.013 A 
HETATM   10  C   UNL     1      -3.062   3.301 -32.932  1.00  0.00     0.001 A 
HETATM   11  C   UNL     1      -3.960   4.343 -33.228  1.00  0.00     0.009 A 
HETATM   12  H   UNL     1      -7.921   3.072 -32.592  1.00  0.00     0.169 HD
ENDROOT
BRANCH   5  13
HETATM   13  O   UNL     1      -5.292   0.359 -30.635  1.00  0.00    -0.371 OA
HETATM   14  H   UNL     1      -4.347   0.136 -30.694  1.00  0.00     0.212 HD
ENDBRANCH   5  13
BRANCH   5  15
HETATM   15  C   UNL     1      -5.473  -0.510 -32.930  1.00  0.00     0.025 A 
HETATM   16  C   UNL     1      -4.631  -1.687 -32.787  1.00  0.00     0.003 A 
HETATM   17  C   UNL     1      -4.777  -2.457 -33.943  1.00  0.00     0.043 A 
HETATM   18  C   UNL     1      -3.754  -2.186 -31.795  1.00  0.00     0.014 A 
HETATM   19  C   UNL     1      -4.124  -3.679 -34.147  1.00  0.00     0.030 A 
HETATM   20  N   UNL     1      -5.633  -1.784 -34.773  1.00  0.00    -0.359 N 
HETATM   21  C   UNL     1      -3.282  -4.148 -33.138  1.00  0.00     0.002 A 
HETATM   22  C   UNL     1      -3.097  -3.411 -31.976  1.00  0.00     0.001 A 
HETATM   23  H   UNL     1      -5.900  -2.108 -35.693  1.00  0.00     0.166 HD
HETATM   24  C   UNL     1      -6.035  -0.604 -34.208  1.00  0.00     0.016 A 
HETATM   25  C   UNL     1      -6.916   0.322 -34.971  1.00  0.00     0.069 C 
ENDBRANCH   5  15
TORSDOF 2
ENDMDL
MODEL 8
REMARK VINA RESULT:      -8.1      2.044      3.284
REMARK  2 active torsions:
REMARK  status: ('A' for Active; 'I' for Inactive)
REMARK    1  A    between atoms: C_5  and  O_6 
REMARK    2  A    between atoms: C_5  and  C_7 
ROOT
HETATM    1  C   UNL     1     -10.609   0.809 -32.648  1.00  0.00     0.050 C 
HETATM    2  C   UNL     1      -9.260   0.892 -33.292  1.00  0.00    -0.035 A 
HETATM    3  C   UNL     1      -8.068   0.700 -32.610  1.00  0.00     0.051 A 
HETATM    4  C   UNL     1      -6.817   0.771 -33.242  1.00  0.00     0.018 A 
HETATM    5  C   UNL     1      -5.724   0.549 -32.228  1.00  0.00     0.199 A 
HETATM    6  C   UNL     1      -6.555   0.357 -30.916  1.00  0.00     0.266 A 
HETATM    7  O   UNL     1      -6.121   0.244 -29.778  1.00  0.00    -0.269 OA
HETATM    8  N   UNL     1      -7.901   0.435 -31.256  1.00  0.00    -0.323 N 
HETATM    9  C   UNL     1      -6.727   1.062 -34.596  1.00  0.00     0.013 A 
HETATM   10  C   UNL     1      -7.913   1.245 -35.310  1.00  0.00     0.001 A 
HETATM   11  C   UNL     1      -9.162   1.156 -34.668  1.00  0.00     0.009 A 
HETATM   12  H   UNL     1      -8.635   0.371 -30.568  1.00  0.00     0.169 HD
ENDROOT
BRANCH   5  13
HETATM   13  O   UNL     1      -4.940   1.737 -32.176  1.00  0.00    -0.371 OA
HETATM   14  H   UNL     1      -4.780   1.969 -33.107  1.00  0.00     0.212 HD
ENDBRANCH   5  13
BRANCH   5  15
HETATM   15  C   UNL     1      -4.914  -0.694 -32.556  1.00  0.00     0.025 A 
HETATM   16  C   UNL     1      -5.283  -1.856 -33.348  1.00  0.00     0.003 A 
HETATM   17  C   UNL     1      -4.198  -2.735 -33.344  1.00  0.00     0.043 A 
HETATM   18  C   UNL     1      -6.429  -2.261 -34.073  1.00  0.00     0.014 A 
HETATM   19  C   UNL     1      -4.190  -3.959 -34.027  1.00  0.00     0.030 A 
HETATM   20  N   UNL     1      -3.222  -2.172 -32.568  1.00  0.00    -0.359 N 
HETATM   21  C   UNL     1      -5.332  -4.314 -34.746  1.00  0.00     0.002 A 
HETATM   22  C   UNL     1      -6.439  -3.477 -34.769  1.00  0.00     0.001 A 
HETATM   23  H   UNL     1      -2.330  -2.607 -32.376  1.00  0.00     0.166 HD
HETATM   24  C   UNL     1      -3.636  -0.971 -32.058  1.00  0.00     0.016 A 
HETATM   25  C   UNL     1      -2.754  -0.217 -31.126  1.00  0.00     0.069 C 
ENDBRANCH   5  15
TORSDOF 2
ENDMDL
MODEL 9
REMARK VINA RESULT:      -8.1      2.514      3.955
REMARK  2 active torsions:
REMARK  status: ('A' for Active; 'I' for Inactive)
REMARK    1  A    between atoms: C_5  and  O_6 
REMARK    2  A    between atoms: C_5  and  C_7 
ROOT
HETATM    1  C   UNL     1      -4.494   6.260 -29.996  1.00  0.00     0.050 C 
HETATM    2  C   UNL     1      -3.976   5.237 -30.960  1.00  0.00    -0.035 A 
HETATM    3  C   UNL     1      -4.318   3.894 -30.913  1.00  0.00     0.051 A 
HETATM    4  C   UNL     1      -3.828   2.959 -31.838  1.00  0.00     0.018 A 
HETATM    5  C   UNL     1      -4.356   1.588 -31.500  1.00  0.00     0.199 A 
HETATM    6  C   UNL     1      -5.211   1.893 -30.225  1.00  0.00     0.266 A 
HETATM    7  O   UNL     1      -5.774   1.082 -29.503  1.00  0.00    -0.269 OA
HETATM    8  N   UNL     1      -5.143   3.262 -29.990  1.00  0.00    -0.323 N 
HETATM    9  C   UNL     1      -2.951   3.351 -32.839  1.00  0.00     0.013 A 
HETATM   10  C   UNL     1      -2.602   4.701 -32.918  1.00  0.00     0.001 A 
HETATM   11  C   UNL     1      -3.112   5.631 -31.994  1.00  0.00     0.009 A 
HETATM   12  H   UNL     1      -5.592   3.696 -29.200  1.00  0.00     0.169 HD
ENDROOT
BRANCH   5  13
HETATM   13  O   UNL     1      -3.238   0.763 -31.189  1.00  0.00    -0.371 OA
HETATM   14  H   UNL     1      -2.734   0.706 -32.018  1.00  0.00     0.212 HD
ENDBRANCH   5  13
BRANCH   5  15
HETATM   15  C   UNL     1      -5.217   1.038 -32.624  1.00  0.00     0.025 A 
HETATM   16  C   UNL     1      -5.181  -0.267 -33.263  1.00  0.00     0.003 A 
HETATM   17  C   UNL     1      -6.165  -0.285 -34.253  1.00  0.00     0.043 A 
HETATM   18  C   UNL     1      -4.412  -1.446 -33.109  1.00  0.00     0.014 A 
HETATM   19  C   UNL     1      -6.431  -1.396 -35.063  1.00  0.00     0.030 A 
HETATM   20  N   UNL     1      -6.759   0.949 -34.256  1.00  0.00    -0.359 N 
HETATM   21  C   UNL     1      -5.665  -2.546 -34.868  1.00  0.00     0.002 A 
HETATM   22  C   UNL     1      -4.666  -2.572 -33.904  1.00  0.00     0.001 A 
HETATM   23  H   UNL     1      -7.497   1.220 -34.891  1.00  0.00     0.166 HD
HETATM   24  C   UNL     1      -6.190   1.767 -33.318  1.00  0.00     0.016 A 
HETATM   25  C   UNL     1      -6.637   3.182 -33.197  1.00  0.00     0.069 C 
ENDBRANCH   5  15
TORSDOF 2
ENDMDL
MODEL 10
REMARK VINA RESULT:      -8.0      3.312      5.365
REMARK  2 active torsions:
REMARK  status: ('A' for Active; 'I' for Inactive)
REMARK    1  A    between atoms: C_5  and  O_6 
REMARK    2  A    between atoms: C_5  and  C_7 
ROOT
HETATM    1  C   UNL     1      -1.797   5.054 -35.074  1.00  0.00     0.050 C 
HETATM    2  C   UNL     1      -2.365   5.009 -33.690  1.00  0.00    -0.035 A 
HETATM    3  C   UNL     1      -3.722   4.951 -33.416  1.00  0.00     0.051 A 
HETATM    4  C   UNL     1      -4.227   4.896 -32.108  1.00  0.00     0.018 A 
HETATM    5  C   UNL     1      -5.734   4.874 -32.147  1.00  0.00     0.199 A 
HETATM    6  C   UNL     1      -6.004   4.942 -33.687  1.00  0.00     0.266 A 
HETATM    7  O   UNL     1      -7.089   5.051 -34.241  1.00  0.00    -0.269 OA
HETATM    8  N   UNL     1      -4.771   4.954 -34.329  1.00  0.00    -0.323 N 
HETATM    9  C   UNL     1      -3.366   4.919 -31.019  1.00  0.00     0.013 A 
HETATM   10  C   UNL     1      -1.993   4.961 -31.267  1.00  0.00     0.001 A 
HETATM   11  C   UNL     1      -1.499   5.001 -32.584  1.00  0.00     0.009 A 
HETATM   12  H   UNL     1      -4.687   5.026 -35.331  1.00  0.00     0.169 HD
ENDROOT
BRANCH   5  13
HETATM   13  O   UNL     1      -6.197   6.049 -31.487  1.00  0.00    -0.371 OA
HETATM   14  H   UNL     1      -6.079   5.862 -30.540  1.00  0.00     0.212 HD
ENDBRANCH   5  13
BRANCH   5  15
HETATM   15  C   UNL     1      -6.280   3.590 -31.545  1.00  0.00     0.025 A 
HETATM   16  C   UNL     1      -5.888   2.212 -31.793  1.00  0.00     0.003 A 
HETATM   17  C   UNL     1      -6.697   1.390 -31.006  1.00  0.00     0.043 A 
HETATM   18  C   UNL     1      -4.926   1.568 -32.608  1.00  0.00     0.014 A 
HETATM   19  C   UNL     1      -6.586  -0.006 -30.975  1.00  0.00     0.030 A 
HETATM   20  N   UNL     1      -7.566   2.204 -30.332  1.00  0.00    -0.359 N 
HETATM   21  C   UNL     1      -5.613  -0.603 -31.777  1.00  0.00     0.002 A 
HETATM   22  C   UNL     1      -4.793   0.172 -32.586  1.00  0.00     0.001 A 
HETATM   23  H   UNL     1      -8.282   1.868 -29.702  1.00  0.00     0.166 HD
HETATM   24  C   UNL     1      -7.362   3.517 -30.661  1.00  0.00     0.016 A 
HETATM   25  C   UNL     1      -8.248   4.571 -30.094  1.00  0.00     0.069 C 
ENDBRANCH   5  15
TORSDOF 2
ENDMDL
