MODEL 1
REMARK VINA RESULT:      -9.0      0.000      0.000
REMARK  6 active torsions:
REMARK  status: ('A' for Active; 'I' for Inactive)
REMARK    1  A    between atoms: C_2  and  O_3 
REMARK    2  A    between atoms: O_3  and  C_4 
REMARK    3  A    between atoms: C_5  and  O_6 
REMARK    4  A    between atoms: O_6  and  C_7 
REMARK    5  A    between atoms: C_7  and  C_8 
REMARK    6  A    between atoms: C_16  and  C_17 
ROOT
HETATM    1  C   UNL     1      -6.805   1.389 -32.027  1.00  0.00     0.102 A 
HETATM    2  C   UNL     1      -6.816   0.716 -33.254  1.00  0.00     0.102 A 
HETATM    3  C   UNL     1      -6.722   1.453 -34.442  1.00  0.00     0.040 A 
HETATM    4  C   UNL     1      -6.554   2.839 -34.416  1.00  0.00     0.014 A 
HETATM    5  C   UNL     1      -6.470   3.530 -33.201  1.00  0.00    -0.007 A 
HETATM    6  C   UNL     1      -6.622   2.785 -32.019  1.00  0.00     0.051 A 
ENDROOT
BRANCH   5   7
HETATM    7  C   UNL     1      -6.303   5.046 -33.184  1.00  0.00     0.264 C 
HETATM    8  O   UNL     1      -5.463   5.508 -34.257  1.00  0.00    -0.321 OA
HETATM    9  C   UNL     1      -4.122   5.388 -33.999  1.00  0.00     0.087 A 
HETATM   10  C   UNL     1      -3.602   5.381 -32.706  1.00  0.00     0.065 A 
HETATM   11  C   UNL     1      -3.264   5.300 -35.093  1.00  0.00     0.038 A 
HETATM   12  C   UNL     1      -4.536   5.562 -31.584  1.00  0.00     0.256 C 
HETATM   13  C   UNL     1      -2.228   5.259 -32.493  1.00  0.00     0.020 A 
HETATM   14  O   UNL     1      -4.160   5.708 -30.429  1.00  0.00    -0.267 OA
HETATM   15  N   UNL     1      -5.857   5.586 -31.927  1.00  0.00    -0.326 N 
HETATM   16  H   UNL     1      -6.503   5.635 -31.152  1.00  0.00     0.165 HD
HETATM   17  C   UNL     1      -1.372   5.146 -33.589  1.00  0.00     0.001 A 
HETATM   18  C   UNL     1      -1.888   5.171 -34.886  1.00  0.00     0.003 A 
ENDBRANCH   5   7
BRANCH   1  19
HETATM   19  O   UNL     1      -6.938   0.888 -30.761  1.00  0.00    -0.349 OA
BRANCH  19  20
HETATM   20  C   UNL     1      -5.822   0.781 -29.885  1.00  0.00     0.171 C 
HETATM   21  C   UNL     1      -4.634   0.127 -30.570  1.00  0.00     0.034 C 
ENDBRANCH  19  20
ENDBRANCH   1  19
BRANCH   2  22
HETATM   22  O   UNL     1      -6.993  -0.640 -33.302  1.00  0.00    -0.344 OA
BRANCH  22  23
HETATM   23  C   UNL     1      -6.904  -1.195 -34.617  1.00  0.00     0.214 C 
BRANCH  23  24
HETATM   24  C   UNL     1      -6.114  -2.479 -34.537  1.00  0.00    -0.034 A 
HETATM   25  C   UNL     1      -6.686  -3.690 -34.955  1.00  0.00     0.009 A 
HETATM   26  C   UNL     1      -5.960  -4.879 -34.877  1.00  0.00     0.001 A 
HETATM   27  C   UNL     1      -4.660  -4.872 -34.374  1.00  0.00     0.000 A 
HETATM   28  C   UNL     1      -4.088  -3.678 -33.942  1.00  0.00     0.001 A 
HETATM   29  C   UNL     1      -4.812  -2.486 -34.020  1.00  0.00     0.009 A 
ENDBRANCH  23  24
ENDBRANCH  22  23
ENDBRANCH   2  22
TORSDOF 6
ENDMDL
MODEL 2
REMARK VINA RESULT:      -8.8      2.573      4.241
REMARK  6 active torsions:
REMARK  status: ('A' for Active; 'I' for Inactive)
REMARK    1  A    between atoms: C_2  and  O_3 
REMARK    2  A    between atoms: O_3  and  C_4 
REMARK    3  A    between atoms: C_5  and  O_6 
REMARK    4  A    between atoms: O_6  and  C_7 
REMARK    5  A    between atoms: C_7  and  C_8 
REMARK    6  A    between atoms: C_16  and  C_17 
ROOT
HETATM    1  C   UNL     1      -4.039   3.138 -32.144  1.00  0.00     0.102 A 
HETATM    2  C   UNL     1      -5.277   3.698 -32.479  1.00  0.00     0.102 A 
HETATM    3  C   UNL     1      -5.315   4.944 -33.120  1.00  0.00     0.040 A 
HETATM    4  C   UNL     1      -4.138   5.602 -33.483  1.00  0.00     0.014 A 
HETATM    5  C   UNL     1      -2.886   5.031 -33.220  1.00  0.00    -0.007 A 
HETATM    6  C   UNL     1      -2.862   3.808 -32.528  1.00  0.00     0.051 A 
ENDROOT
BRANCH   5   7
HETATM    7  C   UNL     1      -1.606   5.767 -33.605  1.00  0.00     0.264 C 
HETATM    8  O   UNL     1      -0.474   5.315 -32.839  1.00  0.00    -0.321 OA
HETATM    9  C   UNL     1      -0.389   5.882 -31.593  1.00  0.00     0.087 A 
HETATM   10  C   UNL     1      -0.938   7.127 -31.294  1.00  0.00     0.065 A 
HETATM   11  C   UNL     1       0.304   5.175 -30.614  1.00  0.00     0.038 A 
HETATM   12  C   UNL     1      -1.588   7.876 -32.381  1.00  0.00     0.256 C 
HETATM   13  C   UNL     1      -0.824   7.665 -30.011  1.00  0.00     0.020 A 
HETATM   14  O   UNL     1      -1.974   9.029 -32.250  1.00  0.00    -0.267 OA
HETATM   15  N   UNL     1      -1.703   7.201 -33.562  1.00  0.00    -0.326 N 
HETATM   16  H   UNL     1      -2.214   7.685 -34.287  1.00  0.00     0.165 HD
HETATM   17  C   UNL     1      -0.150   6.945 -29.024  1.00  0.00     0.001 A 
HETATM   18  C   UNL     1       0.417   5.705 -29.326  1.00  0.00     0.003 A 
ENDBRANCH   5   7
BRANCH   1  19
HETATM   19  O   UNL     1      -3.764   1.976 -31.476  1.00  0.00    -0.349 OA
BRANCH  19  20
HETATM   20  C   UNL     1      -3.336   0.807 -32.166  1.00  0.00     0.171 C 
HETATM   21  C   UNL     1      -3.465  -0.434 -31.298  1.00  0.00     0.034 C 
ENDBRANCH  19  20
ENDBRANCH   1  19
BRANCH   2  22
HETATM   22  O   UNL     1      -6.442   3.075 -32.122  1.00  0.00    -0.344 OA
BRANCH  22  23
HETATM   23  C   UNL     1      -7.313   2.792 -33.220  1.00  0.00     0.214 C 
BRANCH  23  24
HETATM   24  C   UNL     1      -7.140   1.341 -33.600  1.00  0.00    -0.034 A 
HETATM   25  C   UNL     1      -6.921   0.371 -32.612  1.00  0.00     0.009 A 
HETATM   26  C   UNL     1      -6.755  -0.970 -32.961  1.00  0.00     0.001 A 
HETATM   27  C   UNL     1      -6.797  -1.353 -34.301  1.00  0.00     0.000 A 
HETATM   28  C   UNL     1      -6.999  -0.394 -35.293  1.00  0.00     0.001 A 
HETATM   29  C   UNL     1      -7.166   0.948 -34.946  1.00  0.00     0.009 A 
ENDBRANCH  23  24
ENDBRANCH  22  23
ENDBRANCH   2  22
TORSDOF 6
ENDMDL
MODEL 3
REMARK VINA RESULT:      -8.7      2.491      4.356
REMARK  6 active torsions:
REMARK  status: ('A' for Active; 'I' for Inactive)
REMARK    1  A    between atoms: C_2  and  O_3 
REMARK    2  A    between atoms: O_3  and  C_4 
REMARK    3  A    between atoms: C_5  and  O_6 
REMARK    4  A    between atoms: O_6  and  C_7 
REMARK    5  A    between atoms: C_7  and  C_8 
REMARK    6  A    between atoms: C_16  and  C_17 
ROOT
HETATM    1  C   UNL     1      -5.135   4.435 -33.708  1.00  0.00     0.102 A 
HETATM    2  C   UNL     1      -4.957   3.304 -32.903  1.00  0.00     0.102 A 
HETATM    3  C   UNL     1      -3.672   2.985 -32.443  1.00  0.00     0.040 A 
HETATM    4  C   UNL     1      -2.582   3.812 -32.724  1.00  0.00     0.014 A 
HETATM    5  C   UNL     1      -2.745   4.986 -33.470  1.00  0.00    -0.007 A 
HETATM    6  C   UNL     1      -4.028   5.264 -33.972  1.00  0.00     0.051 A 
ENDROOT
BRANCH   5   7
HETATM    7  C   UNL     1      -1.545   5.873 -33.786  1.00  0.00     0.264 C 
HETATM    8  O   UNL     1      -0.378   5.488 -33.038  1.00  0.00    -0.321 OA
HETATM    9  C   UNL     1      -0.360   5.971 -31.755  1.00  0.00     0.087 A 
HETATM   10  C   UNL     1      -1.036   7.130 -31.378  1.00  0.00     0.065 A 
HETATM   11  C   UNL     1       0.396   5.272 -30.817  1.00  0.00     0.038 A 
HETATM   12  C   UNL     1      -1.751   7.883 -32.420  1.00  0.00     0.256 C 
HETATM   13  C   UNL     1      -0.985   7.586 -30.060  1.00  0.00     0.020 A 
HETATM   14  O   UNL     1      -2.255   8.979 -32.215  1.00  0.00    -0.267 OA
HETATM   15  N   UNL     1      -1.789   7.284 -33.646  1.00  0.00    -0.326 N 
HETATM   16  H   UNL     1      -2.342   7.762 -34.343  1.00  0.00     0.165 HD
HETATM   17  C   UNL     1      -0.248   6.871 -29.115  1.00  0.00     0.001 A 
HETATM   18  C   UNL     1       0.445   5.719 -29.495  1.00  0.00     0.003 A 
ENDBRANCH   5   7
BRANCH   1  19
HETATM   19  O   UNL     1      -6.272   4.903 -34.309  1.00  0.00    -0.349 OA
BRANCH  19  20
HETATM   20  C   UNL     1      -7.367   5.393 -33.543  1.00  0.00     0.171 C 
HETATM   21  C   UNL     1      -8.670   4.714 -33.931  1.00  0.00     0.034 C 
ENDBRANCH  19  20
ENDBRANCH   1  19
BRANCH   2  22
HETATM   22  O   UNL     1      -6.009   2.475 -32.627  1.00  0.00    -0.344 OA
BRANCH  22  23
HETATM   23  C   UNL     1      -5.641   1.268 -31.953  1.00  0.00     0.214 C 
BRANCH  23  24
HETATM   24  C   UNL     1      -5.800   0.118 -32.919  1.00  0.00    -0.034 A 
HETATM   25  C   UNL     1      -7.006  -0.063 -33.611  1.00  0.00     0.009 A 
HETATM   26  C   UNL     1      -7.158  -1.129 -34.500  1.00  0.00     0.001 A 
HETATM   27  C   UNL     1      -6.110  -2.026 -34.699  1.00  0.00     0.000 A 
HETATM   28  C   UNL     1      -4.912  -1.864 -34.005  1.00  0.00     0.001 A 
HETATM   29  C   UNL     1      -4.758  -0.798 -33.116  1.00  0.00     0.009 A 
ENDBRANCH  23  24
ENDBRANCH  22  23
ENDBRANCH   2  22
TORSDOF 6
ENDMDL
MODEL 4
REMARK VINA RESULT:      -8.4      2.265      7.768
REMARK  6 active torsions:
REMARK  status: ('A' for Active; 'I' for Inactive)
REMARK    1  A    between atoms: C_2  and  O_3 
REMARK    2  A    between atoms: O_3  and  C_4 
REMARK    3  A    between atoms: C_5  and  O_6 
REMARK    4  A    between atoms: O_6  and  C_7 
REMARK    5  A    between atoms: C_7  and  C_8 
REMARK    6  A    between atoms: C_16  and  C_17 
ROOT
HETATM    1  C   UNL     1      -4.803   4.520 -31.708  1.00  0.00     0.102 A 
HETATM    2  C   UNL     1      -3.640   4.383 -32.474  1.00  0.00     0.102 A 
HETATM    3  C   UNL     1      -3.017   3.131 -32.557  1.00  0.00     0.040 A 
HETATM    4  C   UNL     1      -3.573   2.009 -31.940  1.00  0.00     0.014 A 
HETATM    5  C   UNL     1      -4.774   2.104 -31.224  1.00  0.00    -0.007 A 
HETATM    6  C   UNL     1      -5.358   3.377 -31.103  1.00  0.00     0.051 A 
ENDROOT
BRANCH   5   7
HETATM    7  C   UNL     1      -5.364   0.875 -30.539  1.00  0.00     0.264 C 
HETATM    8  O   UNL     1      -4.922  -0.348 -31.153  1.00  0.00    -0.321 OA
HETATM    9  C   UNL     1      -5.619  -0.682 -32.286  1.00  0.00     0.087 A 
HETATM   10  C   UNL     1      -6.927  -0.261 -32.515  1.00  0.00     0.065 A 
HETATM   11  C   UNL     1      -4.979  -1.500 -33.215  1.00  0.00     0.038 A 
HETATM   12  C   UNL     1      -7.593   0.531 -31.469  1.00  0.00     0.256 C 
HETATM   13  C   UNL     1      -7.598  -0.628 -33.683  1.00  0.00     0.020 A 
HETATM   14  O   UNL     1      -8.779   0.826 -31.518  1.00  0.00    -0.267 OA
HETATM   15  N   UNL     1      -6.798   0.888 -30.419  1.00  0.00    -0.326 N 
HETATM   16  H   UNL     1      -7.232   1.493 -29.736  1.00  0.00     0.165 HD
HETATM   17  C   UNL     1      -6.947  -1.427 -34.624  1.00  0.00     0.001 A 
HETATM   18  C   UNL     1      -5.643  -1.866 -34.388  1.00  0.00     0.003 A 
ENDBRANCH   5   7
BRANCH   1  19
HETATM   19  O   UNL     1      -5.540   5.642 -31.441  1.00  0.00    -0.349 OA
BRANCH  19  20
HETATM   20  C   UNL     1      -5.603   6.193 -30.131  1.00  0.00     0.171 C 
HETATM   21  C   UNL     1      -4.224   6.569 -29.615  1.00  0.00     0.034 C 
ENDBRANCH  19  20
ENDBRANCH   1  19
BRANCH   2  22
HETATM   22  O   UNL     1      -3.072   5.473 -33.076  1.00  0.00    -0.344 OA
BRANCH  22  23
HETATM   23  C   UNL     1      -1.658   5.364 -33.266  1.00  0.00     0.214 C 
BRANCH  23  24
HETATM   24  C   UNL     1      -0.971   5.914 -32.039  1.00  0.00    -0.034 A 
HETATM   25  C   UNL     1      -0.080   5.116 -31.308  1.00  0.00     0.009 A 
HETATM   26  C   UNL     1       0.552   5.620 -30.170  1.00  0.00     0.001 A 
HETATM   27  C   UNL     1       0.293   6.923 -29.748  1.00  0.00     0.000 A 
HETATM   28  C   UNL     1      -0.602   7.720 -30.459  1.00  0.00     0.001 A 
HETATM   29  C   UNL     1      -1.235   7.218 -31.598  1.00  0.00     0.009 A 
ENDBRANCH  23  24
ENDBRANCH  22  23
ENDBRANCH   2  22
TORSDOF 6
ENDMDL
MODEL 5
REMARK VINA RESULT:      -8.3      3.221      5.360
REMARK  6 active torsions:
REMARK  status: ('A' for Active; 'I' for Inactive)
REMARK    1  A    between atoms: C_2  and  O_3 
REMARK    2  A    between atoms: O_3  and  C_4 
REMARK    3  A    between atoms: C_5  and  O_6 
REMARK    4  A    between atoms: O_6  and  C_7 
REMARK    5  A    between atoms: C_7  and  C_8 
REMARK    6  A    between atoms: C_16  and  C_17 
ROOT
HETATM    1  C   UNL     1      -6.232   1.894 -32.386  1.00  0.00     0.102 A 
HETATM    2  C   UNL     1      -6.683   0.570 -32.343  1.00  0.00     0.102 A 
HETATM    3  C   UNL     1      -8.037   0.314 -32.088  1.00  0.00     0.040 A 
HETATM    4  C   UNL     1      -8.951   1.359 -31.940  1.00  0.00     0.014 A 
HETATM    5  C   UNL     1      -8.538   2.694 -32.048  1.00  0.00    -0.007 A 
HETATM    6  C   UNL     1      -7.168   2.936 -32.248  1.00  0.00     0.051 A 
ENDROOT
BRANCH   5   7
HETATM    7  C   UNL     1      -9.541   3.829 -31.867  1.00  0.00     0.264 C 
HETATM    8  O   UNL     1     -10.901   3.367 -31.961  1.00  0.00    -0.321 OA
HETATM    9  C   UNL     1     -11.346   3.218 -33.249  1.00  0.00     0.087 A 
HETATM   10  C   UNL     1     -10.817   3.942 -34.316  1.00  0.00     0.065 A 
HETATM   11  C   UNL     1     -12.390   2.322 -33.468  1.00  0.00     0.038 A 
HETATM   12  C   UNL     1      -9.774   4.939 -34.027  1.00  0.00     0.256 C 
HETATM   13  C   UNL     1     -11.305   3.758 -35.611  1.00  0.00     0.020 A 
HETATM   14  O   UNL     1      -9.350   5.715 -34.872  1.00  0.00    -0.267 OA
HETATM   15  N   UNL     1      -9.332   4.957 -32.735  1.00  0.00    -0.326 N 
HETATM   16  H   UNL     1      -8.565   5.588 -32.551  1.00  0.00     0.165 HD
HETATM   17  C   UNL     1     -12.334   2.843 -35.832  1.00  0.00     0.001 A 
HETATM   18  C   UNL     1     -12.878   2.130 -34.762  1.00  0.00     0.003 A 
ENDBRANCH   5   7
BRANCH   1  19
HETATM   19  O   UNL     1      -4.963   2.374 -32.561  1.00  0.00    -0.349 OA
BRANCH  19  20
HETATM   20  C   UNL     1      -4.084   2.566 -31.459  1.00  0.00     0.171 C 
HETATM   21  C   UNL     1      -2.905   3.449 -31.830  1.00  0.00     0.034 C 
ENDBRANCH  19  20
ENDBRANCH   1  19
BRANCH   2  22
HETATM   22  O   UNL     1      -5.802  -0.469 -32.473  1.00  0.00    -0.344 OA
BRANCH  22  23
HETATM   23  C   UNL     1      -5.329  -0.670 -33.807  1.00  0.00     0.214 C 
BRANCH  23  24
HETATM   24  C   UNL     1      -5.469  -2.135 -34.145  1.00  0.00    -0.034 A 
HETATM   25  C   UNL     1      -4.374  -3.001 -34.011  1.00  0.00     0.009 A 
HETATM   26  C   UNL     1      -4.499  -4.354 -34.327  1.00  0.00     0.001 A 
HETATM   27  C   UNL     1      -5.716  -4.854 -34.788  1.00  0.00     0.000 A 
HETATM   28  C   UNL     1      -6.806  -3.999 -34.939  1.00  0.00     0.001 A 
HETATM   29  C   UNL     1      -6.684  -2.645 -34.622  1.00  0.00     0.009 A 
ENDBRANCH  23  24
ENDBRANCH  22  23
ENDBRANCH   2  22
TORSDOF 6
ENDMDL
MODEL 6
REMARK VINA RESULT:      -8.0      4.829      6.872
REMARK  6 active torsions:
REMARK  status: ('A' for Active; 'I' for Inactive)
REMARK    1  A    between atoms: C_2  and  O_3 
REMARK    2  A    between atoms: O_3  and  C_4 
REMARK    3  A    between atoms: C_5  and  O_6 
REMARK    4  A    between atoms: O_6  and  C_7 
REMARK    5  A    between atoms: C_7  and  C_8 
REMARK    6  A    between atoms: C_16  and  C_17 
ROOT
HETATM    1  C   UNL     1      -8.977   2.133 -33.580  1.00  0.00     0.102 A 
HETATM    2  C   UNL     1      -8.426   0.999 -32.974  1.00  0.00     0.102 A 
HETATM    3  C   UNL     1      -9.255  -0.088 -32.669  1.00  0.00     0.040 A 
HETATM    4  C   UNL     1     -10.607  -0.080 -33.017  1.00  0.00     0.014 A 
HETATM    5  C   UNL     1     -11.170   1.014 -33.687  1.00  0.00    -0.007 A 
HETATM    6  C   UNL     1     -10.339   2.120 -33.936  1.00  0.00     0.051 A 
ENDROOT
BRANCH   5   7
HETATM    7  C   UNL     1     -12.652   1.020 -34.048  1.00  0.00     0.264 C 
HETATM    8  O   UNL     1     -12.925   1.851 -35.191  1.00  0.00    -0.321 OA
HETATM    9  C   UNL     1     -13.023   3.186 -34.893  1.00  0.00     0.087 A 
HETATM   10  C   UNL     1     -13.394   3.650 -33.632  1.00  0.00     0.065 A 
HETATM   11  C   UNL     1     -12.763   4.092 -35.918  1.00  0.00     0.038 A 
HETATM   12  C   UNL     1     -13.742   2.657 -32.604  1.00  0.00     0.256 C 
HETATM   13  C   UNL     1     -13.483   5.019 -33.377  1.00  0.00     0.020 A 
HETATM   14  O   UNL     1     -14.210   2.967 -31.517  1.00  0.00    -0.267 OA
HETATM   15  N   UNL     1     -13.532   1.356 -32.961  1.00  0.00    -0.326 N 
HETATM   16  H   UNL     1     -13.700   0.677 -32.232  1.00  0.00     0.165 HD
HETATM   17  C   UNL     1     -13.199   5.927 -34.398  1.00  0.00     0.001 A 
HETATM   18  C   UNL     1     -12.844   5.464 -35.667  1.00  0.00     0.003 A 
ENDBRANCH   5   7
BRANCH   1  19
HETATM   19  O   UNL     1      -8.378   3.317 -33.914  1.00  0.00    -0.349 OA
BRANCH  19  20
HETATM   20  C   UNL     1      -8.807   4.550 -33.348  1.00  0.00     0.171 C 
HETATM   21  C   UNL     1      -9.315   5.508 -34.413  1.00  0.00     0.034 C 
ENDBRANCH  19  20
ENDBRANCH   1  19
BRANCH   2  22
HETATM   22  O   UNL     1      -7.106   0.976 -32.612  1.00  0.00    -0.344 OA
BRANCH  22  23
HETATM   23  C   UNL     1      -6.198   0.950 -33.718  1.00  0.00     0.214 C 
BRANCH  23  24
HETATM   24  C   UNL     1      -5.737  -0.473 -33.919  1.00  0.00    -0.034 A 
HETATM   25  C   UNL     1      -6.460  -1.342 -34.748  1.00  0.00     0.009 A 
HETATM   26  C   UNL     1      -6.039  -2.660 -34.931  1.00  0.00     0.001 A 
HETATM   27  C   UNL     1      -4.896  -3.124 -34.282  1.00  0.00     0.000 A 
HETATM   28  C   UNL     1      -4.178  -2.273 -33.444  1.00  0.00     0.001 A 
HETATM   29  C   UNL     1      -4.597  -0.954 -33.260  1.00  0.00     0.009 A 
ENDBRANCH  23  24
ENDBRANCH  22  23
ENDBRANCH   2  22
TORSDOF 6
ENDMDL
MODEL 7
REMARK VINA RESULT:      -7.8      3.066      5.109
REMARK  6 active torsions:
REMARK  status: ('A' for Active; 'I' for Inactive)
REMARK    1  A    between atoms: C_2  and  O_3 
REMARK    2  A    between atoms: O_3  and  C_4 
REMARK    3  A    between atoms: C_5  and  O_6 
REMARK    4  A    between atoms: O_6  and  C_7 
REMARK    5  A    between atoms: C_7  and  C_8 
REMARK    6  A    between atoms: C_16  and  C_17 
ROOT
HETATM    1  C   UNL     1      -3.978   2.889 -31.775  1.00  0.00     0.102 A 
HETATM    2  C   UNL     1      -5.184   3.347 -32.318  1.00  0.00     0.102 A 
HETATM    3  C   UNL     1      -5.175   4.456 -33.174  1.00  0.00     0.040 A 
HETATM    4  C   UNL     1      -3.975   5.070 -33.542  1.00  0.00     0.014 A 
HETATM    5  C   UNL     1      -2.748   4.589 -33.067  1.00  0.00    -0.007 A 
HETATM    6  C   UNL     1      -2.777   3.512 -32.166  1.00  0.00     0.051 A 
ENDROOT
BRANCH   5   7
HETATM    7  C   UNL     1      -1.444   5.277 -33.461  1.00  0.00     0.264 C 
HETATM    8  O   UNL     1      -0.363   4.929 -32.578  1.00  0.00    -0.321 OA
HETATM    9  C   UNL     1      -0.352   5.644 -31.409  1.00  0.00     0.087 A 
HETATM   10  C   UNL     1      -0.915   6.915 -31.299  1.00  0.00     0.065 A 
HETATM   11  C   UNL     1       0.278   5.066 -30.309  1.00  0.00     0.038 A 
HETATM   12  C   UNL     1      -1.495   7.522 -32.507  1.00  0.00     0.256 C 
HETATM   13  C   UNL     1      -0.877   7.606 -30.087  1.00  0.00     0.020 A 
HETATM   14  O   UNL     1      -1.884   8.680 -32.542  1.00  0.00    -0.267 OA
HETATM   15  N   UNL     1      -1.540   6.706 -33.601  1.00  0.00    -0.326 N 
HETATM   16  H   UNL     1      -2.004   7.094 -34.409  1.00  0.00     0.165 HD
HETATM   17  C   UNL     1      -0.267   7.016 -28.980  1.00  0.00     0.001 A 
HETATM   18  C   UNL     1       0.313   5.751 -29.092  1.00  0.00     0.003 A 
ENDBRANCH   5   7
BRANCH   1  19
HETATM   19  O   UNL     1      -3.756   1.874 -30.885  1.00  0.00    -0.349 OA
BRANCH  19  20
HETATM   20  C   UNL     1      -3.254   0.612 -31.311  1.00  0.00     0.171 C 
HETATM   21  C   UNL     1      -4.194  -0.060 -32.297  1.00  0.00     0.034 C 
ENDBRANCH  19  20
ENDBRANCH   1  19
BRANCH   2  22
HETATM   22  O   UNL     1      -6.372   2.768 -31.961  1.00  0.00    -0.344 OA
BRANCH  22  23
HETATM   23  C   UNL     1      -7.511   3.616 -32.134  1.00  0.00     0.214 C 
BRANCH  23  24
HETATM   24  C   UNL     1      -8.608   2.808 -32.783  1.00  0.00    -0.034 A 
HETATM   25  C   UNL     1      -8.813   1.469 -32.419  1.00  0.00     0.009 A 
HETATM   26  C   UNL     1      -9.823   0.718 -33.021  1.00  0.00     0.001 A 
HETATM   27  C   UNL     1     -10.633   1.295 -33.999  1.00  0.00     0.000 A 
HETATM   28  C   UNL     1     -10.429   2.620 -34.379  1.00  0.00     0.001 A 
HETATM   29  C   UNL     1      -9.419   3.373 -33.777  1.00  0.00     0.009 A 
ENDBRANCH  23  24
ENDBRANCH  22  23
ENDBRANCH   2  22
TORSDOF 6
ENDMDL
MODEL 8
REMARK VINA RESULT:      -7.7      2.932      4.541
REMARK  6 active torsions:
REMARK  status: ('A' for Active; 'I' for Inactive)
REMARK    1  A    between atoms: C_2  and  O_3 
REMARK    2  A    between atoms: O_3  and  C_4 
REMARK    3  A    between atoms: C_5  and  O_6 
REMARK    4  A    between atoms: O_6  and  C_7 
REMARK    5  A    between atoms: C_7  and  C_8 
REMARK    6  A    between atoms: C_16  and  C_17 
ROOT
HETATM    1  C   UNL     1      -9.086   0.555 -32.566  1.00  0.00     0.102 A 
HETATM    2  C   UNL     1      -7.842   0.043 -32.953  1.00  0.00     0.102 A 
HETATM    3  C   UNL     1      -6.673   0.613 -32.430  1.00  0.00     0.040 A 
HETATM    4  C   UNL     1      -6.734   1.640 -31.485  1.00  0.00     0.014 A 
HETATM    5  C   UNL     1      -7.967   2.124 -31.030  1.00  0.00    -0.007 A 
HETATM    6  C   UNL     1      -9.130   1.582 -31.604  1.00  0.00     0.051 A 
ENDROOT
BRANCH   5   7
HETATM    7  C   UNL     1      -8.023   3.258 -30.010  1.00  0.00     0.264 C 
HETATM    8  O   UNL     1      -9.263   3.983 -30.078  1.00  0.00    -0.321 OA
HETATM    9  C   UNL     1      -9.301   4.921 -31.078  1.00  0.00     0.087 A 
HETATM   10  C   UNL     1      -8.153   5.523 -31.588  1.00  0.00     0.065 A 
HETATM   11  C   UNL     1     -10.553   5.289 -31.565  1.00  0.00     0.038 A 
HETATM   12  C   UNL     1      -6.858   5.166 -30.986  1.00  0.00     0.256 C 
HETATM   13  C   UNL     1      -8.241   6.475 -32.605  1.00  0.00     0.020 A 
HETATM   14  O   UNL     1      -5.817   5.741 -31.271  1.00  0.00    -0.267 OA
HETATM   15  N   UNL     1      -6.907   4.164 -30.061  1.00  0.00    -0.326 N 
HETATM   16  H   UNL     1      -6.011   3.867 -29.700  1.00  0.00     0.165 HD
HETATM   17  C   UNL     1      -9.494   6.825 -33.109  1.00  0.00     0.001 A 
HETATM   18  C   UNL     1     -10.648   6.237 -32.587  1.00  0.00     0.003 A 
ENDBRANCH   5   7
BRANCH   1  19
HETATM   19  O   UNL     1     -10.339   0.199 -32.983  1.00  0.00    -0.349 OA
BRANCH  19  20
HETATM   20  C   UNL     1     -11.165   1.104 -33.706  1.00  0.00     0.171 C 
HETATM   21  C   UNL     1     -12.621   0.668 -33.689  1.00  0.00     0.034 C 
ENDBRANCH  19  20
ENDBRANCH   1  19
BRANCH   2  22
HETATM   22  O   UNL     1      -7.760  -0.954 -33.886  1.00  0.00    -0.344 OA
BRANCH  22  23
HETATM   23  C   UNL     1      -6.534  -0.964 -34.624  1.00  0.00     0.214 C 
BRANCH  23  24
HETATM   24  C   UNL     1      -5.950  -2.354 -34.553  1.00  0.00    -0.034 A 
HETATM   25  C   UNL     1      -4.629  -2.547 -34.122  1.00  0.00     0.009 A 
HETATM   26  C   UNL     1      -4.085  -3.830 -34.061  1.00  0.00     0.001 A 
HETATM   27  C   UNL     1      -4.852  -4.932 -34.438  1.00  0.00     0.000 A 
HETATM   28  C   UNL     1      -6.160  -4.751 -34.882  1.00  0.00     0.001 A 
HETATM   29  C   UNL     1      -6.707  -3.468 -34.943  1.00  0.00     0.009 A 
ENDBRANCH  23  24
ENDBRANCH  22  23
ENDBRANCH   2  22
TORSDOF 6
ENDMDL
MODEL 9
REMARK VINA RESULT:      -7.6      2.946      4.713
REMARK  6 active torsions:
REMARK  status: ('A' for Active; 'I' for Inactive)
REMARK    1  A    between atoms: C_2  and  O_3 
REMARK    2  A    between atoms: O_3  and  C_4 
REMARK    3  A    between atoms: C_5  and  O_6 
REMARK    4  A    between atoms: O_6  and  C_7 
REMARK    5  A    between atoms: C_7  and  C_8 
REMARK    6  A    between atoms: C_16  and  C_17 
ROOT
HETATM    1  C   UNL     1      -3.697   4.084 -31.965  1.00  0.00     0.102 A 
HETATM    2  C   UNL     1      -4.651   3.238 -31.388  1.00  0.00     0.102 A 
HETATM    3  C   UNL     1      -5.406   3.695 -30.300  1.00  0.00     0.040 A 
HETATM    4  C   UNL     1      -5.265   5.001 -29.826  1.00  0.00     0.014 A 
HETATM    5  C   UNL     1      -4.367   5.891 -30.428  1.00  0.00    -0.007 A 
HETATM    6  C   UNL     1      -3.577   5.401 -31.482  1.00  0.00     0.051 A 
ENDROOT
BRANCH   5   7
HETATM    7  C   UNL     1      -4.208   7.310 -29.891  1.00  0.00     0.264 C 
HETATM    8  O   UNL     1      -2.962   7.903 -30.297  1.00  0.00    -0.321 OA
HETATM    9  C   UNL     1      -1.893   7.524 -29.526  1.00  0.00     0.087 A 
HETATM   10  C   UNL     1      -2.029   7.107 -28.203  1.00  0.00     0.065 A 
HETATM   11  C   UNL     1      -0.628   7.595 -30.105  1.00  0.00     0.038 A 
HETATM   12  C   UNL     1      -3.374   7.129 -27.606  1.00  0.00     0.256 C 
HETATM   13  C   UNL     1      -0.911   6.733 -27.457  1.00  0.00     0.020 A 
HETATM   14  O   UNL     1      -3.573   6.915 -26.419  1.00  0.00    -0.267 OA
HETATM   15  N   UNL     1      -4.386   7.435 -28.469  1.00  0.00    -0.326 N 
HETATM   16  H   UNL     1      -5.317   7.378 -28.080  1.00  0.00     0.165 HD
HETATM   17  C   UNL     1       0.353   6.781 -28.046  1.00  0.00     0.001 A 
HETATM   18  C   UNL     1       0.495   7.216 -29.365  1.00  0.00     0.003 A 
ENDBRANCH   5   7
BRANCH   1  19
HETATM   19  O   UNL     1      -2.819   3.836 -32.984  1.00  0.00    -0.349 OA
BRANCH  19  20
HETATM   20  C   UNL     1      -1.843   4.797 -33.372  1.00  0.00     0.171 C 
HETATM   21  C   UNL     1      -1.884   5.063 -34.868  1.00  0.00     0.034 C 
ENDBRANCH  19  20
ENDBRANCH   1  19
BRANCH   2  22
HETATM   22  O   UNL     1      -4.796   1.951 -31.830  1.00  0.00    -0.344 OA
BRANCH  22  23
HETATM   23  C   UNL     1      -5.715   1.806 -32.917  1.00  0.00     0.214 C 
BRANCH  23  24
HETATM   24  C   UNL     1      -5.624   0.390 -33.430  1.00  0.00    -0.034 A 
HETATM   25  C   UNL     1      -6.693  -0.177 -34.140  1.00  0.00     0.009 A 
HETATM   26  C   UNL     1      -6.614  -1.489 -34.610  1.00  0.00     0.001 A 
HETATM   27  C   UNL     1      -5.470  -2.249 -34.369  1.00  0.00     0.000 A 
HETATM   28  C   UNL     1      -4.409  -1.701 -33.651  1.00  0.00     0.001 A 
HETATM   29  C   UNL     1      -4.485  -0.389 -33.180  1.00  0.00     0.009 A 
ENDBRANCH  23  24
ENDBRANCH  22  23
ENDBRANCH   2  22
TORSDOF 6
ENDMDL
MODEL 10
REMARK VINA RESULT:      -7.6      2.940      4.844
REMARK  6 active torsions:
REMARK  status: ('A' for Active; 'I' for Inactive)
REMARK    1  A    between atoms: C_2  and  O_3 
REMARK    2  A    between atoms: O_3  and  C_4 
REMARK    3  A    between atoms: C_5  and  O_6 
REMARK    4  A    between atoms: O_6  and  C_7 
REMARK    5  A    between atoms: C_7  and  C_8 
REMARK    6  A    between atoms: C_16  and  C_17 
ROOT
HETATM    1  C   UNL     1      -6.903   1.469 -31.843  1.00  0.00     0.102 A 
HETATM    2  C   UNL     1      -6.430   1.087 -33.104  1.00  0.00     0.102 A 
HETATM    3  C   UNL     1      -6.553   1.976 -34.181  1.00  0.00     0.040 A 
HETATM    4  C   UNL     1      -7.082   3.255 -33.999  1.00  0.00     0.014 A 
HETATM    5  C   UNL     1      -7.499   3.687 -32.734  1.00  0.00    -0.007 A 
HETATM    6  C   UNL     1      -7.422   2.766 -31.676  1.00  0.00     0.051 A 
ENDROOT
BRANCH   5   7
HETATM    7  C   UNL     1      -8.092   5.082 -32.550  1.00  0.00     0.264 C 
HETATM    8  O   UNL     1      -9.253   5.066 -31.701  1.00  0.00    -0.321 OA
HETATM    9  C   UNL     1     -10.404   4.694 -32.346  1.00  0.00     0.087 A 
HETATM   10  C   UNL     1     -10.588   4.867 -33.717  1.00  0.00     0.065 A 
HETATM   11  C   UNL     1     -11.427   4.151 -31.572  1.00  0.00     0.038 A 
HETATM   12  C   UNL     1      -9.515   5.523 -34.481  1.00  0.00     0.256 C 
HETATM   13  C   UNL     1     -11.779   4.476 -34.330  1.00  0.00     0.020 A 
HETATM   14  O   UNL     1      -9.641   5.842 -35.656  1.00  0.00    -0.267 OA
HETATM   15  N   UNL     1      -8.374   5.778 -33.777  1.00  0.00    -0.326 N 
HETATM   16  H   UNL     1      -7.611   6.160 -34.316  1.00  0.00     0.165 HD
HETATM   17  C   UNL     1     -12.794   3.910 -33.557  1.00  0.00     0.001 A 
HETATM   18  C   UNL     1     -12.619   3.752 -32.180  1.00  0.00     0.003 A 
ENDBRANCH   5   7
BRANCH   1  19
HETATM   19  O   UNL     1      -6.939   0.754 -30.677  1.00  0.00    -0.349 OA
BRANCH  19  20
HETATM   20  C   UNL     1      -5.858   0.791 -29.752  1.00  0.00     0.171 C 
HETATM   21  C   UNL     1      -4.520   0.923 -30.460  1.00  0.00     0.034 C 
ENDBRANCH  19  20
ENDBRANCH   1  19
BRANCH   2  22
HETATM   22  O   UNL     1      -5.920  -0.167 -33.305  1.00  0.00    -0.344 OA
BRANCH  22  23
HETATM   23  C   UNL     1      -6.292  -0.755 -34.555  1.00  0.00     0.214 C 
BRANCH  23  24
HETATM   24  C   UNL     1      -5.870  -2.204 -34.541  1.00  0.00    -0.034 A 
HETATM   25  C   UNL     1      -6.788  -3.213 -34.868  1.00  0.00     0.009 A 
HETATM   26  C   UNL     1      -6.402  -4.554 -34.850  1.00  0.00     0.001 A 
HETATM   27  C   UNL     1      -5.098  -4.900 -34.499  1.00  0.00     0.000 A 
HETATM   28  C   UNL     1      -4.182  -3.907 -34.159  1.00  0.00     0.001 A 
HETATM   29  C   UNL     1      -4.566  -2.565 -34.176  1.00  0.00     0.009 A 
ENDBRANCH  23  24
ENDBRANCH  22  23
ENDBRANCH   2  22
TORSDOF 6
ENDMDL
