MODEL 1
REMARK VINA RESULT:      -9.8      0.000      0.000
REMARK  5 active torsions:
REMARK  status: ('A' for Active; 'I' for Inactive)
REMARK    1  A    between atoms: C_4  and  N_5 
REMARK    2  A    between atoms: C_7  and  C_8 
REMARK       I    between atoms: C_8  and  N_9 
REMARK    3  A    between atoms: N_9  and  N_10 
REMARK       I    between atoms: N_10  and  C_11 
REMARK    4  A    between atoms: C_11  and  C_12 
REMARK    5  A    between atoms: C_16  and  C_17 
ROOT
HETATM    1  C   UNL     1      -1.944   4.457 -31.902  1.00  0.00     0.286 C 
HETATM    2  N   UNL     1      -2.634   3.482 -31.220  1.00  0.00    -0.262 N 
HETATM    3  O   UNL     1      -1.838   4.499 -33.122  1.00  0.00    -0.264 OA
HETATM    4  H   UNL     1      -2.712   3.460 -30.203  1.00  0.00     0.190 HD
ENDROOT
BRANCH   2   5
HETATM    5  N   UNL     1      -3.269   2.496 -31.980  1.00  0.00    -0.262 N 
HETATM    6  C   UNL     1      -4.585   2.162 -31.747  1.00  0.00     0.288 C 
HETATM    7  O   UNL     1      -5.278   2.743 -30.916  1.00  0.00    -0.264 OA
HETATM    8  H   UNL     1      -2.681   1.986 -32.633  1.00  0.00     0.190 HD
BRANCH   6   9
HETATM    9  C   UNL     1      -5.079   1.081 -32.561  1.00  0.00     0.121 A 
HETATM   10  N   UNL     1      -6.055   1.258 -33.500  1.00  0.00    -0.272 N 
HETATM   11  H   UNL     1      -6.535   2.124 -33.728  1.00  0.00     0.189 HD
HETATM   12  N   UNL     1      -6.375   0.144 -34.178  1.00  0.00    -0.174 NA
HETATM   13  C   UNL     1      -5.597  -0.814 -33.649  1.00  0.00     0.089 A 
HETATM   14  C   UNL     1      -4.767  -0.263 -32.635  1.00  0.00     0.071 A 
BRANCH  13  15
HETATM   15  C   UNL     1      -5.643  -2.205 -34.114  1.00  0.00    -0.006 A 
HETATM   16  C   UNL     1      -4.505  -3.022 -34.031  1.00  0.00     0.014 A 
HETATM   17  C   UNL     1      -4.549  -4.354 -34.451  1.00  0.00     0.001 A 
HETATM   18  C   UNL     1      -5.729  -4.885 -34.967  1.00  0.00     0.000 A 
HETATM   19  C   UNL     1      -6.865  -4.086 -35.065  1.00  0.00     0.001 A 
HETATM   20  C   UNL     1      -6.823  -2.753 -34.641  1.00  0.00     0.014 A 
ENDBRANCH  13  15
ENDBRANCH   6   9
ENDBRANCH   2   5
BRANCH   1  21
HETATM   21  C   UNL     1      -1.302   5.532 -31.041  1.00  0.00     0.125 C 
HETATM   22  N   UNL     1      -2.053   6.437 -30.488  1.00  0.00    -0.164 NA
HETATM   23  N   UNL     1      -1.446   7.405 -29.694  1.00  0.00    -0.200 N 
HETATM   24  C   UNL     1      -0.054   7.526 -29.562  1.00  0.00     0.245 C 
HETATM   25  C   UNL     1       0.721   6.821 -30.642  1.00  0.00     0.111 C 
HETATM   26  O   UNL     1       0.548   8.155 -28.694  1.00  0.00    -0.271 OA
HETATM   27  C   UNL     1       0.178   5.431 -30.835  1.00  0.00     0.076 C 
BRANCH  23  28
HETATM   28  C   UNL     1      -2.366   8.200 -28.933  1.00  0.00     0.068 A 
HETATM   29  C   UNL     1      -2.840   7.681 -27.709  1.00  0.00     0.039 A 
HETATM   30  C   UNL     1      -3.688   8.417 -26.869  1.00  0.00    -0.060 A 
HETATM   31  C   UNL     1      -4.120   7.870 -25.541  1.00  0.00     0.048 C 
HETATM   32  C   UNL     1      -4.071   9.699 -27.254  1.00  0.00     0.007 A 
HETATM   33  C   UNL     1      -3.653  10.215 -28.480  1.00  0.00     0.009 A 
HETATM   34  C   UNL     1      -2.828   9.469 -29.345  1.00  0.00    -0.033 A 
HETATM   35  C   UNL     1      -2.543  10.083 -30.691  1.00  0.00     0.050 C 
ENDBRANCH  23  28
ENDBRANCH   1  21
TORSDOF 5
ENDMDL
MODEL 2
REMARK VINA RESULT:      -9.7      2.335     11.027
REMARK  5 active torsions:
REMARK  status: ('A' for Active; 'I' for Inactive)
REMARK    1  A    between atoms: C_4  and  N_5 
REMARK    2  A    between atoms: C_7  and  C_8 
REMARK       I    between atoms: C_8  and  N_9 
REMARK    3  A    between atoms: N_9  and  N_10 
REMARK       I    between atoms: N_10  and  C_11 
REMARK    4  A    between atoms: C_11  and  C_12 
REMARK    5  A    between atoms: C_16  and  C_17 
ROOT
HETATM    1  C   UNL     1      -5.378   3.566 -30.481  1.00  0.00     0.286 C 
HETATM    2  N   UNL     1      -4.224   3.740 -31.210  1.00  0.00    -0.262 N 
HETATM    3  O   UNL     1      -5.636   4.170 -29.447  1.00  0.00    -0.264 OA
HETATM    4  H   UNL     1      -4.023   3.229 -32.070  1.00  0.00     0.190 HD
ENDROOT
BRANCH   2   5
HETATM    5  N   UNL     1      -3.307   4.685 -30.742  1.00  0.00    -0.262 N 
HETATM    6  C   UNL     1      -2.079   4.840 -31.348  1.00  0.00     0.288 C 
HETATM    7  O   UNL     1      -1.753   4.210 -32.351  1.00  0.00    -0.264 OA
HETATM    8  H   UNL     1      -3.562   5.170 -29.886  1.00  0.00     0.190 HD
BRANCH   6   9
HETATM    9  C   UNL     1      -1.217   5.802 -30.711  1.00  0.00     0.121 A 
HETATM   10  N   UNL     1       0.008   6.135 -31.216  1.00  0.00    -0.272 N 
HETATM   11  H   UNL     1       0.446   5.763 -32.054  1.00  0.00     0.189 HD
HETATM   12  N   UNL     1       0.663   7.064 -30.503  1.00  0.00    -0.174 NA
HETATM   13  C   UNL     1      -0.149   7.339 -29.470  1.00  0.00     0.089 A 
HETATM   14  C   UNL     1      -1.341   6.570 -29.570  1.00  0.00     0.071 A 
BRANCH  13  15
HETATM   15  C   UNL     1       0.204   8.317 -28.434  1.00  0.00    -0.006 A 
HETATM   16  C   UNL     1      -0.703   9.321 -28.064  1.00  0.00     0.014 A 
HETATM   17  C   UNL     1      -0.381  10.241 -27.062  1.00  0.00     0.001 A 
HETATM   18  C   UNL     1       0.855  10.173 -26.423  1.00  0.00     0.000 A 
HETATM   19  C   UNL     1       1.770   9.188 -26.785  1.00  0.00     0.001 A 
HETATM   20  C   UNL     1       1.447   8.265 -27.785  1.00  0.00     0.014 A 
ENDBRANCH  13  15
ENDBRANCH   6   9
ENDBRANCH   2   5
BRANCH   1  21
HETATM   21  C   UNL     1      -6.366   2.559 -31.046  1.00  0.00     0.125 C 
HETATM   22  N   UNL     1      -5.956   1.683 -31.913  1.00  0.00    -0.164 NA
HETATM   23  N   UNL     1      -6.875   0.763 -32.409  1.00  0.00    -0.200 N 
HETATM   24  C   UNL     1      -8.245   0.812 -32.111  1.00  0.00     0.245 C 
HETATM   25  C   UNL     1      -8.703   2.142 -31.575  1.00  0.00     0.111 C 
HETATM   26  O   UNL     1      -9.064  -0.091 -32.275  1.00  0.00    -0.271 OA
HETATM   27  C   UNL     1      -7.760   2.609 -30.499  1.00  0.00     0.076 C 
BRANCH  23  28
HETATM   28  C   UNL     1      -6.286  -0.308 -33.160  1.00  0.00     0.068 A 
HETATM   29  C   UNL     1      -5.222  -1.025 -32.573  1.00  0.00     0.039 A 
HETATM   30  C   UNL     1      -4.631  -2.128 -33.207  1.00  0.00    -0.060 A 
HETATM   31  C   UNL     1      -3.550  -2.918 -32.530  1.00  0.00     0.048 C 
HETATM   32  C   UNL     1      -5.113  -2.527 -34.452  1.00  0.00     0.007 A 
HETATM   33  C   UNL     1      -6.131  -1.805 -35.071  1.00  0.00     0.009 A 
HETATM   34  C   UNL     1      -6.707  -0.676 -34.456  1.00  0.00    -0.033 A 
HETATM   35  C   UNL     1      -7.712   0.092 -35.275  1.00  0.00     0.050 C 
ENDBRANCH  23  28
ENDBRANCH   1  21
TORSDOF 5
ENDMDL
MODEL 3
REMARK VINA RESULT:      -9.6      2.132     11.414
REMARK  5 active torsions:
REMARK  status: ('A' for Active; 'I' for Inactive)
REMARK    1  A    between atoms: C_4  and  N_5 
REMARK    2  A    between atoms: C_7  and  C_8 
REMARK       I    between atoms: C_8  and  N_9 
REMARK    3  A    between atoms: N_9  and  N_10 
REMARK       I    between atoms: N_10  and  C_11 
REMARK    4  A    between atoms: C_11  and  C_12 
REMARK    5  A    between atoms: C_16  and  C_17 
ROOT
HETATM    1  C   UNL     1      -4.516   2.581 -31.554  1.00  0.00     0.286 C 
HETATM    2  N   UNL     1      -3.407   3.237 -32.037  1.00  0.00    -0.262 N 
HETATM    3  O   UNL     1      -4.896   2.639 -30.391  1.00  0.00    -0.264 OA
HETATM    4  H   UNL     1      -3.102   3.179 -33.010  1.00  0.00     0.190 HD
ENDROOT
BRANCH   2   5
HETATM    5  N   UNL     1      -2.692   4.036 -31.140  1.00  0.00    -0.262 N 
HETATM    6  C   UNL     1      -1.624   4.795 -31.564  1.00  0.00     0.288 C 
HETATM    7  O   UNL     1      -1.284   4.858 -32.743  1.00  0.00    -0.264 OA
HETATM    8  H   UNL     1      -2.947   3.945 -30.160  1.00  0.00     0.190 HD
BRANCH   6   9
HETATM    9  C   UNL     1      -0.945   5.509 -30.514  1.00  0.00     0.121 A 
HETATM   10  N   UNL     1      -0.018   4.914 -29.705  1.00  0.00    -0.272 N 
HETATM   11  H   UNL     1       0.289   3.946 -29.734  1.00  0.00     0.189 HD
HETATM   12  N   UNL     1       0.527   5.738 -28.796  1.00  0.00    -0.174 NA
HETATM   13  C   UNL     1      -0.081   6.917 -28.994  1.00  0.00     0.089 A 
HETATM   14  C   UNL     1      -1.008   6.814 -30.067  1.00  0.00     0.071 A 
BRANCH  13  15
HETATM   15  C   UNL     1       0.230   8.104 -28.188  1.00  0.00    -0.006 A 
HETATM   16  C   UNL     1      -0.730   9.111 -28.002  1.00  0.00     0.014 A 
HETATM   17  C   UNL     1      -0.447  10.232 -27.217  1.00  0.00     0.001 A 
HETATM   18  C   UNL     1       0.802  10.365 -26.615  1.00  0.00     0.000 A 
HETATM   19  C   UNL     1       1.769   9.380 -26.796  1.00  0.00     0.001 A 
HETATM   20  C   UNL     1       1.485   8.256 -27.578  1.00  0.00     0.014 A 
ENDBRANCH  13  15
ENDBRANCH   6   9
ENDBRANCH   2   5
BRANCH   1  21
HETATM   21  C   UNL     1      -5.287   1.757 -32.571  1.00  0.00     0.125 C 
HETATM   22  N   UNL     1      -4.879   0.557 -32.858  1.00  0.00    -0.164 NA
HETATM   23  N   UNL     1      -5.607  -0.185 -33.784  1.00  0.00    -0.200 N 
HETATM   24  C   UNL     1      -6.685   0.342 -34.511  1.00  0.00     0.245 C 
HETATM   25  C   UNL     1      -6.728   1.847 -34.528  1.00  0.00     0.111 C 
HETATM   26  O   UNL     1      -7.535  -0.296 -35.129  1.00  0.00    -0.271 OA
HETATM   27  C   UNL     1      -6.529   2.377 -33.134  1.00  0.00     0.076 C 
BRANCH  23  28
HETATM   28  C   UNL     1      -5.233  -1.568 -33.851  1.00  0.00     0.068 A 
HETATM   29  C   UNL     1      -6.047  -2.441 -34.604  1.00  0.00     0.039 A 
HETATM   30  C   UNL     1      -5.721  -3.794 -34.778  1.00  0.00    -0.060 A 
HETATM   31  C   UNL     1      -6.564  -4.684 -35.643  1.00  0.00     0.048 C 
HETATM   32  C   UNL     1      -4.558  -4.288 -34.193  1.00  0.00     0.007 A 
HETATM   33  C   UNL     1      -3.764  -3.455 -33.406  1.00  0.00     0.009 A 
HETATM   34  C   UNL     1      -4.101  -2.103 -33.198  1.00  0.00    -0.033 A 
HETATM   35  C   UNL     1      -3.235  -1.339 -32.232  1.00  0.00     0.050 C 
ENDBRANCH  23  28
ENDBRANCH   1  21
TORSDOF 5
ENDMDL
MODEL 4
REMARK VINA RESULT:      -9.6      1.784      2.401
REMARK  5 active torsions:
REMARK  status: ('A' for Active; 'I' for Inactive)
REMARK    1  A    between atoms: C_4  and  N_5 
REMARK    2  A    between atoms: C_7  and  C_8 
REMARK       I    between atoms: C_8  and  N_9 
REMARK    3  A    between atoms: N_9  and  N_10 
REMARK       I    between atoms: N_10  and  C_11 
REMARK    4  A    between atoms: C_11  and  C_12 
REMARK    5  A    between atoms: C_16  and  C_17 
ROOT
HETATM    1  C   UNL     1      -1.868   4.936 -31.148  1.00  0.00     0.286 C 
HETATM    2  N   UNL     1      -3.002   4.197 -30.902  1.00  0.00    -0.262 N 
HETATM    3  O   UNL     1      -0.845   4.481 -31.645  1.00  0.00    -0.264 OA
HETATM    4  H   UNL     1      -3.848   4.591 -30.486  1.00  0.00     0.190 HD
ENDROOT
BRANCH   2   5
HETATM    5  N   UNL     1      -2.981   2.849 -31.267  1.00  0.00    -0.262 N 
HETATM    6  C   UNL     1      -4.007   2.298 -32.004  1.00  0.00     0.288 C 
HETATM    7  O   UNL     1      -4.950   2.965 -32.424  1.00  0.00    -0.264 OA
HETATM    8  H   UNL     1      -2.225   2.292 -30.879  1.00  0.00     0.190 HD
BRANCH   6   9
HETATM    9  C   UNL     1      -3.879   0.884 -32.242  1.00  0.00     0.121 A 
HETATM   10  N   UNL     1      -2.945   0.116 -31.606  1.00  0.00    -0.272 N 
HETATM   11  H   UNL     1      -2.256   0.427 -30.928  1.00  0.00     0.189 HD
HETATM   12  N   UNL     1      -2.985  -1.185 -31.936  1.00  0.00    -0.174 NA
HETATM   13  C   UNL     1      -3.968  -1.277 -32.846  1.00  0.00     0.089 A 
HETATM   14  C   UNL     1      -4.555   0.000 -33.060  1.00  0.00     0.071 A 
BRANCH  13  15
HETATM   15  C   UNL     1      -4.337  -2.551 -33.474  1.00  0.00    -0.006 A 
HETATM   16  C   UNL     1      -3.616  -3.721 -33.190  1.00  0.00     0.014 A 
HETATM   17  C   UNL     1      -3.977  -4.941 -33.769  1.00  0.00     0.001 A 
HETATM   18  C   UNL     1      -5.059  -5.006 -34.644  1.00  0.00     0.000 A 
HETATM   19  C   UNL     1      -5.779  -3.853 -34.943  1.00  0.00     0.001 A 
HETATM   20  C   UNL     1      -5.421  -2.632 -34.362  1.00  0.00     0.014 A 
ENDBRANCH  13  15
ENDBRANCH   6   9
ENDBRANCH   2   5
BRANCH   1  21
HETATM   21  C   UNL     1      -1.948   6.407 -30.773  1.00  0.00     0.125 C 
HETATM   22  N   UNL     1      -1.864   6.750 -29.523  1.00  0.00    -0.164 NA
HETATM   23  N   UNL     1      -1.927   8.103 -29.203  1.00  0.00    -0.200 N 
HETATM   24  C   UNL     1      -2.199   9.102 -30.149  1.00  0.00     0.245 C 
HETATM   25  C   UNL     1      -2.819   8.583 -31.419  1.00  0.00     0.111 C 
HETATM   26  O   UNL     1      -2.009  10.310 -30.015  1.00  0.00    -0.271 OA
HETATM   27  C   UNL     1      -2.054   7.382 -31.905  1.00  0.00     0.076 C 
BRANCH  23  28
HETATM   28  C   UNL     1      -1.579   8.400 -27.843  1.00  0.00     0.068 A 
HETATM   29  C   UNL     1      -2.624   8.664 -26.932  1.00  0.00     0.039 A 
HETATM   30  C   UNL     1      -2.379   8.899 -25.571  1.00  0.00    -0.060 A 
HETATM   31  C   UNL     1      -3.512   9.105 -24.609  1.00  0.00     0.048 C 
HETATM   32  C   UNL     1      -1.066   8.868 -25.107  1.00  0.00     0.007 A 
HETATM   33  C   UNL     1      -0.015   8.656 -25.997  1.00  0.00     0.009 A 
HETATM   34  C   UNL     1      -0.249   8.452 -27.371  1.00  0.00    -0.033 A 
HETATM   35  C   UNL     1       0.971   8.356 -28.250  1.00  0.00     0.050 C 
ENDBRANCH  23  28
ENDBRANCH   1  21
TORSDOF 5
ENDMDL
MODEL 5
REMARK VINA RESULT:      -9.5      1.964      2.938
REMARK  5 active torsions:
REMARK  status: ('A' for Active; 'I' for Inactive)
REMARK    1  A    between atoms: C_4  and  N_5 
REMARK    2  A    between atoms: C_7  and  C_8 
REMARK       I    between atoms: C_8  and  N_9 
REMARK    3  A    between atoms: N_9  and  N_10 
REMARK       I    between atoms: N_10  and  C_11 
REMARK    4  A    between atoms: C_11  and  C_12 
REMARK    5  A    between atoms: C_16  and  C_17 
ROOT
HETATM    1  C   UNL     1      -3.727   4.566 -31.830  1.00  0.00     0.286 C 
HETATM    2  N   UNL     1      -4.872   4.355 -32.562  1.00  0.00    -0.262 N 
HETATM    3  O   UNL     1      -2.911   3.692 -31.563  1.00  0.00    -0.264 OA
HETATM    4  H   UNL     1      -5.543   5.094 -32.776  1.00  0.00     0.190 HD
ENDROOT
BRANCH   2   5
HETATM    5  N   UNL     1      -5.096   3.063 -33.046  1.00  0.00    -0.262 N 
HETATM    6  C   UNL     1      -6.286   2.731 -33.653  1.00  0.00     0.288 C 
HETATM    7  O   UNL     1      -7.178   3.552 -33.854  1.00  0.00    -0.264 OA
HETATM    8  H   UNL     1      -4.376   2.377 -32.836  1.00  0.00     0.190 HD
BRANCH   6   9
HETATM    9  C   UNL     1      -6.395   1.347 -34.035  1.00  0.00     0.121 A 
HETATM   10  N   UNL     1      -7.379   0.892 -34.868  1.00  0.00    -0.272 N 
HETATM   11  H   UNL     1      -8.120   1.438 -35.294  1.00  0.00     0.189 HD
HETATM   12  N   UNL     1      -7.312  -0.423 -35.131  1.00  0.00    -0.174 NA
HETATM   13  C   UNL     1      -6.258  -0.861 -34.425  1.00  0.00     0.089 A 
HETATM   14  C   UNL     1      -5.654   0.222 -33.728  1.00  0.00     0.071 A 
BRANCH  13  15
HETATM   15  C   UNL     1      -5.839  -2.267 -34.432  1.00  0.00    -0.006 A 
HETATM   16  C   UNL     1      -6.737  -3.276 -34.811  1.00  0.00     0.014 A 
HETATM   17  C   UNL     1      -6.337  -4.615 -34.841  1.00  0.00     0.001 A 
HETATM   18  C   UNL     1      -5.035  -4.963 -34.486  1.00  0.00     0.000 A 
HETATM   19  C   UNL     1      -4.134  -3.975 -34.100  1.00  0.00     0.001 A 
HETATM   20  C   UNL     1      -4.533  -2.635 -34.072  1.00  0.00     0.014 A 
ENDBRANCH  13  15
ENDBRANCH   6   9
ENDBRANCH   2   5
BRANCH   1  21
HETATM   21  C   UNL     1      -3.502   5.993 -31.358  1.00  0.00     0.125 C 
HETATM   22  N   UNL     1      -2.658   6.219 -30.396  1.00  0.00    -0.164 NA
HETATM   23  N   UNL     1      -2.458   7.534 -29.987  1.00  0.00    -0.200 N 
HETATM   24  C   UNL     1      -3.212   8.612 -30.477  1.00  0.00     0.245 C 
HETATM   25  C   UNL     1      -4.499   8.200 -31.141  1.00  0.00     0.111 C 
HETATM   26  O   UNL     1      -2.932   9.806 -30.383  1.00  0.00    -0.271 OA
HETATM   27  C   UNL     1      -4.239   7.067 -32.097  1.00  0.00     0.076 C 
BRANCH  23  28
HETATM   28  C   UNL     1      -1.341   7.712 -29.106  1.00  0.00     0.068 A 
HETATM   29  C   UNL     1      -1.587   8.230 -27.817  1.00  0.00     0.039 A 
HETATM   30  C   UNL     1      -0.564   8.374 -26.867  1.00  0.00    -0.060 A 
HETATM   31  C   UNL     1      -0.864   8.860 -25.480  1.00  0.00     0.048 C 
HETATM   32  C   UNL     1       0.731   7.990 -27.208  1.00  0.00     0.007 A 
HETATM   33  C   UNL     1       1.005   7.519 -28.491  1.00  0.00     0.009 A 
HETATM   34  C   UNL     1      -0.010   7.403 -29.461  1.00  0.00    -0.033 A 
HETATM   35  C   UNL     1       0.431   6.999 -30.844  1.00  0.00     0.050 C 
ENDBRANCH  23  28
ENDBRANCH   1  21
TORSDOF 5
ENDMDL
MODEL 6
REMARK VINA RESULT:      -9.1      1.927      2.898
REMARK  5 active torsions:
REMARK  status: ('A' for Active; 'I' for Inactive)
REMARK    1  A    between atoms: C_4  and  N_5 
REMARK    2  A    between atoms: C_7  and  C_8 
REMARK       I    between atoms: C_8  and  N_9 
REMARK    3  A    between atoms: N_9  and  N_10 
REMARK       I    between atoms: N_10  and  C_11 
REMARK    4  A    between atoms: C_11  and  C_12 
REMARK    5  A    between atoms: C_16  and  C_17 
ROOT
HETATM    1  C   UNL     1      -4.283   5.619 -31.147  1.00  0.00     0.286 C 
HETATM    2  N   UNL     1      -3.617   4.526 -30.642  1.00  0.00    -0.262 N 
HETATM    3  O   UNL     1      -5.277   5.549 -31.859  1.00  0.00    -0.264 OA
HETATM    4  H   UNL     1      -2.789   4.601 -30.049  1.00  0.00     0.190 HD
ENDROOT
BRANCH   2   5
HETATM    5  N   UNL     1      -4.130   3.263 -30.949  1.00  0.00    -0.262 N 
HETATM    6  C   UNL     1      -3.606   2.519 -31.983  1.00  0.00     0.288 C 
HETATM    7  O   UNL     1      -2.637   2.891 -32.641  1.00  0.00    -0.264 OA
HETATM    8  H   UNL     1      -4.959   2.980 -30.434  1.00  0.00     0.190 HD
BRANCH   6   9
HETATM    9  C   UNL     1      -4.284   1.271 -32.223  1.00  0.00     0.121 A 
HETATM   10  N   UNL     1      -5.364   0.872 -31.489  1.00  0.00    -0.272 N 
HETATM   11  H   UNL     1      -5.799   1.371 -30.719  1.00  0.00     0.189 HD
HETATM   12  N   UNL     1      -5.880  -0.309 -31.867  1.00  0.00    -0.174 NA
HETATM   13  C   UNL     1      -5.094  -0.719 -32.875  1.00  0.00     0.089 A 
HETATM   14  C   UNL     1      -4.084   0.249 -33.131  1.00  0.00     0.071 A 
BRANCH  13  15
HETATM   15  C   UNL     1      -5.318  -1.989 -33.576  1.00  0.00    -0.006 A 
HETATM   16  C   UNL     1      -4.281  -2.926 -33.700  1.00  0.00     0.014 A 
HETATM   17  C   UNL     1      -4.494  -4.147 -34.346  1.00  0.00     0.001 A 
HETATM   18  C   UNL     1      -5.745  -4.443 -34.884  1.00  0.00     0.000 A 
HETATM   19  C   UNL     1      -6.782  -3.520 -34.778  1.00  0.00     0.001 A 
HETATM   20  C   UNL     1      -6.570  -2.300 -34.128  1.00  0.00     0.014 A 
ENDBRANCH  13  15
ENDBRANCH   6   9
ENDBRANCH   2   5
BRANCH   1  21
HETATM   21  C   UNL     1      -3.716   6.973 -30.755  1.00  0.00     0.125 C 
HETATM   22  N   UNL     1      -2.825   7.041 -29.812  1.00  0.00    -0.164 NA
HETATM   23  N   UNL     1      -2.311   8.290 -29.477  1.00  0.00    -0.200 N 
HETATM   24  C   UNL     1      -2.795   9.490 -30.022  1.00  0.00     0.245 C 
HETATM   25  C   UNL     1      -4.155   9.363 -30.655  1.00  0.00     0.111 C 
HETATM   26  O   UNL     1      -2.237  10.585 -29.995  1.00  0.00    -0.271 OA
HETATM   27  C   UNL     1      -4.189   8.153 -31.548  1.00  0.00     0.076 C 
BRANCH  23  28
HETATM   28  C   UNL     1      -1.167   8.241 -28.613  1.00  0.00     0.068 A 
HETATM   29  C   UNL     1      -1.276   8.825 -27.333  1.00  0.00     0.039 A 
HETATM   30  C   UNL     1      -0.231   8.765 -26.399  1.00  0.00    -0.060 A 
HETATM   31  C   UNL     1      -0.398   9.331 -25.019  1.00  0.00     0.048 C 
HETATM   32  C   UNL     1       0.946   8.106 -26.745  1.00  0.00     0.007 A 
HETATM   33  C   UNL     1       1.093   7.563 -28.021  1.00  0.00     0.009 A 
HETATM   34  C   UNL     1       0.061   7.648 -28.976  1.00  0.00    -0.033 A 
HETATM   35  C   UNL     1       0.383   7.132 -30.355  1.00  0.00     0.050 C 
ENDBRANCH  23  28
ENDBRANCH   1  21
TORSDOF 5
ENDMDL
MODEL 7
REMARK VINA RESULT:      -9.0      1.687      2.428
REMARK  5 active torsions:
REMARK  status: ('A' for Active; 'I' for Inactive)
REMARK    1  A    between atoms: C_4  and  N_5 
REMARK    2  A    between atoms: C_7  and  C_8 
REMARK       I    between atoms: C_8  and  N_9 
REMARK    3  A    between atoms: N_9  and  N_10 
REMARK       I    between atoms: N_10  and  C_11 
REMARK    4  A    between atoms: C_11  and  C_12 
REMARK    5  A    between atoms: C_16  and  C_17 
ROOT
HETATM    1  C   UNL     1      -4.283   5.134 -30.744  1.00  0.00     0.286 C 
HETATM    2  N   UNL     1      -3.751   4.577 -31.884  1.00  0.00    -0.262 N 
HETATM    3  O   UNL     1      -5.247   4.677 -30.141  1.00  0.00    -0.264 OA
HETATM    4  H   UNL     1      -2.947   4.971 -32.376  1.00  0.00     0.190 HD
ENDROOT
BRANCH   2   5
HETATM    5  N   UNL     1      -4.341   3.404 -32.361  1.00  0.00    -0.262 N 
HETATM    6  C   UNL     1      -3.838   2.168 -32.018  1.00  0.00     0.288 C 
HETATM    7  O   UNL     1      -2.896   2.030 -31.241  1.00  0.00    -0.264 OA
HETATM    8  H   UNL     1      -5.089   3.523 -33.039  1.00  0.00     0.190 HD
BRANCH   6   9
HETATM    9  C   UNL     1      -4.508   1.057 -32.642  1.00  0.00     0.121 A 
HETATM   10  N   UNL     1      -5.764   1.162 -33.170  1.00  0.00    -0.272 N 
HETATM   11  H   UNL     1      -6.355   1.988 -33.183  1.00  0.00     0.189 HD
HETATM   12  N   UNL     1      -6.221   0.031 -33.730  1.00  0.00    -0.174 NA
HETATM   13  C   UNL     1      -5.240  -0.865 -33.543  1.00  0.00     0.089 A 
HETATM   14  C   UNL     1      -4.146  -0.256 -32.868  1.00  0.00     0.071 A 
BRANCH  13  15
HETATM   15  C   UNL     1      -5.346  -2.253 -34.010  1.00  0.00    -0.006 A 
HETATM   16  C   UNL     1      -4.268  -3.139 -33.863  1.00  0.00     0.014 A 
HETATM   17  C   UNL     1      -4.371  -4.467 -34.285  1.00  0.00     0.001 A 
HETATM   18  C   UNL     1      -5.552  -4.924 -34.868  1.00  0.00     0.000 A 
HETATM   19  C   UNL     1      -6.628  -4.056 -35.029  1.00  0.00     0.001 A 
HETATM   20  C   UNL     1      -6.526  -2.728 -34.603  1.00  0.00     0.014 A 
ENDBRANCH  13  15
ENDBRANCH   6   9
ENDBRANCH   2   5
BRANCH   1  21
HETATM   21  C   UNL     1      -3.587   6.386 -30.237  1.00  0.00     0.125 C 
HETATM   22  N   UNL     1      -3.824   6.801 -29.029  1.00  0.00    -0.164 NA
HETATM   23  N   UNL     1      -3.166   7.943 -28.580  1.00  0.00    -0.200 N 
HETATM   24  C   UNL     1      -2.357   8.735 -29.408  1.00  0.00     0.245 C 
HETATM   25  C   UNL     1      -2.584   8.507 -30.879  1.00  0.00     0.111 C 
HETATM   26  O   UNL     1      -1.541   9.580 -29.044  1.00  0.00    -0.271 OA
HETATM   27  C   UNL     1      -2.604   7.030 -31.166  1.00  0.00     0.076 C 
BRANCH  23  28
HETATM   28  C   UNL     1      -3.296   8.179 -27.172  1.00  0.00     0.068 A 
HETATM   29  C   UNL     1      -4.333   9.030 -26.733  1.00  0.00     0.039 A 
HETATM   30  C   UNL     1      -4.574   9.264 -25.371  1.00  0.00    -0.060 A 
HETATM   31  C   UNL     1      -5.728  10.115 -24.929  1.00  0.00     0.048 C 
HETATM   32  C   UNL     1      -3.768   8.635 -24.426  1.00  0.00     0.007 A 
HETATM   33  C   UNL     1      -2.708   7.828 -24.837  1.00  0.00     0.009 A 
HETATM   34  C   UNL     1      -2.438   7.614 -26.203  1.00  0.00    -0.033 A 
HETATM   35  C   UNL     1      -1.196   6.824 -26.523  1.00  0.00     0.050 C 
ENDBRANCH  23  28
ENDBRANCH   1  21
TORSDOF 5
ENDMDL
MODEL 8
REMARK VINA RESULT:      -8.7      2.019      3.110
REMARK  5 active torsions:
REMARK  status: ('A' for Active; 'I' for Inactive)
REMARK    1  A    between atoms: C_4  and  N_5 
REMARK    2  A    between atoms: C_7  and  C_8 
REMARK       I    between atoms: C_8  and  N_9 
REMARK    3  A    between atoms: N_9  and  N_10 
REMARK       I    between atoms: N_10  and  C_11 
REMARK    4  A    between atoms: C_11  and  C_12 
REMARK    5  A    between atoms: C_16  and  C_17 
ROOT
HETATM    1  C   UNL     1      -4.453   5.443 -31.677  1.00  0.00     0.286 C 
HETATM    2  N   UNL     1      -5.573   4.664 -31.496  1.00  0.00    -0.262 N 
HETATM    3  O   UNL     1      -3.550   5.177 -32.462  1.00  0.00    -0.264 OA
HETATM    4  H   UNL     1      -6.317   4.898 -30.838  1.00  0.00     0.190 HD
ENDROOT
BRANCH   2   5
HETATM    5  N   UNL     1      -5.686   3.511 -32.279  1.00  0.00    -0.262 N 
HETATM    6  C   UNL     1      -6.138   2.329 -31.736  1.00  0.00     0.288 C 
HETATM    7  O   UNL     1      -6.517   2.238 -30.571  1.00  0.00    -0.264 OA
HETATM    8  H   UNL     1      -5.328   3.579 -33.228  1.00  0.00     0.190 HD
BRANCH   6   9
HETATM    9  C   UNL     1      -6.133   1.214 -32.648  1.00  0.00     0.121 A 
HETATM   10  N   UNL     1      -6.463   1.345 -33.967  1.00  0.00    -0.272 N 
HETATM   11  H   UNL     1      -6.745   2.195 -34.445  1.00  0.00     0.189 HD
HETATM   12  N   UNL     1      -6.383   0.204 -34.670  1.00  0.00    -0.174 NA
HETATM   13  C   UNL     1      -6.009  -0.724 -33.775  1.00  0.00     0.089 A 
HETATM   14  C   UNL     1      -5.838  -0.127 -32.496  1.00  0.00     0.071 A 
BRANCH  13  15
HETATM   15  C   UNL     1      -5.811  -2.131 -34.142  1.00  0.00    -0.006 A 
HETATM   16  C   UNL     1      -4.549  -2.731 -34.010  1.00  0.00     0.014 A 
HETATM   17  C   UNL     1      -4.359  -4.077 -34.337  1.00  0.00     0.001 A 
HETATM   18  C   UNL     1      -5.427  -4.838 -34.807  1.00  0.00     0.000 A 
HETATM   19  C   UNL     1      -6.683  -4.256 -34.953  1.00  0.00     0.001 A 
HETATM   20  C   UNL     1      -6.875  -2.910 -34.623  1.00  0.00     0.014 A 
ENDBRANCH  13  15
ENDBRANCH   6   9
ENDBRANCH   2   5
BRANCH   1  21
HETATM   21  C   UNL     1      -4.389   6.707 -30.837  1.00  0.00     0.125 C 
HETATM   22  N   UNL     1      -3.633   6.730 -29.780  1.00  0.00    -0.164 NA
HETATM   23  N   UNL     1      -3.580   7.902 -29.031  1.00  0.00    -0.200 N 
HETATM   24  C   UNL     1      -4.395   9.015 -29.290  1.00  0.00     0.245 C 
HETATM   25  C   UNL     1      -5.593   8.704 -30.146  1.00  0.00     0.111 C 
HETATM   26  O   UNL     1      -4.230  10.158 -28.868  1.00  0.00    -0.271 OA
HETATM   27  C   UNL     1      -5.170   7.884 -31.335  1.00  0.00     0.076 C 
BRANCH  23  28
HETATM   28  C   UNL     1      -2.543   7.918 -28.040  1.00  0.00     0.068 A 
HETATM   29  C   UNL     1      -1.208   8.052 -28.477  1.00  0.00     0.039 A 
HETATM   30  C   UNL     1      -0.138   8.144 -27.575  1.00  0.00    -0.060 A 
HETATM   31  C   UNL     1       1.264   8.358 -28.063  1.00  0.00     0.048 C 
HETATM   32  C   UNL     1      -0.403   8.104 -26.208  1.00  0.00     0.007 A 
HETATM   33  C   UNL     1      -1.709   7.925 -25.755  1.00  0.00     0.009 A 
HETATM   34  C   UNL     1      -2.785   7.799 -26.654  1.00  0.00    -0.033 A 
HETATM   35  C   UNL     1      -4.129   7.487 -26.048  1.00  0.00     0.050 C 
ENDBRANCH  23  28
ENDBRANCH   1  21
TORSDOF 5
ENDMDL
MODEL 9
REMARK VINA RESULT:      -8.7      7.358      9.168
REMARK  5 active torsions:
REMARK  status: ('A' for Active; 'I' for Inactive)
REMARK    1  A    between atoms: C_4  and  N_5 
REMARK    2  A    between atoms: C_7  and  C_8 
REMARK       I    between atoms: C_8  and  N_9 
REMARK    3  A    between atoms: N_9  and  N_10 
REMARK       I    between atoms: N_10  and  C_11 
REMARK    4  A    between atoms: C_11  and  C_12 
REMARK    5  A    between atoms: C_16  and  C_17 
ROOT
HETATM    1  C   UNL     1      -9.510   4.660 -34.342  1.00  0.00     0.286 C 
HETATM    2  N   UNL     1      -8.209   4.570 -33.904  1.00  0.00    -0.262 N 
HETATM    3  O   UNL     1     -10.189   3.699 -34.683  1.00  0.00    -0.264 OA
HETATM    4  H   UNL     1      -7.656   5.381 -33.623  1.00  0.00     0.190 HD
ENDROOT
BRANCH   2   5
HETATM    5  N   UNL     1      -7.645   3.293 -33.827  1.00  0.00    -0.262 N 
HETATM    6  C   UNL     1      -6.391   3.105 -33.290  1.00  0.00     0.288 C 
HETATM    7  O   UNL     1      -5.735   4.023 -32.804  1.00  0.00    -0.264 OA
HETATM    8  H   UNL     1      -8.171   2.545 -34.271  1.00  0.00     0.190 HD
BRANCH   6   9
HETATM    9  C   UNL     1      -5.917   1.746 -33.343  1.00  0.00     0.121 A 
HETATM   10  N   UNL     1      -4.770   1.346 -32.719  1.00  0.00    -0.272 N 
HETATM   11  H   UNL     1      -4.136   1.923 -32.175  1.00  0.00     0.189 HD
HETATM   12  N   UNL     1      -4.495   0.039 -32.858  1.00  0.00    -0.174 NA
HETATM   13  C   UNL     1      -5.487  -0.439 -33.626  1.00  0.00     0.089 A 
HETATM   14  C   UNL     1      -6.401   0.602 -33.945  1.00  0.00     0.071 A 
BRANCH  13  15
HETATM   15  C   UNL     1      -5.559  -1.850 -34.024  1.00  0.00    -0.006 A 
HETATM   16  C   UNL     1      -6.766  -2.402 -34.480  1.00  0.00     0.014 A 
HETATM   17  C   UNL     1      -6.834  -3.739 -34.882  1.00  0.00     0.001 A 
HETATM   18  C   UNL     1      -5.698  -4.543 -34.826  1.00  0.00     0.000 A 
HETATM   19  C   UNL     1      -4.495  -4.015 -34.367  1.00  0.00     0.001 A 
HETATM   20  C   UNL     1      -4.425  -2.676 -33.969  1.00  0.00     0.014 A 
ENDBRANCH  13  15
ENDBRANCH   6   9
ENDBRANCH   2   5
BRANCH   1  21
HETATM   21  C   UNL     1     -10.097   6.061 -34.373  1.00  0.00     0.125 C 
HETATM   22  N   UNL     1     -10.602   6.515 -35.481  1.00  0.00    -0.164 NA
HETATM   23  N   UNL     1     -11.145   7.797 -35.484  1.00  0.00    -0.200 N 
HETATM   24  C   UNL     1     -11.064   8.666 -34.385  1.00  0.00     0.245 C 
HETATM   25  C   UNL     1     -10.009   8.281 -33.383  1.00  0.00     0.111 C 
HETATM   26  O   UNL     1     -11.733   9.682 -34.203  1.00  0.00    -0.271 OA
HETATM   27  C   UNL     1     -10.111   6.811 -33.076  1.00  0.00     0.076 C 
BRANCH  23  28
HETATM   28  C   UNL     1     -11.893   8.114 -36.666  1.00  0.00     0.068 A 
HETATM   29  C   UNL     1     -11.303   8.974 -37.616  1.00  0.00     0.039 A 
HETATM   30  C   UNL     1     -11.934   9.285 -38.829  1.00  0.00    -0.060 A 
HETATM   31  C   UNL     1     -11.254  10.145 -39.853  1.00  0.00     0.048 C 
HETATM   32  C   UNL     1     -13.179   8.724 -39.104  1.00  0.00     0.007 A 
HETATM   33  C   UNL     1     -13.802   7.909 -38.161  1.00  0.00     0.009 A 
HETATM   34  C   UNL     1     -13.190   7.618 -36.926  1.00  0.00    -0.033 A 
HETATM   35  C   UNL     1     -14.012   6.828 -35.942  1.00  0.00     0.050 C 
ENDBRANCH  23  28
ENDBRANCH   1  21
TORSDOF 5
ENDMDL
MODEL 10
REMARK VINA RESULT:      -8.7      2.488      3.579
REMARK  5 active torsions:
REMARK  status: ('A' for Active; 'I' for Inactive)
REMARK    1  A    between atoms: C_4  and  N_5 
REMARK    2  A    between atoms: C_7  and  C_8 
REMARK       I    between atoms: C_8  and  N_9 
REMARK    3  A    between atoms: N_9  and  N_10 
REMARK       I    between atoms: N_10  and  C_11 
REMARK    4  A    between atoms: C_11  and  C_12 
REMARK    5  A    between atoms: C_16  and  C_17 
ROOT
HETATM    1  C   UNL     1      -5.686   4.880 -30.205  1.00  0.00     0.286 C 
HETATM    2  N   UNL     1      -4.528   4.154 -30.054  1.00  0.00    -0.262 N 
HETATM    3  O   UNL     1      -6.702   4.451 -30.739  1.00  0.00    -0.264 OA
HETATM    4  H   UNL     1      -3.688   4.526 -29.607  1.00  0.00     0.190 HD
ENDROOT
BRANCH   2   5
HETATM    5  N   UNL     1      -4.530   2.838 -30.523  1.00  0.00    -0.262 N 
HETATM    6  C   UNL     1      -3.495   2.360 -31.297  1.00  0.00     0.288 C 
HETATM    7  O   UNL     1      -2.502   3.034 -31.562  1.00  0.00    -0.264 OA
HETATM    8  H   UNL     1      -5.373   2.300 -30.341  1.00  0.00     0.190 HD
BRANCH   6   9
HETATM    9  C   UNL     1      -3.673   1.009 -31.762  1.00  0.00     0.121 A 
HETATM   10  N   UNL     1      -2.908  -0.029 -31.308  1.00  0.00    -0.272 N 
HETATM   11  H   UNL     1      -2.156   0.018 -30.628  1.00  0.00     0.189 HD
HETATM   12  N   UNL     1      -3.229  -1.221 -31.836  1.00  0.00    -0.174 NA
HETATM   13  C   UNL     1      -4.228  -0.958 -32.694  1.00  0.00     0.089 A 
HETATM   14  C   UNL     1      -4.537   0.430 -32.671  1.00  0.00     0.071 A 
BRANCH  13  15
HETATM   15  C   UNL     1      -4.870  -2.007 -33.494  1.00  0.00    -0.006 A 
HETATM   16  C   UNL     1      -6.166  -1.824 -34.001  1.00  0.00     0.014 A 
HETATM   17  C   UNL     1      -6.773  -2.811 -34.782  1.00  0.00     0.001 A 
HETATM   18  C   UNL     1      -6.095  -3.996 -35.061  1.00  0.00     0.000 A 
HETATM   19  C   UNL     1      -4.812  -4.197 -34.560  1.00  0.00     0.001 A 
HETATM   20  C   UNL     1      -4.203  -3.208 -33.780  1.00  0.00     0.014 A 
ENDBRANCH  13  15
ENDBRANCH   6   9
ENDBRANCH   2   5
BRANCH   1  21
HETATM   21  C   UNL     1      -5.654   6.293 -29.646  1.00  0.00     0.125 C 
HETATM   22  N   UNL     1      -4.762   6.604 -28.754  1.00  0.00    -0.164 NA
HETATM   23  N   UNL     1      -4.742   7.906 -28.264  1.00  0.00    -0.200 N 
HETATM   24  C   UNL     1      -5.715   8.863 -28.593  1.00  0.00     0.245 C 
HETATM   25  C   UNL     1      -6.978   8.274 -29.161  1.00  0.00     0.111 C 
HETATM   26  O   UNL     1      -5.630  10.079 -28.432  1.00  0.00    -0.271 OA
HETATM   27  C   UNL     1      -6.636   7.265 -30.224  1.00  0.00     0.076 C 
BRANCH  23  28
HETATM   28  C   UNL     1      -3.582   8.222 -27.482  1.00  0.00     0.068 A 
HETATM   29  C   UNL     1      -3.720   8.275 -26.079  1.00  0.00     0.039 A 
HETATM   30  C   UNL     1      -2.626   8.511 -25.234  1.00  0.00    -0.060 A 
HETATM   31  C   UNL     1      -2.786   8.491 -23.742  1.00  0.00     0.048 C 
HETATM   32  C   UNL     1      -1.366   8.693 -25.798  1.00  0.00     0.007 A 
HETATM   33  C   UNL     1      -1.214   8.691 -27.184  1.00  0.00     0.009 A 
HETATM   34  C   UNL     1      -2.313   8.488 -28.041  1.00  0.00    -0.033 A 
HETATM   35  C   UNL     1      -2.045   8.629 -29.516  1.00  0.00     0.050 C 
ENDBRANCH  23  28
ENDBRANCH   1  21
TORSDOF 5
ENDMDL
