MODEL 1
REMARK VINA RESULT:     -10.2      0.000      0.000
REMARK  6 active torsions:
REMARK  status: ('A' for Active; 'I' for Inactive)
REMARK    1  A    between atoms: C_2  and  C_3 
REMARK    2  A    between atoms: N_6  and  C_8 
REMARK    3  A    between atoms: C_8  and  C_9 
REMARK    4  A    between atoms: C_12  and  C_13 
REMARK    5  A    between atoms: C_13  and  O_14 
REMARK    6  A    between atoms: N_24  and  C_25 
ROOT
HETATM    1  C   UNL     1      -2.004   4.963 -35.018  1.00  0.00     0.049 C 
HETATM    2  C   UNL     1      -2.633   5.434 -33.706  1.00  0.00     0.116 A 
HETATM    3  N   UNL     1      -2.295   4.533 -32.632  1.00  0.00    -0.324 N 
HETATM    4  C   UNL     1      -1.453   5.119 -31.707  1.00  0.00     0.326 A 
HETATM    5  O   UNL     1      -0.990   4.482 -30.780  1.00  0.00    -0.247 OA
HETATM    6  N   UNL     1      -1.296   6.432 -32.019  1.00  0.00    -0.263 N 
HETATM    7  C   UNL     1      -1.884   6.696 -33.227  1.00  0.00     0.256 A 
HETATM    8  O   UNL     1      -1.870   7.758 -33.831  1.00  0.00    -0.270 OA
HETATM    9  H   UNL     1      -2.194   3.528 -32.727  1.00  0.00     0.165 HD
ENDROOT
BRANCH   2  10
HETATM   10  C   UNL     1      -4.166   5.714 -33.820  1.00  0.00     0.026 C 
HETATM   11  C   UNL     1      -4.886   5.982 -32.483  1.00  0.00     0.035 C 
HETATM   12  C   UNL     1      -5.141   4.738 -31.647  1.00  0.00     0.235 C 
HETATM   13  N   UNL     1      -5.897   3.707 -32.449  1.00  0.00    -0.067 N 
HETATM   14  H   UNL     1      -6.829   4.101 -32.631  1.00  0.00     0.280 HD
HETATM   15  C   UNL     1      -5.259   3.383 -33.777  1.00  0.00     0.235 C 
HETATM   16  C   UNL     1      -4.971   4.644 -34.580  1.00  0.00     0.035 C 
BRANCH  13  17
HETATM   17  C   UNL     1      -6.131   2.421 -31.663  1.00  0.00     0.273 C 
BRANCH  17  18
HETATM   18  C   UNL     1      -5.924   1.160 -32.459  1.00  0.00    -0.033 A 
HETATM   19  C   UNL     1      -6.993   0.545 -33.125  1.00  0.00     0.010 A 
HETATM   20  C   UNL     1      -6.796  -0.660 -33.809  1.00  0.00     0.018 A 
HETATM   21  C   UNL     1      -5.534  -1.269 -33.833  1.00  0.00     0.039 A 
HETATM   22  C   UNL     1      -4.463  -0.649 -33.182  1.00  0.00     0.018 A 
HETATM   23  C   UNL     1      -4.656   0.557 -32.503  1.00  0.00     0.010 A 
BRANCH  21  24
HETATM   24  C   UNL     1      -5.391  -2.566 -34.550  1.00  0.00     0.292 C 
HETATM   25  O   UNL     1      -4.310  -3.066 -34.812  1.00  0.00    -0.259 OA
BRANCH  24  26
HETATM   26  O   UNL     1      -6.607  -3.065 -34.879  1.00  0.00    -0.323 OA
HETATM   27  C   UNL     1      -6.598  -4.459 -35.197  1.00  0.00     0.213 C 
ENDBRANCH  24  26
ENDBRANCH  21  24
ENDBRANCH  17  18
ENDBRANCH  13  17
ENDBRANCH   2  10
BRANCH   6  28
HETATM   28  C   UNL     1      -0.466   7.404 -31.295  1.00  0.00     0.106 C 
HETATM   29  C   UNL     1      -1.281   8.307 -30.339  1.00  0.00     0.065 C 
HETATM   30  C   UNL     1      -0.833   7.872 -28.983  1.00  0.00    -0.050 A 
HETATM   31  C   UNL     1       0.246   6.990 -29.055  1.00  0.00    -0.050 A 
HETATM   32  C   UNL     1      -1.337   8.283 -27.758  1.00  0.00     0.007 A 
HETATM   33  C   UNL     1       0.655   6.727 -30.469  1.00  0.00     0.065 C 
HETATM   34  C   UNL     1       0.843   6.497 -27.906  1.00  0.00     0.007 A 
HETATM   35  C   UNL     1       0.338   6.900 -26.668  1.00  0.00     0.001 A 
HETATM   36  C   UNL     1      -0.746   7.787 -26.595  1.00  0.00     0.001 A 
ENDBRANCH   6  28
TORSDOF 6
ENDMDL
MODEL 2
REMARK VINA RESULT:     -10.2      1.619      2.952
REMARK  6 active torsions:
REMARK  status: ('A' for Active; 'I' for Inactive)
REMARK    1  A    between atoms: C_2  and  C_3 
REMARK    2  A    between atoms: N_6  and  C_8 
REMARK    3  A    between atoms: C_8  and  C_9 
REMARK    4  A    between atoms: C_12  and  C_13 
REMARK    5  A    between atoms: C_13  and  O_14 
REMARK    6  A    between atoms: N_24  and  C_25 
ROOT
HETATM    1  C   UNL     1      -6.293   7.026 -31.820  1.00  0.00     0.049 C 
HETATM    2  C   UNL     1      -5.400   5.801 -32.021  1.00  0.00     0.116 A 
HETATM    3  N   UNL     1      -5.187   5.556 -33.426  1.00  0.00    -0.324 N 
HETATM    4  C   UNL     1      -3.880   5.789 -33.802  1.00  0.00     0.326 A 
HETATM    5  O   UNL     1      -3.535   5.722 -34.967  1.00  0.00    -0.247 OA
HETATM    6  N   UNL     1      -3.140   6.057 -32.695  1.00  0.00    -0.263 N 
HETATM    7  C   UNL     1      -3.960   6.169 -31.604  1.00  0.00     0.256 A 
HETATM    8  O   UNL     1      -3.628   6.470 -30.468  1.00  0.00    -0.270 OA
HETATM    9  H   UNL     1      -5.878   5.712 -34.154  1.00  0.00     0.165 HD
ENDROOT
BRANCH   2  10
HETATM   10  C   UNL     1      -5.893   4.541 -31.240  1.00  0.00     0.026 C 
HETATM   11  C   UNL     1      -4.997   3.293 -31.374  1.00  0.00     0.035 C 
HETATM   12  C   UNL     1      -5.130   2.564 -32.702  1.00  0.00     0.235 C 
HETATM   13  N   UNL     1      -6.571   2.202 -32.965  1.00  0.00    -0.067 N 
HETATM   14  H   UNL     1      -6.835   1.509 -32.253  1.00  0.00     0.280 HD
HETATM   15  C   UNL     1      -7.521   3.369 -32.855  1.00  0.00     0.235 C 
HETATM   16  C   UNL     1      -7.341   4.112 -31.538  1.00  0.00     0.035 C 
BRANCH  13  17
HETATM   17  C   UNL     1      -6.757   1.511 -34.313  1.00  0.00     0.273 C 
BRANCH  17  18
HETATM   18  C   UNL     1      -6.374   0.056 -34.321  1.00  0.00    -0.033 A 
HETATM   19  C   UNL     1      -5.141  -0.368 -33.808  1.00  0.00     0.010 A 
HETATM   20  C   UNL     1      -4.773  -1.716 -33.881  1.00  0.00     0.018 A 
HETATM   21  C   UNL     1      -5.627  -2.658 -34.472  1.00  0.00     0.039 A 
HETATM   22  C   UNL     1      -6.865  -2.239 -34.971  1.00  0.00     0.018 A 
HETATM   23  C   UNL     1      -7.236  -0.895 -34.895  1.00  0.00     0.010 A 
BRANCH  21  24
HETATM   24  C   UNL     1      -5.170  -4.073 -34.550  1.00  0.00     0.292 C 
HETATM   25  O   UNL     1      -5.920  -5.002 -34.798  1.00  0.00    -0.259 OA
BRANCH  24  26
HETATM   26  O   UNL     1      -3.845  -4.160 -34.279  1.00  0.00    -0.323 OA
HETATM   27  C   UNL     1      -3.520  -5.115 -33.266  1.00  0.00     0.213 C 
ENDBRANCH  24  26
ENDBRANCH  21  24
ENDBRANCH  17  18
ENDBRANCH  13  17
ENDBRANCH   2  10
BRANCH   6  28
HETATM   28  C   UNL     1      -1.706   6.375 -32.664  1.00  0.00     0.106 C 
HETATM   29  C   UNL     1      -1.377   7.612 -31.793  1.00  0.00     0.065 C 
HETATM   30  C   UNL     1      -0.624   7.035 -30.640  1.00  0.00    -0.050 A 
HETATM   31  C   UNL     1      -0.329   5.686 -30.841  1.00  0.00    -0.050 A 
HETATM   32  C   UNL     1      -0.191   7.698 -29.502  1.00  0.00     0.007 A 
HETATM   33  C   UNL     1      -0.846   5.193 -32.155  1.00  0.00     0.065 C 
HETATM   34  C   UNL     1       0.403   4.970 -29.908  1.00  0.00     0.007 A 
HETATM   35  C   UNL     1       0.837   5.627 -28.755  1.00  0.00     0.001 A 
HETATM   36  C   UNL     1       0.541   6.983 -28.553  1.00  0.00     0.001 A 
ENDBRANCH   6  28
TORSDOF 6
ENDMDL
MODEL 3
REMARK VINA RESULT:     -10.1      2.658      9.417
REMARK  6 active torsions:
REMARK  status: ('A' for Active; 'I' for Inactive)
REMARK    1  A    between atoms: C_2  and  C_3 
REMARK    2  A    between atoms: N_6  and  C_8 
REMARK    3  A    between atoms: C_8  and  C_9 
REMARK    4  A    between atoms: C_12  and  C_13 
REMARK    5  A    between atoms: C_13  and  O_14 
REMARK    6  A    between atoms: N_24  and  C_25 
ROOT
HETATM    1  C   UNL     1     -10.111  -0.034 -32.441  1.00  0.00     0.049 C 
HETATM    2  C   UNL     1      -8.823   0.790 -32.449  1.00  0.00     0.116 A 
HETATM    3  N   UNL     1      -7.925   0.335 -31.416  1.00  0.00    -0.324 N 
HETATM    4  C   UNL     1      -6.798  -0.269 -31.937  1.00  0.00     0.326 A 
HETATM    5  O   UNL     1      -5.971  -0.795 -31.216  1.00  0.00    -0.247 OA
HETATM    6  N   UNL     1      -6.806  -0.134 -33.289  1.00  0.00    -0.263 N 
HETATM    7  C   UNL     1      -7.999   0.402 -33.695  1.00  0.00     0.256 A 
HETATM    8  O   UNL     1      -8.361   0.592 -34.846  1.00  0.00    -0.270 OA
HETATM    9  H   UNL     1      -8.213  -0.008 -30.505  1.00  0.00     0.165 HD
ENDROOT
BRANCH   2  10
HETATM   10  C   UNL     1      -9.074   2.332 -32.415  1.00  0.00     0.026 C 
HETATM   11  C   UNL     1      -8.036   3.185 -33.172  1.00  0.00     0.035 C 
HETATM   12  C   UNL     1      -6.710   3.351 -32.447  1.00  0.00     0.235 C 
HETATM   13  N   UNL     1      -6.931   3.907 -31.062  1.00  0.00    -0.067 N 
HETATM   14  H   UNL     1      -7.291   4.863 -31.183  1.00  0.00     0.280 HD
HETATM   15  C   UNL     1      -7.936   3.131 -30.247  1.00  0.00     0.235 C 
HETATM   16  C   UNL     1      -9.240   2.936 -31.008  1.00  0.00     0.035 C 
BRANCH  13  17
HETATM   17  C   UNL     1      -5.629   4.044 -30.279  1.00  0.00     0.273 C 
BRANCH  17  18
HETATM   18  C   UNL     1      -4.550   4.807 -31.000  1.00  0.00    -0.033 A 
HETATM   19  C   UNL     1      -3.477   4.139 -31.606  1.00  0.00     0.010 A 
HETATM   20  C   UNL     1      -2.450   4.867 -32.217  1.00  0.00     0.018 A 
HETATM   21  C   UNL     1      -2.475   6.268 -32.228  1.00  0.00     0.039 A 
HETATM   22  C   UNL     1      -3.553   6.936 -31.636  1.00  0.00     0.018 A 
HETATM   23  C   UNL     1      -4.582   6.212 -31.030  1.00  0.00     0.010 A 
BRANCH  21  24
HETATM   24  C   UNL     1      -1.340   6.990 -32.866  1.00  0.00     0.292 C 
HETATM   25  O   UNL     1      -1.490   7.826 -33.741  1.00  0.00    -0.259 OA
BRANCH  24  26
HETATM   26  O   UNL     1      -0.159   6.560 -32.359  1.00  0.00    -0.323 OA
HETATM   27  C   UNL     1       0.139   7.079 -31.060  1.00  0.00     0.213 C 
ENDBRANCH  24  26
ENDBRANCH  21  24
ENDBRANCH  17  18
ENDBRANCH  13  17
ENDBRANCH   2  10
BRANCH   6  28
HETATM   28  C   UNL     1      -5.795  -0.652 -34.220  1.00  0.00     0.106 C 
HETATM   29  C   UNL     1      -4.491  -1.098 -33.513  1.00  0.00     0.065 C 
HETATM   30  C   UNL     1      -4.491  -2.581 -33.689  1.00  0.00    -0.050 A 
HETATM   31  C   UNL     1      -5.508  -2.998 -34.549  1.00  0.00    -0.050 A 
HETATM   32  C   UNL     1      -3.600  -3.493 -33.145  1.00  0.00     0.007 A 
HETATM   33  C   UNL     1      -6.314  -1.845 -35.057  1.00  0.00     0.065 C 
HETATM   34  C   UNL     1      -5.658  -4.335 -34.881  1.00  0.00     0.007 A 
HETATM   35  C   UNL     1      -4.769  -5.261 -34.332  1.00  0.00     0.001 A 
HETATM   36  C   UNL     1      -3.746  -4.842 -33.468  1.00  0.00     0.001 A 
ENDBRANCH   6  28
TORSDOF 6
ENDMDL
MODEL 4
REMARK VINA RESULT:     -10.0      2.445      8.618
REMARK  6 active torsions:
REMARK  status: ('A' for Active; 'I' for Inactive)
REMARK    1  A    between atoms: C_2  and  C_3 
REMARK    2  A    between atoms: N_6  and  C_8 
REMARK    3  A    between atoms: C_8  and  C_9 
REMARK    4  A    between atoms: C_12  and  C_13 
REMARK    5  A    between atoms: C_13  and  O_14 
REMARK    6  A    between atoms: N_24  and  C_25 
ROOT
HETATM    1  C   UNL     1      -6.932   4.612 -29.626  1.00  0.00     0.049 C 
HETATM    2  C   UNL     1      -6.663   3.965 -30.986  1.00  0.00     0.116 A 
HETATM    3  N   UNL     1      -5.269   3.616 -31.112  1.00  0.00    -0.324 N 
HETATM    4  C   UNL     1      -5.075   2.249 -31.129  1.00  0.00     0.326 A 
HETATM    5  O   UNL     1      -3.957   1.769 -31.139  1.00  0.00    -0.247 OA
HETATM    6  N   UNL     1      -6.284   1.630 -31.155  1.00  0.00    -0.263 N 
HETATM    7  C   UNL     1      -7.282   2.552 -30.989  1.00  0.00     0.256 A 
HETATM    8  O   UNL     1      -8.480   2.326 -30.897  1.00  0.00    -0.270 OA
HETATM    9  H   UNL     1      -4.498   4.154 -30.729  1.00  0.00     0.165 HD
ENDROOT
BRANCH   2  10
HETATM   10  C   UNL     1      -7.202   4.805 -32.188  1.00  0.00     0.026 C 
HETATM   11  C   UNL     1      -7.223   4.072 -33.545  1.00  0.00     0.035 C 
HETATM   12  C   UNL     1      -5.861   3.936 -34.207  1.00  0.00     0.235 C 
HETATM   13  N   UNL     1      -5.208   5.288 -34.355  1.00  0.00    -0.067 N 
HETATM   14  H   UNL     1      -5.778   5.819 -35.026  1.00  0.00     0.280 HD
HETATM   15  C   UNL     1      -5.143   6.077 -33.070  1.00  0.00     0.235 C 
HETATM   16  C   UNL     1      -6.508   6.163 -32.400  1.00  0.00     0.035 C 
BRANCH  13  17
HETATM   17  C   UNL     1      -3.815   5.193 -34.971  1.00  0.00     0.273 C 
BRANCH  17  18
HETATM   18  C   UNL     1      -2.689   5.322 -33.981  1.00  0.00    -0.033 A 
HETATM   19  C   UNL     1      -2.487   4.355 -32.988  1.00  0.00     0.010 A 
HETATM   20  C   UNL     1      -1.475   4.522 -32.036  1.00  0.00     0.018 A 
HETATM   21  C   UNL     1      -0.654   5.658 -32.059  1.00  0.00     0.039 A 
HETATM   22  C   UNL     1      -0.844   6.618 -33.059  1.00  0.00     0.018 A 
HETATM   23  C   UNL     1      -1.851   6.451 -34.013  1.00  0.00     0.010 A 
BRANCH  21  24
HETATM   24  C   UNL     1       0.386   5.798 -31.004  1.00  0.00     0.292 C 
HETATM   25  O   UNL     1       1.024   4.854 -30.568  1.00  0.00    -0.259 OA
BRANCH  24  26
HETATM   26  O   UNL     1       0.483   7.088 -30.599  1.00  0.00    -0.323 OA
HETATM   27  C   UNL     1       0.484   7.254 -29.179  1.00  0.00     0.213 C 
ENDBRANCH  24  26
ENDBRANCH  21  24
ENDBRANCH  17  18
ENDBRANCH  13  17
ENDBRANCH   2  10
BRANCH   6  28
HETATM   28  C   UNL     1      -6.516   0.180 -31.162  1.00  0.00     0.106 C 
HETATM   29  C   UNL     1      -7.420  -0.285 -32.330  1.00  0.00     0.065 C 
HETATM   30  C   UNL     1      -6.492  -1.072 -33.196  1.00  0.00    -0.050 A 
HETATM   31  C   UNL     1      -5.254  -1.265 -32.582  1.00  0.00    -0.050 A 
HETATM   32  C   UNL     1      -6.764  -1.620 -34.440  1.00  0.00     0.007 A 
HETATM   33  C   UNL     1      -5.200  -0.632 -31.228  1.00  0.00     0.065 C 
HETATM   34  C   UNL     1      -4.259  -2.007 -33.199  1.00  0.00     0.007 A 
HETATM   35  C   UNL     1      -4.521  -2.557 -34.455  1.00  0.00     0.001 A 
HETATM   36  C   UNL     1      -5.766  -2.364 -35.072  1.00  0.00     0.001 A 
ENDBRANCH   6  28
TORSDOF 6
ENDMDL
MODEL 5
REMARK VINA RESULT:      -9.7      2.372      9.373
REMARK  6 active torsions:
REMARK  status: ('A' for Active; 'I' for Inactive)
REMARK    1  A    between atoms: C_2  and  C_3 
REMARK    2  A    between atoms: N_6  and  C_8 
REMARK    3  A    between atoms: C_8  and  C_9 
REMARK    4  A    between atoms: C_12  and  C_13 
REMARK    5  A    between atoms: C_13  and  O_14 
REMARK    6  A    between atoms: N_24  and  C_25 
ROOT
HETATM    1  C   UNL     1      -4.635   4.593 -30.738  1.00  0.00     0.049 C 
HETATM    2  C   UNL     1      -4.256   3.631 -31.865  1.00  0.00     0.116 A 
HETATM    3  N   UNL     1      -3.101   2.851 -31.495  1.00  0.00    -0.324 N 
HETATM    4  C   UNL     1      -3.412   1.518 -31.313  1.00  0.00     0.326 A 
HETATM    5  O   UNL     1      -2.582   0.724 -30.911  1.00  0.00    -0.247 OA
HETATM    6  N   UNL     1      -4.706   1.311 -31.670  1.00  0.00    -0.263 N 
HETATM    7  C   UNL     1      -5.314   2.510 -31.930  1.00  0.00     0.256 A 
HETATM    8  O   UNL     1      -6.490   2.688 -32.211  1.00  0.00    -0.270 OA
HETATM    9  H   UNL     1      -2.325   3.191 -30.938  1.00  0.00     0.165 HD
ENDROOT
BRANCH   2  10
HETATM   10  C   UNL     1      -4.112   4.332 -33.254  1.00  0.00     0.026 C 
HETATM   11  C   UNL     1      -2.680   4.367 -33.827  1.00  0.00     0.035 C 
HETATM   12  C   UNL     1      -1.768   5.395 -33.175  1.00  0.00     0.235 C 
HETATM   13  N   UNL     1      -2.389   6.769 -33.239  1.00  0.00    -0.067 N 
HETATM   14  H   UNL     1      -2.421   7.032 -34.233  1.00  0.00     0.280 HD
HETATM   15  C   UNL     1      -3.795   6.826 -32.696  1.00  0.00     0.235 C 
HETATM   16  C   UNL     1      -4.681   5.760 -33.328  1.00  0.00     0.035 C 
BRANCH  13  17
HETATM   17  C   UNL     1      -1.528   7.824 -32.552  1.00  0.00     0.273 C 
BRANCH  17  18
HETATM   18  C   UNL     1      -1.088   7.456 -31.161  1.00  0.00    -0.033 A 
HETATM   19  C   UNL     1      -1.944   7.629 -30.065  1.00  0.00     0.010 A 
HETATM   20  C   UNL     1      -1.497   7.341 -28.770  1.00  0.00     0.018 A 
HETATM   21  C   UNL     1      -0.191   6.883 -28.551  1.00  0.00     0.039 A 
HETATM   22  C   UNL     1       0.660   6.695 -29.646  1.00  0.00     0.018 A 
HETATM   23  C   UNL     1       0.215   6.977 -30.939  1.00  0.00     0.010 A 
BRANCH  21  24
HETATM   24  C   UNL     1       0.240   6.622 -27.150  1.00  0.00     0.292 C 
HETATM   25  O   UNL     1      -0.477   6.085 -26.322  1.00  0.00    -0.259 OA
BRANCH  24  26
HETATM   26  O   UNL     1       1.495   7.089 -26.944  1.00  0.00    -0.323 OA
HETATM   27  C   UNL     1       1.573   8.145 -25.983  1.00  0.00     0.213 C 
ENDBRANCH  24  26
ENDBRANCH  21  24
ENDBRANCH  17  18
ENDBRANCH  13  17
ENDBRANCH   2  10
BRANCH   6  28
HETATM   28  C   UNL     1      -5.430   0.034 -31.609  1.00  0.00     0.106 C 
HETATM   29  C   UNL     1      -6.415  -0.163 -32.787  1.00  0.00     0.065 C 
HETATM   30  C   UNL     1      -5.802  -1.278 -33.569  1.00  0.00    -0.050 A 
HETATM   31  C   UNL     1      -4.722  -1.848 -32.895  1.00  0.00    -0.050 A 
HETATM   32  C   UNL     1      -6.223  -1.777 -34.793  1.00  0.00     0.007 A 
HETATM   33  C   UNL     1      -4.478  -1.187 -31.575  1.00  0.00     0.065 C 
HETATM   34  C   UNL     1      -4.037  -2.927 -33.429  1.00  0.00     0.007 A 
HETATM   35  C   UNL     1      -4.448  -3.433 -34.664  1.00  0.00     0.001 A 
HETATM   36  C   UNL     1      -5.535  -2.860 -35.342  1.00  0.00     0.001 A 
ENDBRANCH   6  28
TORSDOF 6
ENDMDL
MODEL 6
REMARK VINA RESULT:      -9.7      3.682      8.648
REMARK  6 active torsions:
REMARK  status: ('A' for Active; 'I' for Inactive)
REMARK    1  A    between atoms: C_2  and  C_3 
REMARK    2  A    between atoms: N_6  and  C_8 
REMARK    3  A    between atoms: C_8  and  C_9 
REMARK    4  A    between atoms: C_12  and  C_13 
REMARK    5  A    between atoms: C_13  and  O_14 
REMARK    6  A    between atoms: N_24  and  C_25 
ROOT
HETATM    1  C   UNL     1     -12.203   2.331 -33.604  1.00  0.00     0.049 C 
HETATM    2  C   UNL     1     -10.836   2.703 -33.029  1.00  0.00     0.116 A 
HETATM    3  N   UNL     1     -10.332   1.640 -32.195  1.00  0.00    -0.324 N 
HETATM    4  C   UNL     1      -9.229   1.023 -32.750  1.00  0.00     0.326 A 
HETATM    5  O   UNL     1      -8.724   0.045 -32.231  1.00  0.00    -0.247 OA
HETATM    6  N   UNL     1      -8.860   1.696 -33.870  1.00  0.00    -0.263 N 
HETATM    7  C   UNL     1      -9.794   2.653 -34.166  1.00  0.00     0.256 A 
HETATM    8  O   UNL     1      -9.804   3.389 -35.142  1.00  0.00    -0.270 OA
HETATM    9  H   UNL     1     -10.903   1.046 -31.602  1.00  0.00     0.165 HD
ENDROOT
BRANCH   2  10
HETATM   10  C   UNL     1     -10.818   4.100 -32.329  1.00  0.00     0.026 C 
HETATM   11  C   UNL     1      -9.559   4.950 -32.589  1.00  0.00     0.035 C 
HETATM   12  C   UNL     1      -8.330   4.507 -31.811  1.00  0.00     0.235 C 
HETATM   13  N   UNL     1      -8.630   4.459 -30.332  1.00  0.00    -0.067 N 
HETATM   14  H   UNL     1      -8.799   5.428 -30.034  1.00  0.00     0.280 HD
HETATM   15  C   UNL     1      -9.851   3.644 -29.986  1.00  0.00     0.235 C 
HETATM   16  C   UNL     1     -11.060   4.073 -30.809  1.00  0.00     0.035 C 
BRANCH  13  17
HETATM   17  C   UNL     1      -7.437   3.971 -29.516  1.00  0.00     0.273 C 
BRANCH  17  18
HETATM   18  C   UNL     1      -6.116   4.063 -30.233  1.00  0.00    -0.033 A 
HETATM   19  C   UNL     1      -5.514   2.924 -30.784  1.00  0.00     0.010 A 
HETATM   20  C   UNL     1      -4.256   3.016 -31.391  1.00  0.00     0.018 A 
HETATM   21  C   UNL     1      -3.581   4.243 -31.452  1.00  0.00     0.039 A 
HETATM   22  C   UNL     1      -4.188   5.384 -30.916  1.00  0.00     0.018 A 
HETATM   23  C   UNL     1      -5.445   5.295 -30.314  1.00  0.00     0.010 A 
BRANCH  21  24
HETATM   24  C   UNL     1      -2.233   4.275 -32.082  1.00  0.00     0.292 C 
HETATM   25  O   UNL     1      -1.220   4.574 -31.473  1.00  0.00    -0.259 OA
BRANCH  24  26
HETATM   26  O   UNL     1      -2.316   3.963 -33.398  1.00  0.00    -0.323 OA
HETATM   27  C   UNL     1      -2.494   5.094 -34.254  1.00  0.00     0.213 C 
ENDBRANCH  24  26
ENDBRANCH  21  24
ENDBRANCH  17  18
ENDBRANCH  13  17
ENDBRANCH   2  10
BRANCH   6  28
HETATM   28  C   UNL     1      -7.744   1.353 -34.762  1.00  0.00     0.106 C 
HETATM   29  C   UNL     1      -6.359   1.494 -34.085  1.00  0.00     0.065 C 
HETATM   30  C   UNL     1      -5.877   0.085 -33.983  1.00  0.00    -0.050 A 
HETATM   31  C   UNL     1      -6.710  -0.796 -34.673  1.00  0.00    -0.050 A 
HETATM   32  C   UNL     1      -4.731  -0.368 -33.347  1.00  0.00     0.007 A 
HETATM   33  C   UNL     1      -7.854  -0.085 -35.323  1.00  0.00     0.065 C 
HETATM   34  C   UNL     1      -6.419  -2.149 -34.740  1.00  0.00     0.007 A 
HETATM   35  C   UNL     1      -5.271  -2.616 -34.096  1.00  0.00     0.001 A 
HETATM   36  C   UNL     1      -4.432  -1.730 -33.404  1.00  0.00     0.001 A 
ENDBRANCH   6  28
TORSDOF 6
ENDMDL
MODEL 7
REMARK VINA RESULT:      -9.6      3.591      7.278
REMARK  6 active torsions:
REMARK  status: ('A' for Active; 'I' for Inactive)
REMARK    1  A    between atoms: C_2  and  C_3 
REMARK    2  A    between atoms: N_6  and  C_8 
REMARK    3  A    between atoms: C_8  and  C_9 
REMARK    4  A    between atoms: C_12  and  C_13 
REMARK    5  A    between atoms: C_13  and  O_14 
REMARK    6  A    between atoms: N_24  and  C_25 
ROOT
HETATM    1  C   UNL     1      -2.628   4.155 -33.657  1.00  0.00     0.049 C 
HETATM    2  C   UNL     1      -3.826   4.011 -32.716  1.00  0.00     0.116 A 
HETATM    3  N   UNL     1      -5.036   3.794 -33.469  1.00  0.00    -0.324 N 
HETATM    4  C   UNL     1      -5.541   2.522 -33.285  1.00  0.00     0.326 A 
HETATM    5  O   UNL     1      -6.507   2.128 -33.911  1.00  0.00    -0.247 OA
HETATM    6  N   UNL     1      -4.809   1.887 -32.333  1.00  0.00    -0.263 N 
HETATM    7  C   UNL     1      -3.724   2.651 -31.995  1.00  0.00     0.256 A 
HETATM    8  O   UNL     1      -2.828   2.348 -31.221  1.00  0.00    -0.270 OA
HETATM    9  H   UNL     1      -5.243   4.211 -34.371  1.00  0.00     0.165 HD
ENDROOT
BRANCH   2  10
HETATM   10  C   UNL     1      -3.942   5.176 -31.680  1.00  0.00     0.026 C 
HETATM   11  C   UNL     1      -4.625   4.805 -30.349  1.00  0.00     0.035 C 
HETATM   12  C   UNL     1      -6.138   4.683 -30.432  1.00  0.00     0.235 C 
HETATM   13  N   UNL     1      -6.741   5.947 -30.993  1.00  0.00    -0.067 N 
HETATM   14  H   UNL     1      -6.571   6.687 -30.299  1.00  0.00     0.280 HD
HETATM   15  C   UNL     1      -6.129   6.384 -32.301  1.00  0.00     0.235 C 
HETATM   16  C   UNL     1      -4.611   6.457 -32.210  1.00  0.00     0.035 C 
BRANCH  13  17
HETATM   17  C   UNL     1      -8.256   5.850 -31.139  1.00  0.00     0.273 C 
BRANCH  17  18
HETATM   18  C   UNL     1      -8.744   4.529 -31.670  1.00  0.00    -0.033 A 
HETATM   19  C   UNL     1      -9.154   4.394 -33.003  1.00  0.00     0.010 A 
HETATM   20  C   UNL     1      -9.665   3.175 -33.463  1.00  0.00     0.018 A 
HETATM   21  C   UNL     1      -9.777   2.077 -32.600  1.00  0.00     0.039 A 
HETATM   22  C   UNL     1      -9.355   2.205 -31.273  1.00  0.00     0.018 A 
HETATM   23  C   UNL     1      -8.840   3.419 -30.812  1.00  0.00     0.010 A 
BRANCH  21  24
HETATM   24  C   UNL     1     -10.356   0.814 -33.136  1.00  0.00     0.292 C 
HETATM   25  O   UNL     1     -10.047  -0.290 -32.720  1.00  0.00    -0.259 OA
BRANCH  24  26
HETATM   26  O   UNL     1     -11.223   1.079 -34.143  1.00  0.00    -0.323 OA
HETATM   27  C   UNL     1     -12.580   0.742 -33.846  1.00  0.00     0.213 C 
ENDBRANCH  24  26
ENDBRANCH  21  24
ENDBRANCH  17  18
ENDBRANCH  13  17
ENDBRANCH   2  10
BRANCH   6  28
HETATM   28  C   UNL     1      -5.009   0.512 -31.856  1.00  0.00     0.106 C 
HETATM   29  C   UNL     1      -6.432  -0.028 -32.139  1.00  0.00     0.065 C 
HETATM   30  C   UNL     1      -6.204  -1.092 -33.161  1.00  0.00    -0.050 A 
HETATM   31  C   UNL     1      -4.844  -1.345 -33.346  1.00  0.00    -0.050 A 
HETATM   32  C   UNL     1      -7.164  -1.820 -33.846  1.00  0.00     0.007 A 
HETATM   33  C   UNL     1      -3.993  -0.482 -32.470  1.00  0.00     0.065 C 
HETATM   34  C   UNL     1      -4.415  -2.329 -34.223  1.00  0.00     0.007 A 
HETATM   35  C   UNL     1      -5.374  -3.062 -34.923  1.00  0.00     0.001 A 
HETATM   36  C   UNL     1      -6.741  -2.809 -34.736  1.00  0.00     0.001 A 
ENDBRANCH   6  28
TORSDOF 6
ENDMDL
MODEL 8
REMARK VINA RESULT:      -9.5      2.757      9.982
REMARK  6 active torsions:
REMARK  status: ('A' for Active; 'I' for Inactive)
REMARK    1  A    between atoms: C_2  and  C_3 
REMARK    2  A    between atoms: N_6  and  C_8 
REMARK    3  A    between atoms: C_8  and  C_9 
REMARK    4  A    between atoms: C_12  and  C_13 
REMARK    5  A    between atoms: C_13  and  O_14 
REMARK    6  A    between atoms: N_24  and  C_25 
ROOT
HETATM    1  C   UNL     1      -1.848   5.150 -34.834  1.00  0.00     0.049 C 
HETATM    2  C   UNL     1      -2.944   5.417 -33.801  1.00  0.00     0.116 A 
HETATM    3  N   UNL     1      -4.248   5.239 -34.392  1.00  0.00    -0.324 N 
HETATM    4  C   UNL     1      -4.906   4.140 -33.877  1.00  0.00     0.326 A 
HETATM    5  O   UNL     1      -5.981   3.781 -34.320  1.00  0.00    -0.247 OA
HETATM    6  N   UNL     1      -4.173   3.621 -32.857  1.00  0.00    -0.263 N 
HETATM    7  C   UNL     1      -2.960   4.253 -32.789  1.00  0.00     0.256 A 
HETATM    8  O   UNL     1      -2.038   3.986 -32.032  1.00  0.00    -0.270 OA
HETATM    9  H   UNL     1      -4.489   5.475 -35.349  1.00  0.00     0.165 HD
ENDROOT
BRANCH   2  10
HETATM   10  C   UNL     1      -2.780   6.785 -33.063  1.00  0.00     0.026 C 
HETATM   11  C   UNL     1      -1.341   7.336 -33.014  1.00  0.00     0.035 C 
HETATM   12  C   UNL     1      -0.437   6.645 -32.005  1.00  0.00     0.235 C 
HETATM   13  N   UNL     1      -1.057   6.680 -30.629  1.00  0.00    -0.067 N 
HETATM   14  H   UNL     1      -1.074   7.666 -30.340  1.00  0.00     0.280 HD
HETATM   15  C   UNL     1      -2.470   6.155 -30.585  1.00  0.00     0.235 C 
HETATM   16  C   UNL     1      -3.348   6.828 -31.633  1.00  0.00     0.035 C 
BRANCH  13  17
HETATM   17  C   UNL     1      -0.205   5.953 -29.593  1.00  0.00     0.273 C 
BRANCH  17  18
HETATM   18  C   UNL     1       0.312   6.834 -28.487  1.00  0.00    -0.033 A 
HETATM   19  C   UNL     1       1.069   7.978 -28.771  1.00  0.00     0.010 A 
HETATM   20  C   UNL     1       1.595   8.750 -27.729  1.00  0.00     0.018 A 
HETATM   21  C   UNL     1       1.377   8.390 -26.392  1.00  0.00     0.039 A 
HETATM   22  C   UNL     1       0.608   7.256 -26.107  1.00  0.00     0.018 A 
HETATM   23  C   UNL     1       0.078   6.486 -27.145  1.00  0.00     0.010 A 
BRANCH  21  24
HETATM   24  C   UNL     1       1.986   9.232 -25.326  1.00  0.00     0.292 C 
HETATM   25  O   UNL     1       1.582  10.348 -25.047  1.00  0.00    -0.259 OA
BRANCH  24  26
HETATM   26  O   UNL     1       3.040   8.594 -24.761  1.00  0.00    -0.323 OA
HETATM   27  C   UNL     1       3.231   8.900 -23.378  1.00  0.00     0.213 C 
ENDBRANCH  24  26
ENDBRANCH  21  24
ENDBRANCH  17  18
ENDBRANCH  13  17
ENDBRANCH   2  10
BRANCH   6  28
HETATM   28  C   UNL     1      -4.515   2.437 -32.057  1.00  0.00     0.106 C 
HETATM   29  C   UNL     1      -6.039   2.258 -31.859  1.00  0.00     0.065 C 
HETATM   30  C   UNL     1      -6.350   1.028 -32.646  1.00  0.00    -0.050 A 
HETATM   31  C   UNL     1      -5.189   0.398 -33.098  1.00  0.00    -0.050 A 
HETATM   32  C   UNL     1      -7.600   0.485 -32.900  1.00  0.00     0.007 A 
HETATM   33  C   UNL     1      -3.957   1.128 -32.667  1.00  0.00     0.065 C 
HETATM   34  C   UNL     1      -5.253  -0.786 -33.815  1.00  0.00     0.007 A 
HETATM   35  C   UNL     1      -6.508  -1.336 -34.081  1.00  0.00     0.001 A 
HETATM   36  C   UNL     1      -7.675  -0.704 -33.626  1.00  0.00     0.001 A 
ENDBRANCH   6  28
TORSDOF 6
ENDMDL
MODEL 9
REMARK VINA RESULT:      -9.2      4.672      8.615
REMARK  6 active torsions:
REMARK  status: ('A' for Active; 'I' for Inactive)
REMARK    1  A    between atoms: C_2  and  C_3 
REMARK    2  A    between atoms: N_6  and  C_8 
REMARK    3  A    between atoms: C_8  and  C_9 
REMARK    4  A    between atoms: C_12  and  C_13 
REMARK    5  A    between atoms: C_13  and  O_14 
REMARK    6  A    between atoms: N_24  and  C_25 
ROOT
HETATM    1  C   UNL     1      -4.569   4.505 -31.599  1.00  0.00     0.049 C 
HETATM    2  C   UNL     1      -5.973   3.958 -31.864  1.00  0.00     0.116 A 
HETATM    3  N   UNL     1      -6.102   3.545 -33.240  1.00  0.00    -0.324 N 
HETATM    4  C   UNL     1      -6.229   2.175 -33.361  1.00  0.00     0.326 A 
HETATM    5  O   UNL     1      -6.258   1.637 -34.452  1.00  0.00    -0.247 OA
HETATM    6  N   UNL     1      -6.327   1.627 -32.122  1.00  0.00    -0.263 N 
HETATM    7  C   UNL     1      -6.103   2.585 -31.171  1.00  0.00     0.256 A 
HETATM    8  O   UNL     1      -6.052   2.418 -29.961  1.00  0.00    -0.270 OA
HETATM    9  H   UNL     1      -5.663   4.007 -34.029  1.00  0.00     0.165 HD
ENDROOT
BRANCH   2  10
HETATM   10  C   UNL     1      -7.111   4.921 -31.396  1.00  0.00     0.026 C 
HETATM   11  C   UNL     1      -8.477   4.251 -31.146  1.00  0.00     0.035 C 
HETATM   12  C   UNL     1      -9.246   3.900 -32.410  1.00  0.00     0.235 C 
HETATM   13  N   UNL     1      -9.416   5.121 -33.281  1.00  0.00    -0.067 N 
HETATM   14  H   UNL     1     -10.029   5.767 -32.766  1.00  0.00     0.280 HD
HETATM   15  C   UNL     1      -8.124   5.840 -33.578  1.00  0.00     0.235 C 
HETATM   16  C   UNL     1      -7.347   6.142 -32.303  1.00  0.00     0.035 C 
BRANCH  13  17
HETATM   17  C   UNL     1     -10.141   4.804 -34.585  1.00  0.00     0.273 C 
BRANCH  17  18
HETATM   18  C   UNL     1     -11.359   3.935 -34.422  1.00  0.00    -0.033 A 
HETATM   19  C   UNL     1     -12.477   4.388 -33.708  1.00  0.00     0.010 A 
HETATM   20  C   UNL     1     -13.576   3.544 -33.511  1.00  0.00     0.018 A 
HETATM   21  C   UNL     1     -13.573   2.238 -34.019  1.00  0.00     0.039 A 
HETATM   22  C   UNL     1     -12.465   1.790 -34.745  1.00  0.00     0.018 A 
HETATM   23  C   UNL     1     -11.368   2.631 -34.947  1.00  0.00     0.010 A 
BRANCH  21  24
HETATM   24  C   UNL     1     -14.757   1.375 -33.754  1.00  0.00     0.292 C 
HETATM   25  O   UNL     1     -15.238   0.628 -34.589  1.00  0.00    -0.259 OA
BRANCH  24  26
HETATM   26  O   UNL     1     -15.215   1.571 -32.493  1.00  0.00    -0.323 OA
HETATM   27  C   UNL     1     -16.473   2.248 -32.430  1.00  0.00     0.213 C 
ENDBRANCH  24  26
ENDBRANCH  21  24
ENDBRANCH  17  18
ENDBRANCH  13  17
ENDBRANCH   2  10
BRANCH   6  28
HETATM   28  C   UNL     1      -6.458   0.197 -31.814  1.00  0.00     0.106 C 
HETATM   29  C   UNL     1      -7.385  -0.555 -32.799  1.00  0.00     0.065 C 
HETATM   30  C   UNL     1      -6.450  -1.452 -33.541  1.00  0.00    -0.050 A 
HETATM   31  C   UNL     1      -5.172  -1.439 -32.982  1.00  0.00    -0.050 A 
HETATM   32  C   UNL     1      -6.746  -2.265 -34.625  1.00  0.00     0.007 A 
HETATM   33  C   UNL     1      -5.093  -0.533 -31.795  1.00  0.00     0.065 C 
HETATM   34  C   UNL     1      -4.161  -2.236 -33.495  1.00  0.00     0.007 A 
HETATM   35  C   UNL     1      -4.447  -3.053 -34.591  1.00  0.00     0.001 A 
HETATM   36  C   UNL     1      -5.733  -3.067 -35.152  1.00  0.00     0.001 A 
ENDBRANCH   6  28
TORSDOF 6
ENDMDL
MODEL 10
REMARK VINA RESULT:      -8.9      5.019      8.783
REMARK  6 active torsions:
REMARK  status: ('A' for Active; 'I' for Inactive)
REMARK    1  A    between atoms: C_2  and  C_3 
REMARK    2  A    between atoms: N_6  and  C_8 
REMARK    3  A    between atoms: C_8  and  C_9 
REMARK    4  A    between atoms: C_12  and  C_13 
REMARK    5  A    between atoms: C_13  and  O_14 
REMARK    6  A    between atoms: N_24  and  C_25 
ROOT
HETATM    1  C   UNL     1      -8.642   7.435 -32.206  1.00  0.00     0.049 C 
HETATM    2  C   UNL     1      -8.595   5.944 -32.543  1.00  0.00     0.116 A 
HETATM    3  N   UNL     1      -9.320   5.180 -31.557  1.00  0.00    -0.324 N 
HETATM    4  C   UNL     1     -10.469   4.618 -32.077  1.00  0.00     0.326 A 
HETATM    5  O   UNL     1     -11.253   4.015 -31.370  1.00  0.00    -0.247 OA
HETATM    6  N   UNL     1     -10.507   4.845 -33.416  1.00  0.00    -0.263 N 
HETATM    7  C   UNL     1      -9.490   5.689 -33.774  1.00  0.00     0.256 A 
HETATM    8  O   UNL     1      -9.278   6.149 -34.886  1.00  0.00    -0.270 OA
HETATM    9  H   UNL     1      -9.359   5.399 -30.567  1.00  0.00     0.165 HD
ENDROOT
BRANCH   2  10
HETATM   10  C   UNL     1      -7.148   5.412 -32.797  1.00  0.00     0.026 C 
HETATM   11  C   UNL     1      -7.021   4.362 -33.919  1.00  0.00     0.035 C 
HETATM   12  C   UNL     1      -7.501   2.971 -33.536  1.00  0.00     0.235 C 
HETATM   13  N   UNL     1      -6.795   2.492 -32.292  1.00  0.00    -0.067 N 
HETATM   14  H   UNL     1      -5.805   2.372 -32.543  1.00  0.00     0.280 HD
HETATM   15  C   UNL     1      -6.870   3.461 -31.138  1.00  0.00     0.235 C 
HETATM   16  C   UNL     1      -6.427   4.858 -31.554  1.00  0.00     0.035 C 
BRANCH  13  17
HETATM   17  C   UNL     1      -7.283   1.118 -31.843  1.00  0.00     0.273 C 
BRANCH  17  18
HETATM   18  C   UNL     1      -6.732  -0.029 -32.647  1.00  0.00    -0.033 A 
HETATM   19  C   UNL     1      -7.531  -0.709 -33.575  1.00  0.00     0.010 A 
HETATM   20  C   UNL     1      -7.022  -1.813 -34.268  1.00  0.00     0.018 A 
HETATM   21  C   UNL     1      -5.712  -2.257 -34.040  1.00  0.00     0.039 A 
HETATM   22  C   UNL     1      -4.907  -1.570 -33.125  1.00  0.00     0.018 A 
HETATM   23  C   UNL     1      -5.412  -0.464 -32.436  1.00  0.00     0.010 A 
BRANCH  21  24
HETATM   24  C   UNL     1      -5.234  -3.455 -34.783  1.00  0.00     0.292 C 
HETATM   25  O   UNL     1      -5.961  -4.138 -35.484  1.00  0.00    -0.259 OA
BRANCH  24  26
HETATM   26  O   UNL     1      -3.919  -3.673 -34.538  1.00  0.00    -0.323 OA
HETATM   27  C   UNL     1      -3.647  -4.916 -33.887  1.00  0.00     0.213 C 
ENDBRANCH  24  26
ENDBRANCH  21  24
ENDBRANCH  17  18
ENDBRANCH  13  17
ENDBRANCH   2  10
BRANCH   6  28
HETATM   28  C   UNL     1     -11.572   4.426 -34.337  1.00  0.00     0.106 C 
HETATM   29  C   UNL     1     -11.355   3.005 -34.911  1.00  0.00     0.065 C 
HETATM   30  C   UNL     1     -12.453   2.207 -34.290  1.00  0.00    -0.050 A 
HETATM   31  C   UNL     1     -13.355   3.020 -33.603  1.00  0.00    -0.050 A 
HETATM   32  C   UNL     1     -12.652   0.838 -34.378  1.00  0.00     0.007 A 
HETATM   33  C   UNL     1     -12.973   4.464 -33.680  1.00  0.00     0.065 C 
HETATM   34  C   UNL     1     -14.474   2.483 -32.987  1.00  0.00     0.007 A 
HETATM   35  C   UNL     1     -14.679   1.104 -33.065  1.00  0.00     0.001 A 
HETATM   36  C   UNL     1     -13.773   0.286 -33.756  1.00  0.00     0.001 A 
ENDBRANCH   6  28
TORSDOF 6
ENDMDL
