MODEL 1
REMARK VINA RESULT:      -9.9      0.000      0.000
REMARK  3 active torsions:
REMARK  status: ('A' for Active; 'I' for Inactive)
REMARK    1  A    between atoms: C_5  and  N_6 
REMARK       I    between atoms: N_6  and  C_7 
REMARK    2  A    between atoms: C_7  and  C_8 
REMARK    3  A    between atoms: C_8  and  N_9 
ROOT
HETATM    1  N   UNL     1      -6.478   2.000 -33.439  1.00  0.00    -0.256 N 
HETATM    2  C   UNL     1      -5.609   2.398 -32.449  1.00  0.00     0.330 A 
HETATM    3  O   UNL     1      -5.455   3.521 -32.002  1.00  0.00    -0.246 OA
HETATM    4  N   UNL     1      -4.871   1.290 -32.080  1.00  0.00    -0.303 N 
HETATM    5  C   UNL     1      -5.207   0.196 -32.838  1.00  0.00     0.122 A 
HETATM    6  C   UNL     1      -4.602  -0.996 -32.764  1.00  0.00     0.077 A 
HETATM    7  C   UNL     1      -3.411  -1.168 -31.850  1.00  0.00     0.259 A 
HETATM    8  O   UNL     1      -2.944  -0.344 -31.085  1.00  0.00    -0.267 OA
HETATM    9  N   UNL     1      -2.948  -2.446 -32.086  1.00  0.00    -0.322 N 
HETATM   10  C   UNL     1      -4.780  -2.276 -33.466  1.00  0.00     0.009 A 
HETATM   11  C   UNL     1      -3.739  -3.104 -33.021  1.00  0.00     0.046 A 
HETATM   12  C   UNL     1      -3.563  -4.403 -33.459  1.00  0.00     0.030 A 
HETATM   13  C   UNL     1      -4.486  -4.898 -34.377  1.00  0.00     0.002 A 
HETATM   14  C   UNL     1      -5.551  -4.096 -34.820  1.00  0.00     0.001 A 
HETATM   15  C   UNL     1      -5.704  -2.779 -34.364  1.00  0.00     0.015 A 
HETATM   16  C   UNL     1      -6.300   0.675 -33.744  1.00  0.00     0.280 A 
HETATM   17  O   UNL     1      -6.908   0.050 -34.595  1.00  0.00    -0.265 OA
HETATM   18  H   UNL     1      -4.122   1.313 -31.392  1.00  0.00     0.171 HD
HETATM   19  H   UNL     1      -2.144  -2.834 -31.615  1.00  0.00     0.169 HD
ENDROOT
BRANCH   1  20
HETATM   20  C   UNL     1      -7.267   2.924 -34.225  1.00  0.00     0.240 C 
BRANCH  20  21
HETATM   21  C   UNL     1      -8.744   2.975 -33.830  1.00  0.00     0.240 C 
HETATM   22  N   UNL     1      -9.424   1.797 -34.100  1.00  0.00    -0.326 N 
HETATM   23  H   UNL     1      -8.858   0.978 -34.320  1.00  0.00     0.169 HD
HETATM   24  O   UNL     1      -9.243   4.018 -33.417  1.00  0.00    -0.271 OA
BRANCH  22  25
HETATM   25  C   UNL     1     -10.821   1.613 -34.168  1.00  0.00     0.034 A 
HETATM   26  C   UNL     1     -11.356   0.520 -33.476  1.00  0.00     0.030 A 
HETATM   27  C   UNL     1     -12.721   0.221 -33.558  1.00  0.00     0.009 A 
HETATM   28  C   UNL     1     -13.570   0.999 -34.349  1.00  0.00    -0.062 A 
HETATM   29  C   UNL     1     -15.032   0.684 -34.453  1.00  0.00     0.048 C 
HETATM   30  C   UNL     1     -13.040   2.108 -35.016  1.00  0.00     0.009 A 
HETATM   31  C   UNL     1     -11.676   2.411 -34.927  1.00  0.00     0.030 A 
ENDBRANCH  22  25
ENDBRANCH  20  21
ENDBRANCH   1  20
TORSDOF 3
ENDMDL
MODEL 2
REMARK VINA RESULT:      -9.9      3.620      7.431
REMARK  3 active torsions:
REMARK  status: ('A' for Active; 'I' for Inactive)
REMARK    1  A    between atoms: C_5  and  N_6 
REMARK       I    between atoms: N_6  and  C_7 
REMARK    2  A    between atoms: C_7  and  C_8 
REMARK    3  A    between atoms: C_8  and  N_9 
ROOT
HETATM    1  N   UNL     1      -6.286   2.911 -32.100  1.00  0.00    -0.256 N 
HETATM    2  C   UNL     1      -6.625   3.137 -33.414  1.00  0.00     0.330 A 
HETATM    3  O   UNL     1      -7.536   2.631 -34.045  1.00  0.00    -0.246 OA
HETATM    4  N   UNL     1      -5.691   4.012 -33.935  1.00  0.00    -0.303 N 
HETATM    5  C   UNL     1      -4.730   4.321 -33.006  1.00  0.00     0.122 A 
HETATM    6  C   UNL     1      -3.651   5.079 -33.248  1.00  0.00     0.077 A 
HETATM    7  C   UNL     1      -3.400   5.582 -34.649  1.00  0.00     0.259 A 
HETATM    8  O   UNL     1      -4.115   5.440 -35.624  1.00  0.00    -0.267 OA
HETATM    9  N   UNL     1      -2.175   6.216 -34.598  1.00  0.00    -0.322 N 
HETATM   10  C   UNL     1      -2.513   5.523 -32.430  1.00  0.00     0.009 A 
HETATM   11  C   UNL     1      -1.650   6.193 -33.311  1.00  0.00     0.046 A 
HETATM   12  C   UNL     1      -0.453   6.760 -32.915  1.00  0.00     0.030 A 
HETATM   13  C   UNL     1      -0.115   6.663 -31.567  1.00  0.00     0.002 A 
HETATM   14  C   UNL     1      -0.975   6.017 -30.662  1.00  0.00     0.001 A 
HETATM   15  C   UNL     1      -2.181   5.445 -31.090  1.00  0.00     0.015 A 
HETATM   16  C   UNL     1      -5.141   3.588 -31.766  1.00  0.00     0.280 A 
HETATM   17  O   UNL     1      -4.588   3.563 -30.680  1.00  0.00    -0.265 OA
HETATM   18  H   UNL     1      -5.680   4.316 -34.906  1.00  0.00     0.171 HD
HETATM   19  H   UNL     1      -1.745   6.646 -35.403  1.00  0.00     0.169 HD
ENDROOT
BRANCH   1  20
HETATM   20  C   UNL     1      -6.903   1.890 -31.283  1.00  0.00     0.240 C 
BRANCH  20  21
HETATM   21  C   UNL     1      -6.390   0.476 -31.558  1.00  0.00     0.240 C 
HETATM   22  N   UNL     1      -6.081   0.256 -32.891  1.00  0.00    -0.326 N 
HETATM   23  H   UNL     1      -6.018   1.077 -33.492  1.00  0.00     0.169 HD
HETATM   24  O   UNL     1      -6.375  -0.367 -30.665  1.00  0.00    -0.271 OA
BRANCH  22  25
HETATM   25  C   UNL     1      -5.902  -0.988 -33.534  1.00  0.00     0.034 A 
HETATM   26  C   UNL     1      -7.050  -1.641 -33.994  1.00  0.00     0.030 A 
HETATM   27  C   UNL     1      -6.967  -2.914 -34.570  1.00  0.00     0.009 A 
HETATM   28  C   UNL     1      -5.734  -3.563 -34.676  1.00  0.00    -0.062 A 
HETATM   29  C   UNL     1      -5.631  -4.931 -35.282  1.00  0.00     0.048 C 
HETATM   30  C   UNL     1      -4.582  -2.898 -34.243  1.00  0.00     0.009 A 
HETATM   31  C   UNL     1      -4.667  -1.620 -33.675  1.00  0.00     0.030 A 
ENDBRANCH  22  25
ENDBRANCH  20  21
ENDBRANCH   1  20
TORSDOF 3
ENDMDL
MODEL 3
REMARK VINA RESULT:      -9.8      1.841      7.591
REMARK  3 active torsions:
REMARK  status: ('A' for Active; 'I' for Inactive)
REMARK    1  A    between atoms: C_5  and  N_6 
REMARK       I    between atoms: N_6  and  C_7 
REMARK    2  A    between atoms: C_7  and  C_8 
REMARK    3  A    between atoms: C_8  and  N_9 
ROOT
HETATM    1  N   UNL     1      -7.605   3.097 -33.186  1.00  0.00    -0.256 N 
HETATM    2  C   UNL     1      -7.793   4.287 -33.850  1.00  0.00     0.330 A 
HETATM    3  O   UNL     1      -7.022   5.227 -33.926  1.00  0.00    -0.246 OA
HETATM    4  N   UNL     1      -9.069   4.264 -34.381  1.00  0.00    -0.303 N 
HETATM    5  C   UNL     1      -9.727   3.110 -34.037  1.00  0.00     0.122 A 
HETATM    6  C   UNL     1     -11.006   2.844 -34.336  1.00  0.00     0.077 A 
HETATM    7  C   UNL     1     -11.837   3.896 -35.033  1.00  0.00     0.259 A 
HETATM    8  O   UNL     1     -11.465   4.982 -35.437  1.00  0.00    -0.267 OA
HETATM    9  N   UNL     1     -13.114   3.376 -35.091  1.00  0.00    -0.322 N 
HETATM   10  C   UNL     1     -11.902   1.709 -34.069  1.00  0.00     0.009 A 
HETATM   11  C   UNL     1     -13.165   2.101 -34.537  1.00  0.00     0.046 A 
HETATM   12  C   UNL     1     -14.285   1.296 -34.461  1.00  0.00     0.030 A 
HETATM   13  C   UNL     1     -14.126   0.031 -33.902  1.00  0.00     0.002 A 
HETATM   14  C   UNL     1     -12.865  -0.393 -33.447  1.00  0.00     0.001 A 
HETATM   15  C   UNL     1     -11.745   0.446 -33.530  1.00  0.00     0.015 A 
HETATM   16  C   UNL     1      -8.733   2.320 -33.242  1.00  0.00     0.280 A 
HETATM   17  O   UNL     1      -8.873   1.225 -32.726  1.00  0.00    -0.265 OA
HETATM   18  H   UNL     1      -9.485   5.041 -34.889  1.00  0.00     0.171 HD
HETATM   19  H   UNL     1     -13.891   3.872 -35.501  1.00  0.00     0.169 HD
ENDROOT
BRANCH   1  20
HETATM   20  C   UNL     1      -6.472   2.837 -32.324  1.00  0.00     0.240 C 
BRANCH  20  21
HETATM   21  C   UNL     1      -6.018   1.377 -32.316  1.00  0.00     0.240 C 
HETATM   22  N   UNL     1      -5.796   0.865 -33.585  1.00  0.00    -0.326 N 
HETATM   23  H   UNL     1      -5.745   1.537 -34.351  1.00  0.00     0.169 HD
HETATM   24  O   UNL     1      -5.974   0.744 -31.265  1.00  0.00    -0.271 OA
BRANCH  22  25
HETATM   25  C   UNL     1      -5.692  -0.493 -33.954  1.00  0.00     0.034 A 
HETATM   26  C   UNL     1      -6.856  -1.122 -34.410  1.00  0.00     0.030 A 
HETATM   27  C   UNL     1      -6.857  -2.487 -34.719  1.00  0.00     0.009 A 
HETATM   28  C   UNL     1      -5.696  -3.250 -34.558  1.00  0.00    -0.062 A 
HETATM   29  C   UNL     1      -5.686  -4.716 -34.876  1.00  0.00     0.048 C 
HETATM   30  C   UNL     1      -4.526  -2.614 -34.131  1.00  0.00     0.009 A 
HETATM   31  C   UNL     1      -4.525  -1.246 -33.830  1.00  0.00     0.030 A 
ENDBRANCH  22  25
ENDBRANCH  20  21
ENDBRANCH   1  20
TORSDOF 3
ENDMDL
MODEL 4
REMARK VINA RESULT:      -9.5      1.839      2.145
REMARK  3 active torsions:
REMARK  status: ('A' for Active; 'I' for Inactive)
REMARK    1  A    between atoms: C_5  and  N_6 
REMARK       I    between atoms: N_6  and  C_7 
REMARK    2  A    between atoms: C_7  and  C_8 
REMARK    3  A    between atoms: C_8  and  N_9 
ROOT
HETATM    1  N   UNL     1      -8.105   2.185 -33.448  1.00  0.00    -0.256 N 
HETATM    2  C   UNL     1      -6.997   2.797 -32.909  1.00  0.00     0.330 A 
HETATM    3  O   UNL     1      -6.869   3.972 -32.610  1.00  0.00    -0.246 OA
HETATM    4  N   UNL     1      -6.001   1.844 -32.821  1.00  0.00    -0.303 N 
HETATM    5  C   UNL     1      -6.421   0.641 -33.333  1.00  0.00     0.122 A 
HETATM    6  C   UNL     1      -5.647  -0.445 -33.459  1.00  0.00     0.077 A 
HETATM    7  C   UNL     1      -4.183  -0.357 -33.095  1.00  0.00     0.259 A 
HETATM    8  O   UNL     1      -3.597   0.598 -32.618  1.00  0.00    -0.267 OA
HETATM    9  N   UNL     1      -3.644  -1.579 -33.443  1.00  0.00    -0.322 N 
HETATM   10  C   UNL     1      -5.871  -1.803 -33.975  1.00  0.00     0.009 A 
HETATM   11  C   UNL     1      -4.617  -2.432 -33.952  1.00  0.00     0.046 A 
HETATM   12  C   UNL     1      -4.414  -3.734 -34.368  1.00  0.00     0.030 A 
HETATM   13  C   UNL     1      -5.527  -4.443 -34.815  1.00  0.00     0.002 A 
HETATM   14  C   UNL     1      -6.797  -3.842 -34.825  1.00  0.00     0.001 A 
HETATM   15  C   UNL     1      -6.975  -2.517 -34.403  1.00  0.00     0.015 A 
HETATM   16  C   UNL     1      -7.844   0.871 -33.742  1.00  0.00     0.280 A 
HETATM   17  O   UNL     1      -8.624   0.084 -34.249  1.00  0.00    -0.265 OA
HETATM   18  H   UNL     1      -5.058   2.039 -32.495  1.00  0.00     0.171 HD
HETATM   19  H   UNL     1      -2.669  -1.804 -33.319  1.00  0.00     0.169 HD
ENDROOT
BRANCH   1  20
HETATM   20  C   UNL     1      -9.280   2.906 -33.888  1.00  0.00     0.240 C 
BRANCH  20  21
HETATM   21  C   UNL     1     -10.472   2.795 -32.937  1.00  0.00     0.240 C 
HETATM   22  N   UNL     1     -11.629   2.350 -33.559  1.00  0.00    -0.326 N 
HETATM   23  H   UNL     1     -11.526   1.950 -34.491  1.00  0.00     0.169 HD
HETATM   24  O   UNL     1     -10.379   3.177 -31.774  1.00  0.00    -0.271 OA
BRANCH  22  25
HETATM   25  C   UNL     1     -12.950   2.444 -33.075  1.00  0.00     0.034 A 
HETATM   26  C   UNL     1     -13.817   1.386 -33.372  1.00  0.00     0.030 A 
HETATM   27  C   UNL     1     -15.165   1.439 -32.998  1.00  0.00     0.009 A 
HETATM   28  C   UNL     1     -15.672   2.560 -32.336  1.00  0.00    -0.062 A 
HETATM   29  C   UNL     1     -17.116   2.633 -31.937  1.00  0.00     0.048 C 
HETATM   30  C   UNL     1     -14.799   3.603 -32.012  1.00  0.00     0.009 A 
HETATM   31  C   UNL     1     -13.449   3.546 -32.380  1.00  0.00     0.030 A 
ENDBRANCH  22  25
ENDBRANCH  20  21
ENDBRANCH   1  20
TORSDOF 3
ENDMDL
MODEL 5
REMARK VINA RESULT:      -9.3      3.726      7.420
REMARK  3 active torsions:
REMARK  status: ('A' for Active; 'I' for Inactive)
REMARK    1  A    between atoms: C_5  and  N_6 
REMARK       I    between atoms: N_6  and  C_7 
REMARK    2  A    between atoms: C_7  and  C_8 
REMARK    3  A    between atoms: C_8  and  N_9 
ROOT
HETATM    1  N   UNL     1      -6.428   2.804 -31.239  1.00  0.00    -0.256 N 
HETATM    2  C   UNL     1      -6.719   3.555 -30.124  1.00  0.00     0.330 A 
HETATM    3  O   UNL     1      -7.647   3.408 -29.349  1.00  0.00    -0.246 OA
HETATM    4  N   UNL     1      -5.790   4.577 -30.063  1.00  0.00    -0.303 N 
HETATM    5  C   UNL     1      -4.936   4.534 -31.136  1.00  0.00     0.122 A 
HETATM    6  C   UNL     1      -3.986   5.444 -31.391  1.00  0.00     0.077 A 
HETATM    7  C   UNL     1      -3.867   6.659 -30.501  1.00  0.00     0.259 A 
HETATM    8  O   UNL     1      -4.508   6.902 -29.494  1.00  0.00    -0.267 OA
HETATM    9  N   UNL     1      -2.896   7.447 -31.084  1.00  0.00    -0.322 N 
HETATM   10  C   UNL     1      -2.987   5.604 -32.457  1.00  0.00     0.009 A 
HETATM   11  C   UNL     1      -2.372   6.843 -32.221  1.00  0.00     0.046 A 
HETATM   12  C   UNL     1      -1.369   7.356 -33.020  1.00  0.00     0.030 A 
HETATM   13  C   UNL     1      -0.952   6.581 -34.100  1.00  0.00     0.002 A 
HETATM   14  C   UNL     1      -1.537   5.326 -34.343  1.00  0.00     0.001 A 
HETATM   15  C   UNL     1      -2.558   4.831 -33.520  1.00  0.00     0.015 A 
HETATM   16  C   UNL     1      -5.360   3.329 -31.920  1.00  0.00     0.280 A 
HETATM   17  O   UNL     1      -4.889   2.894 -32.956  1.00  0.00    -0.265 OA
HETATM   18  H   UNL     1      -5.800   5.308 -29.357  1.00  0.00     0.171 HD
HETATM   19  H   UNL     1      -2.612   8.338 -30.704  1.00  0.00     0.169 HD
ENDROOT
BRANCH   1  20
HETATM   20  C   UNL     1      -7.302   1.772 -31.755  1.00  0.00     0.240 C 
BRANCH  20  21
HETATM   21  C   UNL     1      -6.636   0.404 -31.898  1.00  0.00     0.240 C 
HETATM   22  N   UNL     1      -6.284   0.100 -33.204  1.00  0.00    -0.326 N 
HETATM   23  H   UNL     1      -6.301   0.866 -33.876  1.00  0.00     0.169 HD
HETATM   24  O   UNL     1      -6.544  -0.349 -30.932  1.00  0.00    -0.271 OA
BRANCH  22  25
HETATM   25  C   UNL     1      -5.963  -1.169 -33.730  1.00  0.00     0.034 A 
HETATM   26  C   UNL     1      -7.018  -1.937 -34.238  1.00  0.00     0.030 A 
HETATM   27  C   UNL     1      -6.795  -3.238 -34.703  1.00  0.00     0.009 A 
HETATM   28  C   UNL     1      -5.517  -3.800 -34.651  1.00  0.00    -0.062 A 
HETATM   29  C   UNL     1      -5.266  -5.196 -35.138  1.00  0.00     0.048 C 
HETATM   30  C   UNL     1      -4.458  -3.022 -34.171  1.00  0.00     0.009 A 
HETATM   31  C   UNL     1      -4.681  -1.717 -33.714  1.00  0.00     0.030 A 
ENDBRANCH  22  25
ENDBRANCH  20  21
ENDBRANCH   1  20
TORSDOF 3
ENDMDL
MODEL 6
REMARK VINA RESULT:      -9.2      4.725      7.994
REMARK  3 active torsions:
REMARK  status: ('A' for Active; 'I' for Inactive)
REMARK    1  A    between atoms: C_5  and  N_6 
REMARK       I    between atoms: N_6  and  C_7 
REMARK    2  A    between atoms: C_7  and  C_8 
REMARK    3  A    between atoms: C_8  and  N_9 
ROOT
HETATM    1  N   UNL     1      -5.257   5.114 -32.667  1.00  0.00    -0.256 N 
HETATM    2  C   UNL     1      -4.637   5.253 -33.887  1.00  0.00     0.330 A 
HETATM    3  O   UNL     1      -5.044   4.884 -34.974  1.00  0.00    -0.246 OA
HETATM    4  N   UNL     1      -3.407   5.840 -33.659  1.00  0.00    -0.303 N 
HETATM    5  C   UNL     1      -3.197   6.042 -32.317  1.00  0.00     0.122 A 
HETATM    6  C   UNL     1      -2.061   6.518 -31.788  1.00  0.00     0.077 A 
HETATM    7  C   UNL     1      -0.880   6.789 -32.690  1.00  0.00     0.259 A 
HETATM    8  O   UNL     1      -0.840   6.690 -33.903  1.00  0.00    -0.267 OA
HETATM    9  N   UNL     1       0.152   7.147 -31.846  1.00  0.00    -0.322 N 
HETATM   10  C   UNL     1      -1.616   6.800 -30.415  1.00  0.00     0.009 A 
HETATM   11  C   UNL     1      -0.264   7.162 -30.520  1.00  0.00     0.046 A 
HETATM   12  C   UNL     1       0.516   7.502 -29.431  1.00  0.00     0.030 A 
HETATM   13  C   UNL     1      -0.095   7.493 -28.179  1.00  0.00     0.002 A 
HETATM   14  C   UNL     1      -1.454   7.156 -28.053  1.00  0.00     0.001 A 
HETATM   15  C   UNL     1      -2.222   6.809 -29.173  1.00  0.00     0.015 A 
HETATM   16  C   UNL     1      -4.451   5.564 -31.653  1.00  0.00     0.280 A 
HETATM   17  O   UNL     1      -4.721   5.548 -30.465  1.00  0.00    -0.265 OA
HETATM   18  H   UNL     1      -2.722   6.019 -34.388  1.00  0.00     0.171 HD
HETATM   19  H   UNL     1       1.076   7.378 -32.178  1.00  0.00     0.169 HD
ENDROOT
BRANCH   1  20
HETATM   20  C   UNL     1      -6.471   4.351 -32.472  1.00  0.00     0.240 C 
BRANCH  20  21
HETATM   21  C   UNL     1      -6.250   2.841 -32.376  1.00  0.00     0.240 C 
HETATM   22  N   UNL     1      -6.039   2.240 -33.608  1.00  0.00    -0.326 N 
HETATM   23  H   UNL     1      -5.842   2.857 -34.395  1.00  0.00     0.169 HD
HETATM   24  O   UNL     1      -6.364   2.261 -31.300  1.00  0.00    -0.271 OA
BRANCH  22  25
HETATM   25  C   UNL     1      -6.127   0.866 -33.915  1.00  0.00     0.034 A 
HETATM   26  C   UNL     1      -7.212   0.453 -34.696  1.00  0.00     0.030 A 
HETATM   27  C   UNL     1      -7.416  -0.903 -34.977  1.00  0.00     0.009 A 
HETATM   28  C   UNL     1      -6.547  -1.871 -34.465  1.00  0.00    -0.062 A 
HETATM   29  C   UNL     1      -6.759  -3.328 -34.751  1.00  0.00     0.048 C 
HETATM   30  C   UNL     1      -5.446  -1.455 -33.709  1.00  0.00     0.009 A 
HETATM   31  C   UNL     1      -5.238  -0.097 -33.436  1.00  0.00     0.030 A 
ENDBRANCH  22  25
ENDBRANCH  20  21
ENDBRANCH   1  20
TORSDOF 3
ENDMDL
MODEL 7
REMARK VINA RESULT:      -9.1      2.188      7.450
REMARK  3 active torsions:
REMARK  status: ('A' for Active; 'I' for Inactive)
REMARK    1  A    between atoms: C_5  and  N_6 
REMARK       I    between atoms: N_6  and  C_7 
REMARK    2  A    between atoms: C_7  and  C_8 
REMARK    3  A    between atoms: C_8  and  N_9 
ROOT
HETATM    1  N   UNL     1      -6.852   3.117 -31.881  1.00  0.00    -0.256 N 
HETATM    2  C   UNL     1      -7.195   3.891 -30.797  1.00  0.00     0.330 A 
HETATM    3  O   UNL     1      -6.464   4.293 -29.909  1.00  0.00    -0.246 OA
HETATM    4  N   UNL     1      -8.562   4.088 -30.847  1.00  0.00    -0.303 N 
HETATM    5  C   UNL     1      -9.119   3.422 -31.911  1.00  0.00     0.122 A 
HETATM    6  C   UNL     1     -10.432   3.360 -32.167  1.00  0.00     0.077 A 
HETATM    7  C   UNL     1     -11.407   3.988 -31.198  1.00  0.00     0.259 A 
HETATM    8  O   UNL     1     -11.142   4.631 -30.199  1.00  0.00    -0.267 OA
HETATM    9  N   UNL     1     -12.660   3.655 -31.670  1.00  0.00    -0.322 N 
HETATM   10  C   UNL     1     -11.238   2.714 -33.214  1.00  0.00     0.009 A 
HETATM   11  C   UNL     1     -12.576   2.918 -32.846  1.00  0.00     0.046 A 
HETATM   12  C   UNL     1     -13.646   2.451 -33.586  1.00  0.00     0.030 A 
HETATM   13  C   UNL     1     -13.357   1.760 -34.761  1.00  0.00     0.002 A 
HETATM   14  C   UNL     1     -12.024   1.564 -35.162  1.00  0.00     0.001 A 
HETATM   15  C   UNL     1     -10.957   2.042 -34.389  1.00  0.00     0.015 A 
HETATM   16  C   UNL     1      -7.962   2.780 -32.614  1.00  0.00     0.280 A 
HETATM   17  O   UNL     1      -7.973   2.085 -33.614  1.00  0.00    -0.265 OA
HETATM   18  H   UNL     1      -9.088   4.593 -30.138  1.00  0.00     0.171 HD
HETATM   19  H   UNL     1     -13.512   3.937 -31.210  1.00  0.00     0.169 HD
ENDROOT
BRANCH   1  20
HETATM   20  C   UNL     1      -5.544   2.526 -32.057  1.00  0.00     0.240 C 
BRANCH  20  21
HETATM   21  C   UNL     1      -5.546   0.997 -32.068  1.00  0.00     0.240 C 
HETATM   22  N   UNL     1      -5.320   0.459 -33.327  1.00  0.00    -0.326 N 
HETATM   23  H   UNL     1      -4.973   1.095 -34.044  1.00  0.00     0.169 HD
HETATM   24  O   UNL     1      -5.830   0.366 -31.054  1.00  0.00    -0.271 OA
BRANCH  22  25
HETATM   25  C   UNL     1      -5.575  -0.862 -33.750  1.00  0.00     0.034 A 
HETATM   26  C   UNL     1      -4.468  -1.695 -33.949  1.00  0.00     0.030 A 
HETATM   27  C   UNL     1      -4.630  -2.994 -34.445  1.00  0.00     0.009 A 
HETATM   28  C   UNL     1      -5.901  -3.474 -34.768  1.00  0.00    -0.062 A 
HETATM   29  C   UNL     1      -6.088  -4.861 -35.309  1.00  0.00     0.048 C 
HETATM   30  C   UNL     1      -7.010  -2.653 -34.541  1.00  0.00     0.009 A 
HETATM   31  C   UNL     1      -6.847  -1.356 -34.036  1.00  0.00     0.030 A 
ENDBRANCH  22  25
ENDBRANCH  20  21
ENDBRANCH   1  20
TORSDOF 3
ENDMDL
MODEL 8
REMARK VINA RESULT:      -8.9      3.354      6.886
REMARK  3 active torsions:
REMARK  status: ('A' for Active; 'I' for Inactive)
REMARK    1  A    between atoms: C_5  and  N_6 
REMARK       I    between atoms: N_6  and  C_7 
REMARK    2  A    between atoms: C_7  and  C_8 
REMARK    3  A    between atoms: C_8  and  N_9 
ROOT
HETATM    1  N   UNL     1      -6.430   2.237 -31.461  1.00  0.00    -0.256 N 
HETATM    2  C   UNL     1      -7.220   2.416 -32.573  1.00  0.00     0.330 A 
HETATM    3  O   UNL     1      -8.049   3.289 -32.764  1.00  0.00    -0.246 OA
HETATM    4  N   UNL     1      -6.956   1.371 -33.438  1.00  0.00    -0.303 N 
HETATM    5  C   UNL     1      -6.051   0.495 -32.893  1.00  0.00     0.122 A 
HETATM    6  C   UNL     1      -5.666  -0.655 -33.463  1.00  0.00     0.077 A 
HETATM    7  C   UNL     1      -6.309  -1.091 -34.759  1.00  0.00     0.259 A 
HETATM    8  O   UNL     1      -7.125  -0.475 -35.422  1.00  0.00    -0.267 OA
HETATM    9  N   UNL     1      -5.797  -2.346 -35.019  1.00  0.00    -0.322 N 
HETATM   10  C   UNL     1      -4.741  -1.729 -33.070  1.00  0.00     0.009 A 
HETATM   11  C   UNL     1      -4.880  -2.727 -34.047  1.00  0.00     0.046 A 
HETATM   12  C   UNL     1      -4.170  -3.912 -34.025  1.00  0.00     0.030 A 
HETATM   13  C   UNL     1      -3.265  -4.096 -32.981  1.00  0.00     0.002 A 
HETATM   14  C   UNL     1      -3.092  -3.100 -32.005  1.00  0.00     0.001 A 
HETATM   15  C   UNL     1      -3.830  -1.909 -32.047  1.00  0.00     0.015 A 
HETATM   16  C   UNL     1      -5.688   1.089 -31.567  1.00  0.00     0.280 A 
HETATM   17  O   UNL     1      -4.915   0.658 -30.729  1.00  0.00    -0.265 OA
HETATM   18  H   UNL     1      -7.438   1.234 -34.323  1.00  0.00     0.171 HD
HETATM   19  H   UNL     1      -6.062  -2.889 -35.827  1.00  0.00     0.169 HD
ENDROOT
BRANCH   1  20
HETATM   20  C   UNL     1      -6.576   3.011 -30.247  1.00  0.00     0.240 C 
BRANCH  20  21
HETATM   21  C   UNL     1      -5.539   4.123 -30.087  1.00  0.00     0.240 C 
HETATM   22  N   UNL     1      -4.772   4.324 -31.225  1.00  0.00    -0.326 N 
HETATM   23  H   UNL     1      -5.101   3.887 -32.086  1.00  0.00     0.169 HD
HETATM   24  O   UNL     1      -5.379   4.675 -29.003  1.00  0.00    -0.271 OA
BRANCH  22  25
HETATM   25  C   UNL     1      -3.547   5.017 -31.319  1.00  0.00     0.034 A 
HETATM   26  C   UNL     1      -2.394   4.252 -31.529  1.00  0.00     0.030 A 
HETATM   27  C   UNL     1      -1.131   4.855 -31.554  1.00  0.00     0.009 A 
HETATM   28  C   UNL     1      -0.999   6.231 -31.349  1.00  0.00    -0.062 A 
HETATM   29  C   UNL     1       0.349   6.888 -31.364  1.00  0.00     0.048 C 
HETATM   30  C   UNL     1      -2.154   6.999 -31.169  1.00  0.00     0.009 A 
HETATM   31  C   UNL     1      -3.418   6.396 -31.153  1.00  0.00     0.030 A 
ENDBRANCH  22  25
ENDBRANCH  20  21
ENDBRANCH   1  20
TORSDOF 3
ENDMDL
MODEL 9
REMARK VINA RESULT:      -8.9      2.805      9.017
REMARK  3 active torsions:
REMARK  status: ('A' for Active; 'I' for Inactive)
REMARK    1  A    between atoms: C_5  and  N_6 
REMARK       I    between atoms: N_6  and  C_7 
REMARK    2  A    between atoms: C_7  and  C_8 
REMARK    3  A    between atoms: C_8  and  N_9 
ROOT
HETATM    1  N   UNL     1      -8.762   1.861 -33.137  1.00  0.00    -0.256 N 
HETATM    2  C   UNL     1      -9.274   1.112 -34.171  1.00  0.00     0.330 A 
HETATM    3  O   UNL     1      -8.658   0.444 -34.982  1.00  0.00    -0.246 OA
HETATM    4  N   UNL     1     -10.643   1.301 -34.176  1.00  0.00    -0.303 N 
HETATM    5  C   UNL     1     -11.024   2.189 -33.202  1.00  0.00     0.122 A 
HETATM    6  C   UNL     1     -12.276   2.631 -33.021  1.00  0.00     0.077 A 
HETATM    7  C   UNL     1     -13.358   2.205 -33.985  1.00  0.00     0.259 A 
HETATM    8  O   UNL     1     -13.254   1.422 -34.912  1.00  0.00    -0.267 OA
HETATM    9  N   UNL     1     -14.484   2.909 -33.608  1.00  0.00    -0.322 N 
HETATM   10  C   UNL     1     -12.900   3.568 -32.074  1.00  0.00     0.009 A 
HETATM   11  C   UNL     1     -14.232   3.703 -32.495  1.00  0.00     0.046 A 
HETATM   12  C   UNL     1     -15.151   4.510 -31.853  1.00  0.00     0.030 A 
HETATM   13  C   UNL     1     -14.716   5.204 -30.726  1.00  0.00     0.002 A 
HETATM   14  C   UNL     1     -13.393   5.066 -30.273  1.00  0.00     0.001 A 
HETATM   15  C   UNL     1     -12.478   4.244 -30.946  1.00  0.00     0.015 A 
HETATM   16  C   UNL     1      -9.755   2.555 -32.495  1.00  0.00     0.280 A 
HETATM   17  O   UNL     1      -9.602   3.318 -31.557  1.00  0.00    -0.265 OA
HETATM   18  H   UNL     1     -11.268   0.894 -34.868  1.00  0.00     0.171 HD
HETATM   19  H   UNL     1     -15.367   2.828 -34.088  1.00  0.00     0.169 HD
ENDROOT
BRANCH   1  20
HETATM   20  C   UNL     1      -7.346   2.087 -32.943  1.00  0.00     0.240 C 
BRANCH  20  21
HETATM   21  C   UNL     1      -6.566   0.839 -32.529  1.00  0.00     0.240 C 
HETATM   22  N   UNL     1      -5.878   0.250 -33.580  1.00  0.00    -0.326 N 
HETATM   23  H   UNL     1      -5.784   0.799 -34.434  1.00  0.00     0.169 HD
HETATM   24  O   UNL     1      -6.662   0.393 -31.389  1.00  0.00    -0.271 OA
BRANCH  22  25
HETATM   25  C   UNL     1      -5.343  -1.055 -33.627  1.00  0.00     0.034 A 
HETATM   26  C   UNL     1      -4.274  -1.339 -32.769  1.00  0.00     0.030 A 
HETATM   27  C   UNL     1      -3.635  -2.583 -32.812  1.00  0.00     0.009 A 
HETATM   28  C   UNL     1      -4.043  -3.558 -33.726  1.00  0.00    -0.062 A 
HETATM   29  C   UNL     1      -3.361  -4.892 -33.788  1.00  0.00     0.048 C 
HETATM   30  C   UNL     1      -5.131  -3.284 -34.562  1.00  0.00     0.009 A 
HETATM   31  C   UNL     1      -5.775  -2.042 -34.513  1.00  0.00     0.030 A 
ENDBRANCH  22  25
ENDBRANCH  20  21
ENDBRANCH   1  20
TORSDOF 3
ENDMDL
MODEL 10
REMARK VINA RESULT:      -8.5      2.954      3.204
REMARK  3 active torsions:
REMARK  status: ('A' for Active; 'I' for Inactive)
REMARK    1  A    between atoms: C_5  and  N_6 
REMARK       I    between atoms: N_6  and  C_7 
REMARK    2  A    between atoms: C_7  and  C_8 
REMARK    3  A    between atoms: C_8  and  N_9 
ROOT
HETATM    1  N   UNL     1      -5.195   3.880 -32.706  1.00  0.00    -0.256 N 
HETATM    2  C   UNL     1      -4.215   3.865 -31.740  1.00  0.00     0.330 A 
HETATM    3  O   UNL     1      -3.714   4.821 -31.175  1.00  0.00    -0.246 OA
HETATM    4  N   UNL     1      -3.835   2.549 -31.560  1.00  0.00    -0.303 N 
HETATM    5  C   UNL     1      -4.511   1.717 -32.417  1.00  0.00     0.122 A 
HETATM    6  C   UNL     1      -4.293   0.400 -32.530  1.00  0.00     0.077 A 
HETATM    7  C   UNL     1      -3.181  -0.238 -31.731  1.00  0.00     0.259 A 
HETATM    8  O   UNL     1      -2.462   0.299 -30.908  1.00  0.00    -0.267 OA
HETATM    9  N   UNL     1      -3.134  -1.552 -32.150  1.00  0.00    -0.322 N 
HETATM   10  C   UNL     1      -4.873  -0.662 -33.366  1.00  0.00     0.009 A 
HETATM   11  C   UNL     1      -4.117  -1.814 -33.098  1.00  0.00     0.046 A 
HETATM   12  C   UNL     1      -4.357  -3.034 -33.700  1.00  0.00     0.030 A 
HETATM   13  C   UNL     1      -5.416  -3.106 -34.602  1.00  0.00     0.002 A 
HETATM   14  C   UNL     1      -6.202  -1.972 -34.868  1.00  0.00     0.001 A 
HETATM   15  C   UNL     1      -5.934  -0.743 -34.248  1.00  0.00     0.015 A 
HETATM   16  C   UNL     1      -5.436   2.615 -33.179  1.00  0.00     0.280 A 
HETATM   17  O   UNL     1      -6.233   2.320 -34.052  1.00  0.00    -0.265 OA
HETATM   18  H   UNL     1      -3.093   2.255 -30.930  1.00  0.00     0.171 HD
HETATM   19  H   UNL     1      -2.471  -2.221 -31.788  1.00  0.00     0.169 HD
ENDROOT
BRANCH   1  20
HETATM   20  C   UNL     1      -5.693   5.093 -33.317  1.00  0.00     0.240 C 
BRANCH  20  21
HETATM   21  C   UNL     1      -7.212   5.251 -33.242  1.00  0.00     0.240 C 
HETATM   22  N   UNL     1      -7.690   5.334 -31.943  1.00  0.00    -0.326 N 
HETATM   23  H   UNL     1      -7.003   5.496 -31.208  1.00  0.00     0.169 HD
HETATM   24  O   UNL     1      -7.895   5.197 -34.261  1.00  0.00    -0.271 OA
BRANCH  22  25
HETATM   25  C   UNL     1      -9.021   5.159 -31.509  1.00  0.00     0.034 A 
HETATM   26  C   UNL     1      -9.336   3.947 -30.884  1.00  0.00     0.030 A 
HETATM   27  C   UNL     1     -10.650   3.661 -30.497  1.00  0.00     0.009 A 
HETATM   28  C   UNL     1     -11.676   4.578 -30.746  1.00  0.00    -0.062 A 
HETATM   29  C   UNL     1     -13.090   4.281 -30.345  1.00  0.00     0.048 C 
HETATM   30  C   UNL     1     -11.356   5.801 -31.344  1.00  0.00     0.009 A 
HETATM   31  C   UNL     1     -10.039   6.088 -31.723  1.00  0.00     0.030 A 
ENDBRANCH  22  25
ENDBRANCH  20  21
ENDBRANCH   1  20
TORSDOF 3
ENDMDL
