MODEL 1
REMARK VINA RESULT:      -8.5      0.000      0.000
REMARK  7 active torsions:
REMARK  status: ('A' for Active; 'I' for Inactive)
REMARK    1  A    between atoms: C_2  and  O_3 
REMARK    2  A    between atoms: O_3  and  C_4 
REMARK    3  A    between atoms: C_4  and  C_5 
REMARK    4  A    between atoms: C_6  and  C_7 
REMARK    5  A    between atoms: C_18  and  S_19 
REMARK    6  A    between atoms: S_19  and  C_20 
REMARK    7  A    between atoms: C_20  and  C_21 
ROOT
HETATM    1  C   UNL     1      -6.241   4.475 -31.046  1.00  0.00     0.070 A 
HETATM    2  C   UNL     1      -5.656   3.577 -32.133  1.00  0.00     0.203 A 
HETATM    3  N   UNL     1      -5.373   2.229 -31.622  1.00  0.00    -0.082 N 
HETATM    4  C   UNL     1      -5.632   1.824 -30.342  1.00  0.00     0.726 A 
HETATM    5  N   UNL     1      -6.193   2.687 -29.478  1.00  0.00    -0.192 N 
HETATM    6  N   UNL     1      -4.864   1.221 -32.358  1.00  0.00    -0.128 NA
HETATM    7  C   UNL     1      -4.750   0.264 -31.429  1.00  0.00     0.226 A 
HETATM    8  N   UNL     1      -5.243   0.585 -30.189  1.00  0.00    -0.035 NA
HETATM    9  C   UNL     1      -6.490   4.007 -29.796  1.00  0.00     0.037 A 
HETATM   10  C   UNL     1      -7.110   4.819 -28.684  1.00  0.00     0.070 C 
HETATM   11  H   UNL     1      -6.361   2.384 -28.522  1.00  0.00     0.184 HD
ENDROOT
BRANCH   7  12
HETATM   12  S   UNL     1      -3.996  -1.260 -31.802  1.00  0.00    -0.083 SA
BRANCH  12  13
HETATM   13  C   UNL     1      -4.156  -1.257 -33.609  1.00  0.00     0.123 C 
BRANCH  13  14
HETATM   14  C   UNL     1      -4.867  -2.493 -34.108  1.00  0.00    -0.027 A 
HETATM   15  C   UNL     1      -6.173  -2.464 -34.625  1.00  0.00     0.041 A 
HETATM   16 CL   UNL     1      -7.082  -0.999 -34.745  1.00  0.00    -0.084 Cl
HETATM   17  C   UNL     1      -6.790  -3.639 -35.069  1.00  0.00     0.024 A 
HETATM   18  C   UNL     1      -6.118  -4.859 -34.991  1.00  0.00     0.002 A 
HETATM   19  C   UNL     1      -4.829  -4.906 -34.469  1.00  0.00     0.001 A 
HETATM   20  C   UNL     1      -4.208  -3.735 -34.031  1.00  0.00     0.009 A 
ENDBRANCH  13  14
ENDBRANCH  12  13
ENDBRANCH   7  12
BRANCH   2  21
HETATM   21  C   UNL     1      -4.405   4.145 -32.804  1.00  0.00    -0.028 A 
HETATM   22  C   UNL     1      -3.136   4.052 -32.206  1.00  0.00     0.011 A 
HETATM   23  C   UNL     1      -2.013   4.586 -32.845  1.00  0.00     0.024 A 
HETATM   24  C   UNL     1      -2.146   5.205 -34.086  1.00  0.00     0.034 A 
HETATM   25 CL   UNL     1      -0.761   5.863 -34.866  1.00  0.00    -0.084 Cl
HETATM   26  C   UNL     1      -3.392   5.294 -34.698  1.00  0.00     0.024 A 
HETATM   27  C   UNL     1      -4.516   4.765 -34.063  1.00  0.00     0.011 A 
ENDBRANCH   2  21
BRANCH   1  28
HETATM   28  C   UNL     1      -6.461   5.898 -31.390  1.00  0.00     0.293 C 
HETATM   29  O   UNL     1      -7.375   6.298 -32.095  1.00  0.00    -0.259 OA
BRANCH  28  30
HETATM   30  O   UNL     1      -5.526   6.672 -30.786  1.00  0.00    -0.318 OA
BRANCH  30  31
HETATM   31  C   UNL     1      -5.018   7.753 -31.586  1.00  0.00     0.174 C 
HETATM   32  C   UNL     1      -3.499   7.748 -31.594  1.00  0.00     0.034 C 
ENDBRANCH  30  31
ENDBRANCH  28  30
ENDBRANCH   1  28
TORSDOF 7
ENDMDL
MODEL 2
REMARK VINA RESULT:      -8.5      1.767      2.467
REMARK  7 active torsions:
REMARK  status: ('A' for Active; 'I' for Inactive)
REMARK    1  A    between atoms: C_2  and  O_3 
REMARK    2  A    between atoms: O_3  and  C_4 
REMARK    3  A    between atoms: C_4  and  C_5 
REMARK    4  A    between atoms: C_6  and  C_7 
REMARK    5  A    between atoms: C_18  and  S_19 
REMARK    6  A    between atoms: S_19  and  C_20 
REMARK    7  A    between atoms: C_20  and  C_21 
ROOT
HETATM    1  C   UNL     1      -7.480   4.249 -32.533  1.00  0.00     0.070 A 
HETATM    2  C   UNL     1      -6.397   3.445 -33.249  1.00  0.00     0.203 A 
HETATM    3  N   UNL     1      -6.097   2.195 -32.538  1.00  0.00    -0.082 N 
HETATM    4  C   UNL     1      -6.731   1.790 -31.397  1.00  0.00     0.726 A 
HETATM    5  N   UNL     1      -7.706   2.556 -30.876  1.00  0.00    -0.192 N 
HETATM    6  N   UNL     1      -5.193   1.281 -32.943  1.00  0.00    -0.128 NA
HETATM    7  C   UNL     1      -5.265   0.395 -31.941  1.00  0.00     0.226 A 
HETATM    8  N   UNL     1      -6.223   0.655 -30.993  1.00  0.00    -0.035 NA
HETATM    9  C   UNL     1      -8.084   3.783 -31.410  1.00  0.00     0.037 A 
HETATM   10  C   UNL     1      -9.194   4.496 -30.675  1.00  0.00     0.070 C 
HETATM   11  H   UNL     1      -8.157   2.258 -30.015  1.00  0.00     0.184 HD
ENDROOT
BRANCH   7  12
HETATM   12  S   UNL     1      -4.182  -0.965 -31.870  1.00  0.00    -0.083 SA
BRANCH  12  13
HETATM   13  C   UNL     1      -3.948  -1.276 -33.642  1.00  0.00     0.123 C 
BRANCH  13  14
HETATM   14  C   UNL     1      -4.696  -2.507 -34.096  1.00  0.00    -0.027 A 
HETATM   15  C   UNL     1      -5.980  -2.452 -34.665  1.00  0.00     0.041 A 
HETATM   16 CL   UNL     1      -6.816  -0.959 -34.905  1.00  0.00    -0.084 Cl
HETATM   17  C   UNL     1      -6.633  -3.624 -35.064  1.00  0.00     0.024 A 
HETATM   18  C   UNL     1      -6.020  -4.865 -34.890  1.00  0.00     0.002 A 
HETATM   19  C   UNL     1      -4.755  -4.937 -34.315  1.00  0.00     0.001 A 
HETATM   20  C   UNL     1      -4.098  -3.770 -33.922  1.00  0.00     0.009 A 
ENDBRANCH  13  14
ENDBRANCH  12  13
ENDBRANCH   7  12
BRANCH   2  21
HETATM   21  C   UNL     1      -5.102   4.222 -33.490  1.00  0.00    -0.028 A 
HETATM   22  C   UNL     1      -4.718   4.641 -34.775  1.00  0.00     0.011 A 
HETATM   23  C   UNL     1      -3.525   5.346 -34.962  1.00  0.00     0.024 A 
HETATM   24  C   UNL     1      -2.715   5.645 -33.869  1.00  0.00     0.034 A 
HETATM   25 CL   UNL     1      -1.246   6.510 -34.104  1.00  0.00    -0.084 Cl
HETATM   26  C   UNL     1      -3.086   5.249 -32.587  1.00  0.00     0.024 A 
HETATM   27  C   UNL     1      -4.275   4.543 -32.398  1.00  0.00     0.011 A 
ENDBRANCH   2  21
BRANCH   1  28
HETATM   28  C   UNL     1      -7.796   5.590 -33.073  1.00  0.00     0.293 C 
HETATM   29  O   UNL     1      -7.583   6.635 -32.478  1.00  0.00    -0.259 OA
BRANCH  28  30
HETATM   30  O   UNL     1      -8.317   5.478 -34.320  1.00  0.00    -0.318 OA
BRANCH  30  31
HETATM   31  C   UNL     1      -9.732   5.711 -34.414  1.00  0.00     0.174 C 
HETATM   32  C   UNL     1     -10.431   4.524 -35.054  1.00  0.00     0.034 C 
ENDBRANCH  30  31
ENDBRANCH  28  30
ENDBRANCH   1  28
TORSDOF 7
ENDMDL
MODEL 3
REMARK VINA RESULT:      -8.4      2.369      3.850
REMARK  7 active torsions:
REMARK  status: ('A' for Active; 'I' for Inactive)
REMARK    1  A    between atoms: C_2  and  O_3 
REMARK    2  A    between atoms: O_3  and  C_4 
REMARK    3  A    between atoms: C_4  and  C_5 
REMARK    4  A    between atoms: C_6  and  C_7 
REMARK    5  A    between atoms: C_18  and  S_19 
REMARK    6  A    between atoms: S_19  and  C_20 
REMARK    7  A    between atoms: C_20  and  C_21 
ROOT
HETATM    1  C   UNL     1      -5.770   4.097 -30.621  1.00  0.00     0.070 A 
HETATM    2  C   UNL     1      -6.183   2.630 -30.698  1.00  0.00     0.203 A 
HETATM    3  N   UNL     1      -5.037   1.764 -31.010  1.00  0.00    -0.082 N 
HETATM    4  C   UNL     1      -3.759   2.216 -31.177  1.00  0.00     0.726 A 
HETATM    5  N   UNL     1      -3.499   3.528 -31.041  1.00  0.00    -0.192 N 
HETATM    6  N   UNL     1      -5.100   0.423 -31.128  1.00  0.00    -0.128 NA
HETATM    7  C   UNL     1      -3.835   0.142 -31.467  1.00  0.00     0.226 A 
HETATM    8  N   UNL     1      -2.975   1.212 -31.473  1.00  0.00    -0.035 NA
HETATM    9  C   UNL     1      -4.478   4.480 -30.781  1.00  0.00     0.037 A 
HETATM   10  C   UNL     1      -3.986   5.904 -30.671  1.00  0.00     0.070 C 
HETATM   11  H   UNL     1      -2.548   3.858 -31.189  1.00  0.00     0.184 HD
ENDROOT
BRANCH   7  12
HETATM   12  S   UNL     1      -3.361  -1.478 -31.891  1.00  0.00    -0.083 SA
BRANCH  12  13
HETATM   13  C   UNL     1      -3.678  -1.442 -33.677  1.00  0.00     0.123 C 
BRANCH  13  14
HETATM   14  C   UNL     1      -4.645  -2.526 -34.094  1.00  0.00    -0.027 A 
HETATM   15  C   UNL     1      -5.991  -2.268 -34.402  1.00  0.00     0.041 A 
HETATM   16 CL   UNL     1      -6.661  -0.676 -34.339  1.00  0.00    -0.084 Cl
HETATM   17  C   UNL     1      -6.848  -3.308 -34.777  1.00  0.00     0.024 A 
HETATM   18  C   UNL     1      -6.378  -4.620 -34.839  1.00  0.00     0.002 A 
HETATM   19  C   UNL     1      -5.050  -4.894 -34.524  1.00  0.00     0.001 A 
HETATM   20  C   UNL     1      -4.191  -3.857 -34.155  1.00  0.00     0.009 A 
ENDBRANCH  13  14
ENDBRANCH  12  13
ENDBRANCH   7  12
BRANCH   2  21
HETATM   21  C   UNL     1      -7.319   2.353 -31.685  1.00  0.00    -0.028 A 
HETATM   22  C   UNL     1      -7.255   2.772 -33.024  1.00  0.00     0.011 A 
HETATM   23  C   UNL     1      -8.313   2.506 -33.900  1.00  0.00     0.024 A 
HETATM   24  C   UNL     1      -9.434   1.814 -33.446  1.00  0.00     0.034 A 
HETATM   25 CL   UNL     1     -10.735   1.492 -34.525  1.00  0.00    -0.084 Cl
HETATM   26  C   UNL     1      -9.508   1.380 -32.126  1.00  0.00     0.024 A 
HETATM   27  C   UNL     1      -8.455   1.646 -31.250  1.00  0.00     0.011 A 
ENDBRANCH   2  21
BRANCH   1  28
HETATM   28  C   UNL     1      -6.848   5.094 -30.434  1.00  0.00     0.293 C 
HETATM   29  O   UNL     1      -7.215   5.875 -31.298  1.00  0.00    -0.259 OA
BRANCH  28  30
HETATM   30  O   UNL     1      -7.374   4.983 -29.189  1.00  0.00    -0.318 OA
BRANCH  30  31
HETATM   31  C   UNL     1      -7.154   6.113 -28.329  1.00  0.00     0.174 C 
HETATM   32  C   UNL     1      -5.861   5.950 -27.548  1.00  0.00     0.034 C 
ENDBRANCH  30  31
ENDBRANCH  28  30
ENDBRANCH   1  28
TORSDOF 7
ENDMDL
MODEL 4
REMARK VINA RESULT:      -8.3      2.378      3.864
REMARK  7 active torsions:
REMARK  status: ('A' for Active; 'I' for Inactive)
REMARK    1  A    between atoms: C_2  and  O_3 
REMARK    2  A    between atoms: O_3  and  C_4 
REMARK    3  A    between atoms: C_4  and  C_5 
REMARK    4  A    between atoms: C_6  and  C_7 
REMARK    5  A    between atoms: C_18  and  S_19 
REMARK    6  A    between atoms: S_19  and  C_20 
REMARK    7  A    between atoms: C_20  and  C_21 
ROOT
HETATM    1  C   UNL     1      -5.786   4.109 -30.613  1.00  0.00     0.070 A 
HETATM    2  C   UNL     1      -6.197   2.639 -30.674  1.00  0.00     0.203 A 
HETATM    3  N   UNL     1      -5.054   1.775 -31.000  1.00  0.00    -0.082 N 
HETATM    4  C   UNL     1      -3.780   2.229 -31.193  1.00  0.00     0.726 A 
HETATM    5  N   UNL     1      -3.521   3.543 -31.070  1.00  0.00    -0.192 N 
HETATM    6  N   UNL     1      -5.115   0.433 -31.109  1.00  0.00    -0.128 NA
HETATM    7  C   UNL     1      -3.856   0.153 -31.469  1.00  0.00     0.226 A 
HETATM    8  N   UNL     1      -2.998   1.225 -31.496  1.00  0.00    -0.035 NA
HETATM    9  C   UNL     1      -4.498   4.494 -30.798  1.00  0.00     0.037 A 
HETATM   10  C   UNL     1      -4.008   5.920 -30.707  1.00  0.00     0.070 C 
HETATM   11  H   UNL     1      -2.574   3.874 -31.237  1.00  0.00     0.184 HD
ENDROOT
BRANCH   7  12
HETATM   12  S   UNL     1      -3.385  -1.468 -31.891  1.00  0.00    -0.083 SA
BRANCH  12  13
HETATM   13  C   UNL     1      -3.706  -1.436 -33.676  1.00  0.00     0.123 C 
BRANCH  13  14
HETATM   14  C   UNL     1      -4.622  -2.560 -34.098  1.00  0.00    -0.027 A 
HETATM   15  C   UNL     1      -5.959  -2.352 -34.479  1.00  0.00     0.041 A 
HETATM   16 CL   UNL     1      -6.672  -0.778 -34.507  1.00  0.00    -0.084 Cl
HETATM   17  C   UNL     1      -6.768  -3.429 -34.857  1.00  0.00     0.024 A 
HETATM   18  C   UNL     1      -6.260  -4.728 -34.847  1.00  0.00     0.002 A 
HETATM   19  C   UNL     1      -4.942  -4.953 -34.459  1.00  0.00     0.001 A 
HETATM   20  C   UNL     1      -4.130  -3.880 -34.088  1.00  0.00     0.009 A 
ENDBRANCH  13  14
ENDBRANCH  12  13
ENDBRANCH   7  12
BRANCH   2  21
HETATM   21  C   UNL     1      -7.348   2.353 -31.638  1.00  0.00    -0.028 A 
HETATM   22  C   UNL     1      -8.593   1.880 -31.188  1.00  0.00     0.011 A 
HETATM   23  C   UNL     1      -9.624   1.625 -32.097  1.00  0.00     0.024 A 
HETATM   24  C   UNL     1      -9.424   1.848 -33.457  1.00  0.00     0.034 A 
HETATM   25 CL   UNL     1     -10.694   1.529 -34.572  1.00  0.00    -0.084 Cl
HETATM   26  C   UNL     1      -8.202   2.329 -33.920  1.00  0.00     0.024 A 
HETATM   27  C   UNL     1      -7.170   2.583 -33.016  1.00  0.00     0.011 A 
ENDBRANCH   2  21
BRANCH   1  28
HETATM   28  C   UNL     1      -6.864   5.104 -30.413  1.00  0.00     0.293 C 
HETATM   29  O   UNL     1      -7.416   5.308 -29.343  1.00  0.00    -0.259 OA
BRANCH  28  30
HETATM   30  O   UNL     1      -7.112   5.760 -31.574  1.00  0.00    -0.318 OA
BRANCH  30  31
HETATM   31  C   UNL     1      -8.397   6.398 -31.652  1.00  0.00     0.174 C 
HETATM   32  C   UNL     1      -9.438   5.444 -32.214  1.00  0.00     0.034 C 
ENDBRANCH  30  31
ENDBRANCH  28  30
ENDBRANCH   1  28
TORSDOF 7
ENDMDL
MODEL 5
REMARK VINA RESULT:      -8.3      3.426      7.786
REMARK  7 active torsions:
REMARK  status: ('A' for Active; 'I' for Inactive)
REMARK    1  A    between atoms: C_2  and  O_3 
REMARK    2  A    between atoms: O_3  and  C_4 
REMARK    3  A    between atoms: C_4  and  C_5 
REMARK    4  A    between atoms: C_6  and  C_7 
REMARK    5  A    between atoms: C_18  and  S_19 
REMARK    6  A    between atoms: S_19  and  C_20 
REMARK    7  A    between atoms: C_20  and  C_21 
ROOT
HETATM    1  C   UNL     1      -8.245   3.720 -32.807  1.00  0.00     0.070 A 
HETATM    2  C   UNL     1      -6.891   3.061 -32.554  1.00  0.00     0.203 A 
HETATM    3  N   UNL     1      -5.787   3.901 -33.040  1.00  0.00    -0.082 N 
HETATM    4  C   UNL     1      -5.953   5.129 -33.615  1.00  0.00     0.726 A 
HETATM    5  N   UNL     1      -7.192   5.634 -33.747  1.00  0.00    -0.192 N 
HETATM    6  N   UNL     1      -4.481   3.582 -32.941  1.00  0.00    -0.128 NA
HETATM    7  C   UNL     1      -3.920   4.623 -33.570  1.00  0.00     0.226 A 
HETATM    8  N   UNL     1      -4.789   5.610 -33.966  1.00  0.00    -0.035 NA
HETATM    9  C   UNL     1      -8.342   4.951 -33.368  1.00  0.00     0.037 A 
HETATM   10  C   UNL     1      -9.641   5.685 -33.605  1.00  0.00     0.070 C 
HETATM   11  H   UNL     1      -7.308   6.539 -34.196  1.00  0.00     0.184 HD
ENDROOT
BRANCH   7  12
HETATM   12  S   UNL     1      -2.206   4.670 -33.869  1.00  0.00    -0.083 SA
BRANCH  12  13
HETATM   13  C   UNL     1      -1.841   6.368 -33.343  1.00  0.00     0.123 C 
BRANCH  13  14
HETATM   14  C   UNL     1      -1.097   6.397 -32.029  1.00  0.00    -0.027 A 
HETATM   15  C   UNL     1      -1.190   7.468 -31.125  1.00  0.00     0.041 A 
HETATM   16 CL   UNL     1      -2.179   8.851 -31.435  1.00  0.00    -0.084 Cl
HETATM   17  C   UNL     1      -0.475   7.449 -29.922  1.00  0.00     0.024 A 
HETATM   18  C   UNL     1       0.351   6.369 -29.612  1.00  0.00     0.002 A 
HETATM   19  C   UNL     1       0.465   5.306 -30.503  1.00  0.00     0.001 A 
HETATM   20  C   UNL     1      -0.252   5.319 -31.701  1.00  0.00     0.009 A 
ENDBRANCH  13  14
ENDBRANCH  12  13
ENDBRANCH   7  12
BRANCH   2  21
HETATM   21  C   UNL     1      -6.762   1.655 -33.140  1.00  0.00    -0.028 A 
HETATM   22  C   UNL     1      -6.872   1.414 -34.521  1.00  0.00     0.011 A 
HETATM   23  C   UNL     1      -6.754   0.115 -35.023  1.00  0.00     0.024 A 
HETATM   24  C   UNL     1      -6.516  -0.949 -34.155  1.00  0.00     0.034 A 
HETATM   25 CL   UNL     1      -6.374  -2.546 -34.778  1.00  0.00    -0.084 Cl
HETATM   26  C   UNL     1      -6.391  -0.727 -32.787  1.00  0.00     0.024 A 
HETATM   27  C   UNL     1      -6.511   0.569 -32.282  1.00  0.00     0.011 A 
ENDBRANCH   2  21
BRANCH   1  28
HETATM   28  C   UNL     1      -9.452   2.929 -32.477  1.00  0.00     0.293 C 
HETATM   29  O   UNL     1      -9.947   2.869 -31.362  1.00  0.00    -0.259 OA
BRANCH  28  30
HETATM   30  O   UNL     1      -9.929   2.322 -33.592  1.00  0.00    -0.318 OA
BRANCH  30  31
HETATM   31  C   UNL     1     -10.845   1.241 -33.354  1.00  0.00     0.174 C 
HETATM   32  C   UNL     1     -10.097  -0.019 -32.954  1.00  0.00     0.034 C 
ENDBRANCH  30  31
ENDBRANCH  28  30
ENDBRANCH   1  28
TORSDOF 7
ENDMDL
MODEL 6
REMARK VINA RESULT:      -8.1      5.081      7.278
REMARK  7 active torsions:
REMARK  status: ('A' for Active; 'I' for Inactive)
REMARK    1  A    between atoms: C_2  and  O_3 
REMARK    2  A    between atoms: O_3  and  C_4 
REMARK    3  A    between atoms: C_4  and  C_5 
REMARK    4  A    between atoms: C_6  and  C_7 
REMARK    5  A    between atoms: C_18  and  S_19 
REMARK    6  A    between atoms: S_19  and  C_20 
REMARK    7  A    between atoms: C_20  and  C_21 
ROOT
HETATM    1  C   UNL     1      -5.873  -0.446 -32.824  1.00  0.00     0.070 A 
HETATM    2  C   UNL     1      -6.171   0.761 -31.939  1.00  0.00     0.203 A 
HETATM    3  N   UNL     1      -7.563   1.207 -32.089  1.00  0.00    -0.082 N 
HETATM    4  C   UNL     1      -8.481   0.597 -32.897  1.00  0.00     0.726 A 
HETATM    5  N   UNL     1      -8.121  -0.491 -33.600  1.00  0.00    -0.192 N 
HETATM    6  N   UNL     1      -8.113   2.242 -31.423  1.00  0.00    -0.128 NA
HETATM    7  C   UNL     1      -9.341   2.259 -31.955  1.00  0.00     0.226 A 
HETATM    8  N   UNL     1      -9.616   1.243 -32.836  1.00  0.00    -0.035 NA
HETATM    9  C   UNL     1      -6.835  -1.018 -33.593  1.00  0.00     0.037 A 
HETATM   10  C   UNL     1      -6.628  -2.239 -34.457  1.00  0.00     0.070 C 
HETATM   11  H   UNL     1      -8.805  -0.926 -34.216  1.00  0.00     0.184 HD
ENDROOT
BRANCH   7  12
HETATM   12  S   UNL     1     -10.474   3.517 -31.550  1.00  0.00    -0.083 SA
BRANCH  12  13
HETATM   13  C   UNL     1     -11.394   3.627 -33.110  1.00  0.00     0.123 C 
BRANCH  13  14
HETATM   14  C   UNL     1     -12.746   2.961 -33.009  1.00  0.00    -0.027 A 
HETATM   15  C   UNL     1     -13.200   2.013 -33.941  1.00  0.00     0.041 A 
HETATM   16 CL   UNL     1     -12.239   1.516 -35.289  1.00  0.00    -0.084 Cl
HETATM   17  C   UNL     1     -14.464   1.429 -33.805  1.00  0.00     0.024 A 
HETATM   18  C   UNL     1     -15.297   1.792 -32.746  1.00  0.00     0.002 A 
HETATM   19  C   UNL     1     -14.867   2.740 -31.822  1.00  0.00     0.001 A 
HETATM   20  C   UNL     1     -13.604   3.320 -31.951  1.00  0.00     0.009 A 
ENDBRANCH  13  14
ENDBRANCH  12  13
ENDBRANCH   7  12
BRANCH   2  21
HETATM   21  C   UNL     1      -5.227   1.944 -32.158  1.00  0.00    -0.028 A 
HETATM   22  C   UNL     1      -5.413   2.856 -33.210  1.00  0.00     0.011 A 
HETATM   23  C   UNL     1      -4.528   3.925 -33.385  1.00  0.00     0.024 A 
HETATM   24  C   UNL     1      -3.460   4.095 -32.507  1.00  0.00     0.034 A 
HETATM   25 CL   UNL     1      -2.372   5.408 -32.728  1.00  0.00    -0.084 Cl
HETATM   26  C   UNL     1      -3.268   3.208 -31.451  1.00  0.00     0.024 A 
HETATM   27  C   UNL     1      -4.148   2.139 -31.275  1.00  0.00     0.011 A 
ENDBRANCH   2  21
BRANCH   1  28
HETATM   28  C   UNL     1      -4.473  -0.926 -32.864  1.00  0.00     0.293 C 
HETATM   29  O   UNL     1      -3.660  -0.593 -33.713  1.00  0.00    -0.259 OA
BRANCH  28  30
HETATM   30  O   UNL     1      -4.233  -1.749 -31.814  1.00  0.00    -0.318 OA
BRANCH  30  31
HETATM   31  C   UNL     1      -3.051  -2.558 -31.929  1.00  0.00     0.174 C 
HETATM   32  C   UNL     1      -3.370  -3.884 -32.598  1.00  0.00     0.034 C 
ENDBRANCH  30  31
ENDBRANCH  28  30
ENDBRANCH   1  28
TORSDOF 7
ENDMDL
MODEL 7
REMARK VINA RESULT:      -8.1      3.513      8.150
REMARK  7 active torsions:
REMARK  status: ('A' for Active; 'I' for Inactive)
REMARK    1  A    between atoms: C_2  and  O_3 
REMARK    2  A    between atoms: O_3  and  C_4 
REMARK    3  A    between atoms: C_4  and  C_5 
REMARK    4  A    between atoms: C_6  and  C_7 
REMARK    5  A    between atoms: C_18  and  S_19 
REMARK    6  A    between atoms: S_19  and  C_20 
REMARK    7  A    between atoms: C_20  and  C_21 
ROOT
HETATM    1  C   UNL     1      -4.557  -0.760 -33.218  1.00  0.00     0.070 A 
HETATM    2  C   UNL     1      -5.206   0.588 -33.524  1.00  0.00     0.203 A 
HETATM    3  N   UNL     1      -4.751   1.628 -32.590  1.00  0.00    -0.082 N 
HETATM    4  C   UNL     1      -3.839   1.419 -31.595  1.00  0.00     0.726 A 
HETATM    5  N   UNL     1      -3.295   0.199 -31.444  1.00  0.00    -0.192 N 
HETATM    6  N   UNL     1      -5.146   2.916 -32.627  1.00  0.00    -0.128 NA
HETATM    7  C   UNL     1      -4.505   3.405 -31.558  1.00  0.00     0.226 A 
HETATM    8  N   UNL     1      -3.666   2.526 -30.921  1.00  0.00    -0.035 NA
HETATM    9  C   UNL     1      -3.644  -0.898 -32.223  1.00  0.00     0.037 A 
HETATM   10  C   UNL     1      -2.926  -2.185 -31.892  1.00  0.00     0.070 C 
HETATM   11  H   UNL     1      -2.634   0.047 -30.686  1.00  0.00     0.184 HD
ENDROOT
BRANCH   7  12
HETATM   12  S   UNL     1      -4.766   5.043 -31.030  1.00  0.00    -0.083 SA
BRANCH  12  13
HETATM   13  C   UNL     1      -4.812   5.889 -32.635  1.00  0.00     0.123 C 
BRANCH  13  14
HETATM   14  C   UNL     1      -3.433   6.012 -33.240  1.00  0.00    -0.027 A 
HETATM   15  C   UNL     1      -2.523   7.014 -32.862  1.00  0.00     0.041 A 
HETATM   16 CL   UNL     1      -2.901   8.195 -31.659  1.00  0.00    -0.084 Cl
HETATM   17  C   UNL     1      -1.259   7.088 -33.458  1.00  0.00     0.024 A 
HETATM   18  C   UNL     1      -0.890   6.174 -34.444  1.00  0.00     0.002 A 
HETATM   19  C   UNL     1      -1.785   5.183 -34.839  1.00  0.00     0.001 A 
HETATM   20  C   UNL     1      -3.045   5.102 -34.242  1.00  0.00     0.009 A 
ENDBRANCH  13  14
ENDBRANCH  12  13
ENDBRANCH   7  12
BRANCH   2  21
HETATM   21  C   UNL     1      -6.734   0.553 -33.549  1.00  0.00    -0.028 A 
HETATM   22  C   UNL     1      -7.461   0.716 -34.741  1.00  0.00     0.011 A 
HETATM   23  C   UNL     1      -8.858   0.682 -34.728  1.00  0.00     0.024 A 
HETATM   24  C   UNL     1      -9.539   0.477 -33.529  1.00  0.00     0.034 A 
HETATM   25 CL   UNL     1     -11.258   0.440 -33.517  1.00  0.00    -0.084 Cl
HETATM   26  C   UNL     1      -8.835   0.301 -32.341  1.00  0.00     0.024 A 
HETATM   27  C   UNL     1      -7.440   0.336 -32.350  1.00  0.00     0.011 A 
ENDBRANCH   2  21
BRANCH   1  28
HETATM   28  C   UNL     1      -5.017  -1.926 -34.005  1.00  0.00     0.293 C 
HETATM   29  O   UNL     1      -4.407  -2.394 -34.954  1.00  0.00    -0.259 OA
BRANCH  28  30
HETATM   30  O   UNL     1      -6.181  -2.401 -33.496  1.00  0.00    -0.318 OA
BRANCH  30  31
HETATM   31  C   UNL     1      -7.094  -2.944 -34.463  1.00  0.00     0.174 C 
HETATM   32  C   UNL     1      -6.776  -4.403 -34.742  1.00  0.00     0.034 C 
ENDBRANCH  30  31
ENDBRANCH  28  30
ENDBRANCH   1  28
TORSDOF 7
ENDMDL
MODEL 8
REMARK VINA RESULT:      -8.0      3.527      7.637
REMARK  7 active torsions:
REMARK  status: ('A' for Active; 'I' for Inactive)
REMARK    1  A    between atoms: C_2  and  O_3 
REMARK    2  A    between atoms: O_3  and  C_4 
REMARK    3  A    between atoms: C_4  and  C_5 
REMARK    4  A    between atoms: C_6  and  C_7 
REMARK    5  A    between atoms: C_18  and  S_19 
REMARK    6  A    between atoms: S_19  and  C_20 
REMARK    7  A    between atoms: C_20  and  C_21 
ROOT
HETATM    1  C   UNL     1      -4.181  -1.475 -33.237  1.00  0.00     0.070 A 
HETATM    2  C   UNL     1      -4.587  -0.041 -33.568  1.00  0.00     0.203 A 
HETATM    3  N   UNL     1      -4.025   0.913 -32.602  1.00  0.00    -0.082 N 
HETATM    4  C   UNL     1      -3.217   0.561 -31.559  1.00  0.00     0.726 A 
HETATM    5  N   UNL     1      -2.885  -0.730 -31.387  1.00  0.00    -0.192 N 
HETATM    6  N   UNL     1      -4.206   2.248 -32.651  1.00  0.00    -0.128 NA
HETATM    7  C   UNL     1      -3.557   2.629 -31.544  1.00  0.00     0.226 A 
HETATM    8  N   UNL     1      -2.907   1.627 -30.867  1.00  0.00    -0.035 NA
HETATM    9  C   UNL     1      -3.360  -1.758 -32.194  1.00  0.00     0.037 A 
HETATM   10  C   UNL     1      -2.878  -3.142 -31.833  1.00  0.00     0.070 C 
HETATM   11  H   UNL     1      -2.300  -0.985 -30.595  1.00  0.00     0.184 HD
ENDROOT
BRANCH   7  12
HETATM   12  S   UNL     1      -3.581   4.288 -31.018  1.00  0.00    -0.083 SA
BRANCH  12  13
HETATM   13  C   UNL     1      -4.952   4.918 -32.026  1.00  0.00     0.123 C 
BRANCH  13  14
HETATM   14  C   UNL     1      -6.293   4.545 -31.438  1.00  0.00    -0.027 A 
HETATM   15  C   UNL     1      -7.363   4.077 -32.219  1.00  0.00     0.041 A 
HETATM   16 CL   UNL     1      -7.233   3.876 -33.931  1.00  0.00    -0.084 Cl
HETATM   17  C   UNL     1      -8.588   3.750 -31.627  1.00  0.00     0.024 A 
HETATM   18  C   UNL     1      -8.766   3.898 -30.251  1.00  0.00     0.002 A 
HETATM   19  C   UNL     1      -7.720   4.374 -29.466  1.00  0.00     0.001 A 
HETATM   20  C   UNL     1      -6.495   4.695 -30.053  1.00  0.00     0.009 A 
ENDBRANCH  13  14
ENDBRANCH  12  13
ENDBRANCH   7  12
BRANCH   2  21
HETATM   21  C   UNL     1      -6.098   0.169 -33.679  1.00  0.00    -0.028 A 
HETATM   22  C   UNL     1      -6.932   0.164 -32.548  1.00  0.00     0.011 A 
HETATM   23  C   UNL     1      -8.310   0.355 -32.685  1.00  0.00     0.024 A 
HETATM   24  C   UNL     1      -8.862   0.563 -33.948  1.00  0.00     0.034 A 
HETATM   25 CL   UNL     1     -10.559   0.795 -34.112  1.00  0.00    -0.084 Cl
HETATM   26  C   UNL     1      -8.049   0.585 -35.077  1.00  0.00     0.024 A 
HETATM   27  C   UNL     1      -6.674   0.391 -34.944  1.00  0.00     0.011 A 
ENDBRANCH   2  21
BRANCH   1  28
HETATM   28  C   UNL     1      -4.777  -2.553 -34.058  1.00  0.00     0.293 C 
HETATM   29  O   UNL     1      -4.216  -3.080 -35.007  1.00  0.00    -0.259 OA
BRANCH  28  30
HETATM   30  O   UNL     1      -6.004  -2.878 -33.581  1.00  0.00    -0.318 OA
BRANCH  30  31
HETATM   31  C   UNL     1      -6.992  -3.168 -34.582  1.00  0.00     0.174 C 
HETATM   32  C   UNL     1      -6.815  -4.577 -35.121  1.00  0.00     0.034 C 
ENDBRANCH  30  31
ENDBRANCH  28  30
ENDBRANCH   1  28
TORSDOF 7
ENDMDL
MODEL 9
REMARK VINA RESULT:      -7.8      3.070      4.838
REMARK  7 active torsions:
REMARK  status: ('A' for Active; 'I' for Inactive)
REMARK    1  A    between atoms: C_2  and  O_3 
REMARK    2  A    between atoms: O_3  and  C_4 
REMARK    3  A    between atoms: C_4  and  C_5 
REMARK    4  A    between atoms: C_6  and  C_7 
REMARK    5  A    between atoms: C_18  and  S_19 
REMARK    6  A    between atoms: S_19  and  C_20 
REMARK    7  A    between atoms: C_20  and  C_21 
ROOT
HETATM    1  C   UNL     1      -1.933   5.868 -32.385  1.00  0.00     0.070 A 
HETATM    2  C   UNL     1      -2.803   5.443 -31.205  1.00  0.00     0.203 A 
HETATM    3  N   UNL     1      -3.674   4.314 -31.559  1.00  0.00    -0.082 N 
HETATM    4  C   UNL     1      -3.678   3.702 -32.781  1.00  0.00     0.726 A 
HETATM    5  N   UNL     1      -2.834   4.130 -33.736  1.00  0.00    -0.192 N 
HETATM    6  N   UNL     1      -4.540   3.720 -30.714  1.00  0.00    -0.128 NA
HETATM    7  C   UNL     1      -5.107   2.820 -31.527  1.00  0.00     0.226 A 
HETATM    8  N   UNL     1      -4.579   2.755 -32.793  1.00  0.00    -0.035 NA
HETATM    9  C   UNL     1      -1.972   5.208 -33.570  1.00  0.00     0.037 A 
HETATM   10  C   UNL     1      -1.109   5.538 -34.765  1.00  0.00     0.070 C 
HETATM   11  H   UNL     1      -2.861   3.683 -34.650  1.00  0.00     0.184 HD
ENDROOT
BRANCH   7  12
HETATM   12  S   UNL     1      -6.437   1.837 -30.985  1.00  0.00    -0.083 SA
BRANCH  12  13
HETATM   13  C   UNL     1      -5.621   0.218 -30.907  1.00  0.00     0.123 C 
BRANCH  13  14
HETATM   14  C   UNL     1      -5.776  -0.547 -32.200  1.00  0.00    -0.027 A 
HETATM   15  C   UNL     1      -4.774  -1.389 -32.711  1.00  0.00     0.041 A 
HETATM   16 CL   UNL     1      -3.270  -1.631 -31.894  1.00  0.00    -0.084 Cl
HETATM   17  C   UNL     1      -4.964  -2.072 -33.917  1.00  0.00     0.024 A 
HETATM   18  C   UNL     1      -6.150  -1.915 -34.636  1.00  0.00     0.002 A 
HETATM   19  C   UNL     1      -7.147  -1.074 -34.149  1.00  0.00     0.001 A 
HETATM   20  C   UNL     1      -6.962  -0.396 -32.943  1.00  0.00     0.009 A 
ENDBRANCH  13  14
ENDBRANCH  12  13
ENDBRANCH   7  12
BRANCH   2  21
HETATM   21  C   UNL     1      -3.645   6.574 -30.613  1.00  0.00    -0.028 A 
HETATM   22  C   UNL     1      -3.445   7.039 -29.302  1.00  0.00     0.011 A 
HETATM   23  C   UNL     1      -4.235   8.073 -28.789  1.00  0.00     0.024 A 
HETATM   24  C   UNL     1      -5.221   8.654 -29.583  1.00  0.00     0.034 A 
HETATM   25 CL   UNL     1      -6.193   9.923 -28.947  1.00  0.00    -0.084 Cl
HETATM   26  C   UNL     1      -5.424   8.215 -30.888  1.00  0.00     0.024 A 
HETATM   27  C   UNL     1      -4.639   7.182 -31.402  1.00  0.00     0.011 A 
ENDBRANCH   2  21
BRANCH   1  28
HETATM   28  C   UNL     1      -1.093   7.074 -32.207  1.00  0.00     0.293 C 
HETATM   29  O   UNL     1      -1.429   8.198 -32.548  1.00  0.00    -0.259 OA
BRANCH  28  30
HETATM   30  O   UNL     1       0.068   6.745 -31.588  1.00  0.00    -0.318 OA
BRANCH  30  31
HETATM   31  C   UNL     1       0.166   7.158 -30.215  1.00  0.00     0.174 C 
HETATM   32  C   UNL     1       0.385   5.959 -29.308  1.00  0.00     0.034 C 
ENDBRANCH  30  31
ENDBRANCH  28  30
ENDBRANCH   1  28
TORSDOF 7
ENDMDL
MODEL 10
REMARK VINA RESULT:      -7.8      1.854      2.430
REMARK  7 active torsions:
REMARK  status: ('A' for Active; 'I' for Inactive)
REMARK    1  A    between atoms: C_2  and  O_3 
REMARK    2  A    between atoms: O_3  and  C_4 
REMARK    3  A    between atoms: C_4  and  C_5 
REMARK    4  A    between atoms: C_6  and  C_7 
REMARK    5  A    between atoms: C_18  and  S_19 
REMARK    6  A    between atoms: S_19  and  C_20 
REMARK    7  A    between atoms: C_20  and  C_21 
ROOT
HETATM    1  C   UNL     1      -7.648   3.524 -32.312  1.00  0.00     0.070 A 
HETATM    2  C   UNL     1      -6.484   2.882 -33.062  1.00  0.00     0.203 A 
HETATM    3  N   UNL     1      -6.059   1.629 -32.423  1.00  0.00    -0.082 N 
HETATM    4  C   UNL     1      -6.653   1.092 -31.316  1.00  0.00     0.726 A 
HETATM    5  N   UNL     1      -7.705   1.721 -30.762  1.00  0.00    -0.192 N 
HETATM    6  N   UNL     1      -5.062   0.840 -32.872  1.00  0.00    -0.128 NA
HETATM    7  C   UNL     1      -5.047  -0.107 -31.926  1.00  0.00     0.226 A 
HETATM    8  N   UNL     1      -6.032  -0.006 -30.974  1.00  0.00    -0.035 NA
HETATM    9  C   UNL     1      -8.207   2.931 -31.227  1.00  0.00     0.037 A 
HETATM   10  C   UNL     1      -9.388   3.480 -30.463  1.00  0.00     0.070 C 
HETATM   11  H   UNL     1      -8.127   1.325 -29.925  1.00  0.00     0.184 HD
ENDROOT
BRANCH   7  12
HETATM   12  S   UNL     1      -3.828  -1.350 -31.923  1.00  0.00    -0.083 SA
BRANCH  12  13
HETATM   13  C   UNL     1      -3.690  -1.660 -33.705  1.00  0.00     0.123 C 
BRANCH  13  14
HETATM   14  C   UNL     1      -4.738  -2.637 -34.184  1.00  0.00    -0.027 A 
HETATM   15  C   UNL     1      -4.539  -4.027 -34.187  1.00  0.00     0.041 A 
HETATM   16 CL   UNL     1      -3.070  -4.747 -33.630  1.00  0.00    -0.084 Cl
HETATM   17  C   UNL     1      -5.540  -4.890 -34.647  1.00  0.00     0.024 A 
HETATM   18  C   UNL     1      -6.748  -4.376 -35.121  1.00  0.00     0.002 A 
HETATM   19  C   UNL     1      -6.955  -3.000 -35.137  1.00  0.00     0.001 A 
HETATM   20  C   UNL     1      -5.961  -2.137 -34.674  1.00  0.00     0.009 A 
ENDBRANCH  13  14
ENDBRANCH  12  13
ENDBRANCH   7  12
BRANCH   2  21
HETATM   21  C   UNL     1      -5.276   3.802 -33.243  1.00  0.00    -0.028 A 
HETATM   22  C   UNL     1      -4.993   4.421 -34.472  1.00  0.00     0.011 A 
HETATM   23  C   UNL     1      -3.877   5.254 -34.604  1.00  0.00     0.024 A 
HETATM   24  C   UNL     1      -3.044   5.481 -33.511  1.00  0.00     0.034 A 
HETATM   25 CL   UNL     1      -1.671   6.503 -33.678  1.00  0.00    -0.084 Cl
HETATM   26  C   UNL     1      -3.317   4.886 -32.282  1.00  0.00     0.024 A 
HETATM   27  C   UNL     1      -4.428   4.053 -32.147  1.00  0.00     0.011 A 
ENDBRANCH   2  21
BRANCH   1  28
HETATM   28  C   UNL     1      -8.099   4.855 -32.776  1.00  0.00     0.293 C 
HETATM   29  O   UNL     1      -8.772   5.038 -33.779  1.00  0.00    -0.259 OA
BRANCH  28  30
HETATM   30  O   UNL     1      -7.684   5.814 -31.912  1.00  0.00    -0.318 OA
BRANCH  30  31
HETATM   31  C   UNL     1      -8.155   7.141 -32.200  1.00  0.00     0.174 C 
HETATM   32  C   UNL     1      -9.220   7.562 -31.201  1.00  0.00     0.034 C 
ENDBRANCH  30  31
ENDBRANCH  28  30
ENDBRANCH   1  28
TORSDOF 7
ENDMDL
