MODEL 1
REMARK VINA RESULT:      -9.0      0.000      0.000
REMARK  7 active torsions:
REMARK  status: ('A' for Active; 'I' for Inactive)
REMARK    1  A    between atoms: C_7  and  C_8 
REMARK       I    between atoms: C_8  and  N_9 
REMARK    2  A    between atoms: N_9  and  C_10 
REMARK    3  A    between atoms: C_10  and  C_11 
REMARK    4  A    between atoms: C_11  and  O_12 
REMARK    5  A    between atoms: C_11  and  C_13 
REMARK    6  A    between atoms: C_15  and  O_16 
REMARK    7  A    between atoms: O_16  and  C_17 
ROOT
HETATM    1  C   UNL     1      -3.507   2.967 -31.568  1.00  0.00     0.253 C 
HETATM    2  N   UNL     1      -4.873   2.859 -31.536  1.00  0.00    -0.354 N 
HETATM    3  O   UNL     1      -2.744   2.094 -31.169  1.00  0.00    -0.268 OA
HETATM    4  H   UNL     1      -5.448   3.489 -32.080  1.00  0.00     0.162 HD
ENDROOT
BRANCH   2   5
HETATM    5  C   UNL     1      -5.536   1.650 -31.068  1.00  0.00     0.159 C 
BRANCH   5   6
HETATM    6  C   UNL     1      -6.279   0.913 -32.197  1.00  0.00     0.169 C 
BRANCH   6   7
HETATM    7  O   UNL     1      -7.620   0.626 -31.779  1.00  0.00    -0.389 OA
HETATM    8  H   UNL     1      -7.943  -0.084 -32.362  1.00  0.00     0.210 HD
ENDBRANCH   6   7
BRANCH   6   9
HETATM    9  C   UNL     1      -5.573  -0.355 -32.643  1.00  0.00    -0.025 A 
HETATM   10  C   UNL     1      -6.089  -1.096 -33.722  1.00  0.00     0.046 A 
HETATM   11  C   UNL     1      -5.440  -2.248 -34.175  1.00  0.00     0.075 A 
HETATM   12  C   UNL     1      -4.251  -2.648 -33.561  1.00  0.00     0.037 A 
HETATM   13  C   UNL     1      -3.725  -1.924 -32.494  1.00  0.00     0.003 A 
HETATM   14  C   UNL     1      -4.382  -0.783 -32.036  1.00  0.00     0.010 A 
BRANCH  11  15
HETATM   15  O   UNL     1      -5.838  -3.037 -35.217  1.00  0.00    -0.290 OA
BRANCH  15  16
HETATM   16  C   UNL     1      -6.477  -4.256 -34.879  1.00  0.00     0.505 C 
HETATM   17  F   UNL     1      -7.541  -3.999 -34.079  1.00  0.00    -0.184 F 
HETATM   18  F   UNL     1      -6.971  -4.787 -36.025  1.00  0.00    -0.184 F 
ENDBRANCH  15  16
ENDBRANCH  11  15
ENDBRANCH   6   9
ENDBRANCH   5   6
ENDBRANCH   2   5
BRANCH   1  19
HETATM   19  C   UNL     1      -2.981   4.221 -32.196  1.00  0.00     0.048 A 
HETATM   20  C   UNL     1      -2.420   4.171 -33.548  1.00  0.00     0.022 A 
HETATM   21  C   UNL     1      -1.918   5.266 -34.149  1.00  0.00     0.054 A 
HETATM   22  C   UNL     1      -1.923   6.506 -33.458  1.00  0.00     0.157 A 
HETATM   23  N   UNL     1      -2.433   6.522 -32.168  1.00  0.00    -0.291 N 
HETATM   24  N   UNL     1      -1.519   7.712 -33.787  1.00  0.00    -0.130 NA
HETATM   25  C   UNL     1      -2.305   7.830 -31.752  1.00  0.00     0.130 A 
HETATM   26  C   UNL     1      -2.951   5.395 -31.531  1.00  0.00     0.117 A 
HETATM   27  C   UNL     1      -2.717   8.337 -30.424  1.00  0.00     0.094 C 
HETATM   28  N   UNL     1      -1.758   8.543 -32.717  1.00  0.00    -0.135 NA
ENDBRANCH   1  19
TORSDOF 7
ENDMDL
MODEL 2
REMARK VINA RESULT:      -8.8      1.922      2.414
REMARK  7 active torsions:
REMARK  status: ('A' for Active; 'I' for Inactive)
REMARK    1  A    between atoms: C_7  and  C_8 
REMARK       I    between atoms: C_8  and  N_9 
REMARK    2  A    between atoms: N_9  and  C_10 
REMARK    3  A    between atoms: C_10  and  C_11 
REMARK    4  A    between atoms: C_11  and  O_12 
REMARK    5  A    between atoms: C_11  and  C_13 
REMARK    6  A    between atoms: C_15  and  O_16 
REMARK    7  A    between atoms: O_16  and  C_17 
ROOT
HETATM    1  C   UNL     1      -3.773   2.709 -31.531  1.00  0.00     0.253 C 
HETATM    2  N   UNL     1      -5.124   2.625 -31.320  1.00  0.00    -0.354 N 
HETATM    3  O   UNL     1      -2.975   1.838 -31.203  1.00  0.00    -0.268 OA
HETATM    4  H   UNL     1      -5.758   3.245 -31.807  1.00  0.00     0.162 HD
ENDROOT
BRANCH   2   5
HETATM    5  C   UNL     1      -5.735   1.443 -30.727  1.00  0.00     0.159 C 
BRANCH   5   6
HETATM    6  C   UNL     1      -6.827   0.833 -31.625  1.00  0.00     0.169 C 
BRANCH   6   7
HETATM    7  O   UNL     1      -7.889   0.325 -30.808  1.00  0.00    -0.389 OA
HETATM    8  H   UNL     1      -7.466  -0.182 -30.092  1.00  0.00     0.210 HD
ENDBRANCH   6   7
BRANCH   6   9
HETATM    9  C   UNL     1      -6.298  -0.247 -32.551  1.00  0.00    -0.025 A 
HETATM   10  C   UNL     1      -5.036  -0.819 -32.303  1.00  0.00     0.046 A 
HETATM   11  C   UNL     1      -4.539  -1.839 -33.119  1.00  0.00     0.075 A 
HETATM   12  C   UNL     1      -5.320  -2.308 -34.177  1.00  0.00     0.037 A 
HETATM   13  C   UNL     1      -6.572  -1.755 -34.435  1.00  0.00     0.003 A 
HETATM   14  C   UNL     1      -7.059  -0.729 -33.627  1.00  0.00     0.010 A 
BRANCH  11  15
HETATM   15  O   UNL     1      -3.340  -2.476 -32.968  1.00  0.00    -0.290 OA
BRANCH  15  16
HETATM   16  C   UNL     1      -3.375  -3.752 -32.353  1.00  0.00     0.505 C 
HETATM   17  F   UNL     1      -3.035  -4.699 -33.260  1.00  0.00    -0.184 F 
HETATM   18  F   UNL     1      -2.414  -3.767 -31.395  1.00  0.00    -0.184 F 
ENDBRANCH  15  16
ENDBRANCH  11  15
ENDBRANCH   6   9
ENDBRANCH   5   6
ENDBRANCH   2   5
BRANCH   1  19
HETATM   19  C   UNL     1      -3.318   3.932 -32.267  1.00  0.00     0.048 A 
HETATM   20  C   UNL     1      -4.020   4.346 -33.483  1.00  0.00     0.022 A 
HETATM   21  C   UNL     1      -3.639   5.426 -34.191  1.00  0.00     0.054 A 
HETATM   22  C   UNL     1      -2.522   6.188 -33.755  1.00  0.00     0.157 A 
HETATM   23  N   UNL     1      -1.857   5.759 -32.616  1.00  0.00    -0.291 N 
HETATM   24  N   UNL     1      -1.941   7.268 -34.225  1.00  0.00    -0.130 NA
HETATM   25  C   UNL     1      -0.833   6.667 -32.441  1.00  0.00     0.130 A 
HETATM   26  C   UNL     1      -2.236   4.639 -31.877  1.00  0.00     0.117 A 
HETATM   27  C   UNL     1       0.157   6.618 -31.343  1.00  0.00     0.094 C 
HETATM   28  N   UNL     1      -0.882   7.569 -33.402  1.00  0.00    -0.135 NA
ENDBRANCH   1  19
TORSDOF 7
ENDMDL
MODEL 3
REMARK VINA RESULT:      -8.8      4.914      9.138
REMARK  7 active torsions:
REMARK  status: ('A' for Active; 'I' for Inactive)
REMARK    1  A    between atoms: C_7  and  C_8 
REMARK       I    between atoms: C_8  and  N_9 
REMARK    2  A    between atoms: N_9  and  C_10 
REMARK    3  A    between atoms: C_10  and  C_11 
REMARK    4  A    between atoms: C_11  and  O_12 
REMARK    5  A    between atoms: C_11  and  C_13 
REMARK    6  A    between atoms: C_15  and  O_16 
REMARK    7  A    between atoms: O_16  and  C_17 
ROOT
HETATM    1  C   UNL     1      -4.514   0.413 -32.943  1.00  0.00     0.253 C 
HETATM    2  N   UNL     1      -5.412   1.417 -32.687  1.00  0.00    -0.354 N 
HETATM    3  O   UNL     1      -3.326   0.469 -32.643  1.00  0.00    -0.268 OA
HETATM    4  H   UNL     1      -6.406   1.238 -32.737  1.00  0.00     0.162 HD
ENDROOT
BRANCH   2   5
HETATM    5  C   UNL     1      -5.027   2.627 -31.975  1.00  0.00     0.159 C 
BRANCH   5   6
HETATM    6  C   UNL     1      -5.107   3.882 -32.864  1.00  0.00     0.169 C 
BRANCH   6   7
HETATM    7  O   UNL     1      -5.804   3.566 -34.076  1.00  0.00    -0.389 OA
HETATM    8  H   UNL     1      -5.625   2.626 -34.257  1.00  0.00     0.210 HD
ENDBRANCH   6   7
BRANCH   6   9
HETATM    9  C   UNL     1      -3.745   4.480 -33.168  1.00  0.00    -0.025 A 
HETATM   10  C   UNL     1      -2.706   4.359 -32.226  1.00  0.00     0.046 A 
HETATM   11  C   UNL     1      -1.433   4.870 -32.495  1.00  0.00     0.075 A 
HETATM   12  C   UNL     1      -1.190   5.486 -33.724  1.00  0.00     0.037 A 
HETATM   13  C   UNL     1      -2.206   5.612 -34.668  1.00  0.00     0.003 A 
HETATM   14  C   UNL     1      -3.478   5.112 -34.392  1.00  0.00     0.010 A 
BRANCH  11  15
HETATM   15  O   UNL     1      -0.349   4.800 -31.667  1.00  0.00    -0.290 OA
BRANCH  15  16
HETATM   16  C   UNL     1      -0.137   5.907 -30.808  1.00  0.00     0.505 C 
HETATM   17  F   UNL     1       0.250   5.462 -29.587  1.00  0.00    -0.184 F 
HETATM   18  F   UNL     1       0.905   6.618 -31.311  1.00  0.00    -0.184 F 
ENDBRANCH  15  16
ENDBRANCH  11  15
ENDBRANCH   6   9
ENDBRANCH   5   6
ENDBRANCH   2   5
BRANCH   1  19
HETATM   19  C   UNL     1      -5.094  -0.818 -33.568  1.00  0.00     0.048 A 
HETATM   20  C   UNL     1      -6.423  -0.759 -34.181  1.00  0.00     0.022 A 
HETATM   21  C   UNL     1      -6.997  -1.841 -34.738  1.00  0.00     0.054 A 
HETATM   22  C   UNL     1      -6.303  -3.080 -34.732  1.00  0.00     0.157 A 
HETATM   23  N   UNL     1      -5.058  -3.117 -34.121  1.00  0.00    -0.291 N 
HETATM   24  N   UNL     1      -6.601  -4.272 -35.197  1.00  0.00    -0.130 NA
HETATM   25  C   UNL     1      -4.634  -4.422 -34.258  1.00  0.00     0.130 A 
HETATM   26  C   UNL     1      -4.455  -2.006 -33.534  1.00  0.00     0.117 A 
HETATM   27  C   UNL     1      -3.346  -4.948 -33.753  1.00  0.00     0.094 C 
HETATM   28  N   UNL     1      -5.555  -5.114 -34.900  1.00  0.00    -0.135 NA
ENDBRANCH   1  19
TORSDOF 7
ENDMDL
MODEL 4
REMARK VINA RESULT:      -8.7      1.565      2.150
REMARK  7 active torsions:
REMARK  status: ('A' for Active; 'I' for Inactive)
REMARK    1  A    between atoms: C_7  and  C_8 
REMARK       I    between atoms: C_8  and  N_9 
REMARK    2  A    between atoms: N_9  and  C_10 
REMARK    3  A    between atoms: C_10  and  C_11 
REMARK    4  A    between atoms: C_11  and  O_12 
REMARK    5  A    between atoms: C_11  and  C_13 
REMARK    6  A    between atoms: C_15  and  O_16 
REMARK    7  A    between atoms: O_16  and  C_17 
ROOT
HETATM    1  C   UNL     1      -4.077   2.941 -31.342  1.00  0.00     0.253 C 
HETATM    2  N   UNL     1      -3.435   1.743 -31.516  1.00  0.00    -0.354 N 
HETATM    3  O   UNL     1      -4.996   3.113 -30.548  1.00  0.00    -0.268 OA
HETATM    4  H   UNL     1      -2.547   1.704 -31.999  1.00  0.00     0.162 HD
ENDROOT
BRANCH   2   5
HETATM    5  C   UNL     1      -3.764   0.573 -30.714  1.00  0.00     0.159 C 
BRANCH   5   6
HETATM    6  C   UNL     1      -3.603  -0.742 -31.500  1.00  0.00     0.169 C 
BRANCH   6   7
HETATM    7  O   UNL     1      -2.352  -0.730 -32.201  1.00  0.00    -0.389 OA
HETATM    8  H   UNL     1      -2.367  -1.497 -32.800  1.00  0.00     0.210 HD
ENDBRANCH   6   7
BRANCH   6   9
HETATM    9  C   UNL     1      -4.752  -1.005 -32.456  1.00  0.00    -0.025 A 
HETATM   10  C   UNL     1      -4.612  -1.981 -33.460  1.00  0.00     0.046 A 
HETATM   11  C   UNL     1      -5.667  -2.268 -34.332  1.00  0.00     0.075 A 
HETATM   12  C   UNL     1      -6.879  -1.592 -34.183  1.00  0.00     0.037 A 
HETATM   13  C   UNL     1      -7.035  -0.624 -33.193  1.00  0.00     0.003 A 
HETATM   14  C   UNL     1      -5.977  -0.332 -32.334  1.00  0.00     0.010 A 
BRANCH  11  15
HETATM   15  O   UNL     1      -5.652  -3.200 -35.331  1.00  0.00    -0.290 OA
BRANCH  15  16
HETATM   16  C   UNL     1      -6.199  -4.469 -35.020  1.00  0.00     0.505 C 
HETATM   17  F   UNL     1      -7.133  -4.796 -35.946  1.00  0.00    -0.184 F 
HETATM   18  F   UNL     1      -5.201  -5.382 -35.135  1.00  0.00    -0.184 F 
ENDBRANCH  15  16
ENDBRANCH  11  15
ENDBRANCH   6   9
ENDBRANCH   5   6
ENDBRANCH   2   5
BRANCH   1  19
HETATM   19  C   UNL     1      -3.535   4.078 -32.151  1.00  0.00     0.048 A 
HETATM   20  C   UNL     1      -4.188   4.445 -33.410  1.00  0.00     0.022 A 
HETATM   21  C   UNL     1      -3.729   5.446 -34.183  1.00  0.00     0.054 A 
HETATM   22  C   UNL     1      -2.577   6.169 -33.778  1.00  0.00     0.157 A 
HETATM   23  N   UNL     1      -1.959   5.785 -32.596  1.00  0.00    -0.291 N 
HETATM   24  N   UNL     1      -1.923   7.176 -34.309  1.00  0.00    -0.130 NA
HETATM   25  C   UNL     1      -0.886   6.641 -32.462  1.00  0.00     0.130 A 
HETATM   26  C   UNL     1      -2.420   4.746 -31.789  1.00  0.00     0.117 A 
HETATM   27  C   UNL     1       0.079   6.614 -31.341  1.00  0.00     0.094 C 
HETATM   28  N   UNL     1      -0.862   7.473 -33.485  1.00  0.00    -0.135 NA
ENDBRANCH   1  19
TORSDOF 7
ENDMDL
MODEL 5
REMARK VINA RESULT:      -8.5      1.654      2.761
REMARK  7 active torsions:
REMARK  status: ('A' for Active; 'I' for Inactive)
REMARK    1  A    between atoms: C_7  and  C_8 
REMARK       I    between atoms: C_8  and  N_9 
REMARK    2  A    between atoms: N_9  and  C_10 
REMARK    3  A    between atoms: C_10  and  C_11 
REMARK    4  A    between atoms: C_11  and  O_12 
REMARK    5  A    between atoms: C_11  and  C_13 
REMARK    6  A    between atoms: C_15  and  O_16 
REMARK    7  A    between atoms: O_16  and  C_17 
ROOT
HETATM    1  C   UNL     1      -4.876   3.943 -30.688  1.00  0.00     0.253 C 
HETATM    2  N   UNL     1      -4.426   2.712 -31.089  1.00  0.00    -0.354 N 
HETATM    3  O   UNL     1      -5.811   4.108 -29.913  1.00  0.00    -0.268 OA
HETATM    4  H   UNL     1      -3.523   2.618 -31.534  1.00  0.00     0.162 HD
ENDROOT
BRANCH   2   5
HETATM    5  C   UNL     1      -5.001   1.479 -30.570  1.00  0.00     0.159 C 
BRANCH   5   6
HETATM    6  C   UNL     1      -4.202   0.234 -30.995  1.00  0.00     0.169 C 
BRANCH   6   7
HETATM    7  O   UNL     1      -2.864   0.619 -31.339  1.00  0.00    -0.389 OA
HETATM    8  H   UNL     1      -2.698   0.263 -32.230  1.00  0.00     0.210 HD
ENDBRANCH   6   7
BRANCH   6   9
HETATM    9  C   UNL     1      -4.852  -0.528 -32.136  1.00  0.00    -0.025 A 
HETATM   10  C   UNL     1      -4.125  -1.526 -32.810  1.00  0.00     0.046 A 
HETATM   11  C   UNL     1      -4.711  -2.266 -33.841  1.00  0.00     0.075 A 
HETATM   12  C   UNL     1      -6.043  -2.023 -34.184  1.00  0.00     0.037 A 
HETATM   13  C   UNL     1      -6.778  -1.040 -33.525  1.00  0.00     0.003 A 
HETATM   14  C   UNL     1      -6.186  -0.296 -32.505  1.00  0.00     0.010 A 
BRANCH  11  15
HETATM   15  O   UNL     1      -4.111  -3.264 -34.555  1.00  0.00    -0.290 OA
BRANCH  15  16
HETATM   16  C   UNL     1      -4.145  -4.559 -33.982  1.00  0.00     0.505 C 
HETATM   17  F   UNL     1      -4.835  -5.394 -34.797  1.00  0.00    -0.184 F 
HETATM   18  F   UNL     1      -2.869  -5.020 -33.944  1.00  0.00    -0.184 F 
ENDBRANCH  15  16
ENDBRANCH  11  15
ENDBRANCH   6   9
ENDBRANCH   5   6
ENDBRANCH   2   5
BRANCH   1  19
HETATM   19  C   UNL     1      -4.097   5.109 -31.214  1.00  0.00     0.048 A 
HETATM   20  C   UNL     1      -4.166   6.397 -30.520  1.00  0.00     0.022 A 
HETATM   21  C   UNL     1      -3.499   7.479 -30.963  1.00  0.00     0.054 A 
HETATM   22  C   UNL     1      -2.710   7.380 -32.139  1.00  0.00     0.157 A 
HETATM   23  N   UNL     1      -2.683   6.157 -32.795  1.00  0.00    -0.291 N 
HETATM   24  N   UNL     1      -1.961   8.243 -32.786  1.00  0.00    -0.130 NA
HETATM   25  C   UNL     1      -1.859   6.357 -33.882  1.00  0.00     0.130 A 
HETATM   26  C   UNL     1      -3.373   5.030 -32.351  1.00  0.00     0.117 A 
HETATM   27  C   UNL     1      -1.527   5.324 -34.888  1.00  0.00     0.094 C 
HETATM   28  N   UNL     1      -1.428   7.603 -33.879  1.00  0.00    -0.135 NA
ENDBRANCH   1  19
TORSDOF 7
ENDMDL
MODEL 6
REMARK VINA RESULT:      -8.4      5.534      8.549
REMARK  7 active torsions:
REMARK  status: ('A' for Active; 'I' for Inactive)
REMARK    1  A    between atoms: C_7  and  C_8 
REMARK       I    between atoms: C_8  and  N_9 
REMARK    2  A    between atoms: N_9  and  C_10 
REMARK    3  A    between atoms: C_10  and  C_11 
REMARK    4  A    between atoms: C_11  and  O_12 
REMARK    5  A    between atoms: C_11  and  C_13 
REMARK    6  A    between atoms: C_15  and  O_16 
REMARK    7  A    between atoms: O_16  and  C_17 
ROOT
HETATM    1  C   UNL     1      -6.734   0.562 -33.813  1.00  0.00     0.253 C 
HETATM    2  N   UNL     1      -7.376   0.924 -32.658  1.00  0.00    -0.354 N 
HETATM    3  O   UNL     1      -6.789   1.206 -34.855  1.00  0.00    -0.268 OA
HETATM    4  H   UNL     1      -7.120   0.501 -31.776  1.00  0.00     0.162 HD
ENDROOT
BRANCH   2   5
HETATM    5  C   UNL     1      -8.142   2.159 -32.562  1.00  0.00     0.159 C 
BRANCH   5   6
HETATM    6  C   UNL     1      -9.632   1.904 -32.267  1.00  0.00     0.169 C 
BRANCH   6   7
HETATM    7  O   UNL     1      -9.811   0.546 -31.845  1.00  0.00    -0.389 OA
HETATM    8  H   UNL     1      -9.418  -0.011 -32.542  1.00  0.00     0.210 HD
ENDBRANCH   6   7
BRANCH   6   9
HETATM    9  C   UNL     1     -10.533   2.223 -33.447  1.00  0.00    -0.025 A 
HETATM   10  C   UNL     1     -11.628   1.387 -33.732  1.00  0.00     0.046 A 
HETATM   11  C   UNL     1     -12.493   1.676 -34.792  1.00  0.00     0.075 A 
HETATM   12  C   UNL     1     -12.276   2.824 -35.556  1.00  0.00     0.037 A 
HETATM   13  C   UNL     1     -11.198   3.664 -35.285  1.00  0.00     0.003 A 
HETATM   14  C   UNL     1     -10.330   3.366 -34.236  1.00  0.00     0.010 A 
BRANCH  11  15
HETATM   15  O   UNL     1     -13.591   0.948 -35.153  1.00  0.00    -0.290 OA
BRANCH  15  16
HETATM   16  C   UNL     1     -14.572   0.744 -34.151  1.00  0.00     0.505 C 
HETATM   17  F   UNL     1     -15.779   0.552 -34.736  1.00  0.00    -0.184 F 
HETATM   18  F   UNL     1     -14.262  -0.411 -33.510  1.00  0.00    -0.184 F 
ENDBRANCH  15  16
ENDBRANCH  11  15
ENDBRANCH   6   9
ENDBRANCH   5   6
ENDBRANCH   2   5
BRANCH   1  19
HETATM   19  C   UNL     1      -5.884  -0.667 -33.711  1.00  0.00     0.048 A 
HETATM   20  C   UNL     1      -4.626  -0.615 -32.964  1.00  0.00     0.022 A 
HETATM   21  C   UNL     1      -3.817  -1.686 -32.859  1.00  0.00     0.054 A 
HETATM   22  C   UNL     1      -4.185  -2.903 -33.492  1.00  0.00     0.157 A 
HETATM   23  N   UNL     1      -5.368  -2.919 -34.217  1.00  0.00    -0.291 N 
HETATM   24  N   UNL     1      -3.615  -4.085 -33.552  1.00  0.00    -0.130 NA
HETATM   25  C   UNL     1      -5.460  -4.202 -34.715  1.00  0.00     0.130 A 
HETATM   26  C   UNL     1      -6.211  -1.816 -34.340  1.00  0.00     0.117 A 
HETATM   27  C   UNL     1      -6.567  -4.699 -35.562  1.00  0.00     0.094 C 
HETATM   28  N   UNL     1      -4.414  -4.900 -34.319  1.00  0.00    -0.135 NA
ENDBRANCH   1  19
TORSDOF 7
ENDMDL
MODEL 7
REMARK VINA RESULT:      -8.3      1.768      1.901
REMARK  7 active torsions:
REMARK  status: ('A' for Active; 'I' for Inactive)
REMARK    1  A    between atoms: C_7  and  C_8 
REMARK       I    between atoms: C_8  and  N_9 
REMARK    2  A    between atoms: N_9  and  C_10 
REMARK    3  A    between atoms: C_10  and  C_11 
REMARK    4  A    between atoms: C_11  and  O_12 
REMARK    5  A    between atoms: C_11  and  C_13 
REMARK    6  A    between atoms: C_15  and  O_16 
REMARK    7  A    between atoms: O_16  and  C_17 
ROOT
HETATM    1  C   UNL     1      -5.997   4.379 -32.807  1.00  0.00     0.253 C 
HETATM    2  N   UNL     1      -6.063   3.175 -33.458  1.00  0.00    -0.354 N 
HETATM    3  O   UNL     1      -6.807   4.742 -31.961  1.00  0.00    -0.268 OA
HETATM    4  H   UNL     1      -5.261   2.824 -33.965  1.00  0.00     0.162 HD
ENDROOT
BRANCH   2   5
HETATM    5  C   UNL     1      -7.089   2.190 -33.148  1.00  0.00     0.159 C 
BRANCH   5   6
HETATM    6  C   UNL     1      -7.245   1.134 -34.258  1.00  0.00     0.169 C 
BRANCH   6   7
HETATM    7  O   UNL     1      -8.619   0.737 -34.350  1.00  0.00    -0.389 OA
HETATM    8  H   UNL     1      -9.060   1.404 -34.906  1.00  0.00     0.210 HD
ENDBRANCH   6   7
BRANCH   6   9
HETATM    9  C   UNL     1      -6.348  -0.074 -34.056  1.00  0.00    -0.025 A 
HETATM   10  C   UNL     1      -6.473  -1.183 -34.913  1.00  0.00     0.046 A 
HETATM   11  C   UNL     1      -5.637  -2.295 -34.772  1.00  0.00     0.075 A 
HETATM   12  C   UNL     1      -4.652  -2.288 -33.782  1.00  0.00     0.037 A 
HETATM   13  C   UNL     1      -4.513  -1.196 -32.927  1.00  0.00     0.003 A 
HETATM   14  C   UNL     1      -5.357  -0.095 -33.063  1.00  0.00     0.010 A 
BRANCH  11  15
HETATM   15  O   UNL     1      -5.656  -3.418 -35.550  1.00  0.00    -0.290 OA
BRANCH  15  16
HETATM   16  C   UNL     1      -6.411  -4.513 -35.061  1.00  0.00     0.505 C 
HETATM   17  F   UNL     1      -5.615  -5.305 -34.301  1.00  0.00    -0.184 F 
HETATM   18  F   UNL     1      -7.364  -4.012 -34.234  1.00  0.00    -0.184 F 
ENDBRANCH  15  16
ENDBRANCH  11  15
ENDBRANCH   6   9
ENDBRANCH   5   6
ENDBRANCH   2   5
BRANCH   1  19
HETATM   19  C   UNL     1      -4.809   5.225 -33.149  1.00  0.00     0.048 A 
HETATM   20  C   UNL     1      -4.068   4.964 -34.385  1.00  0.00     0.022 A 
HETATM   21  C   UNL     1      -2.983   5.683 -34.728  1.00  0.00     0.054 A 
HETATM   22  C   UNL     1      -2.534   6.722 -33.870  1.00  0.00     0.157 A 
HETATM   23  N   UNL     1      -3.237   6.931 -32.691  1.00  0.00    -0.291 N 
HETATM   24  N   UNL     1      -1.538   7.574 -33.947  1.00  0.00    -0.130 NA
HETATM   25  C   UNL     1      -2.583   7.974 -32.070  1.00  0.00     0.130 A 
HETATM   26  C   UNL     1      -4.357   6.190 -32.321  1.00  0.00     0.117 A 
HETATM   27  C   UNL     1      -2.971   8.556 -30.766  1.00  0.00     0.094 C 
HETATM   28  N   UNL     1      -1.567   8.359 -32.818  1.00  0.00    -0.135 NA
ENDBRANCH   1  19
TORSDOF 7
ENDMDL
MODEL 8
REMARK VINA RESULT:      -8.3      4.682      8.764
REMARK  7 active torsions:
REMARK  status: ('A' for Active; 'I' for Inactive)
REMARK    1  A    between atoms: C_7  and  C_8 
REMARK       I    between atoms: C_8  and  N_9 
REMARK    2  A    between atoms: N_9  and  C_10 
REMARK    3  A    between atoms: C_10  and  C_11 
REMARK    4  A    between atoms: C_11  and  O_12 
REMARK    5  A    between atoms: C_11  and  C_13 
REMARK    6  A    between atoms: C_15  and  O_16 
REMARK    7  A    between atoms: O_16  and  C_17 
ROOT
HETATM    1  C   UNL     1      -6.666   0.922 -34.378  1.00  0.00     0.253 C 
HETATM    2  N   UNL     1      -6.219   2.072 -33.781  1.00  0.00    -0.354 N 
HETATM    3  O   UNL     1      -7.624   0.879 -35.143  1.00  0.00    -0.268 OA
HETATM    4  H   UNL     1      -5.303   2.103 -33.353  1.00  0.00     0.162 HD
ENDROOT
BRANCH   2   5
HETATM    5  C   UNL     1      -6.825   3.366 -34.059  1.00  0.00     0.159 C 
BRANCH   5   6
HETATM    6  C   UNL     1      -6.183   4.504 -33.243  1.00  0.00     0.169 C 
BRANCH   6   7
HETATM    7  O   UNL     1      -6.896   5.724 -33.482  1.00  0.00    -0.389 OA
HETATM    8  H   UNL     1      -6.224   6.426 -33.545  1.00  0.00     0.210 HD
ENDBRANCH   6   7
BRANCH   6   9
HETATM    9  C   UNL     1      -4.704   4.679 -33.533  1.00  0.00    -0.025 A 
HETATM   10  C   UNL     1      -3.760   4.394 -32.529  1.00  0.00     0.046 A 
HETATM   11  C   UNL     1      -2.390   4.514 -32.779  1.00  0.00     0.075 A 
HETATM   12  C   UNL     1      -1.959   4.898 -34.051  1.00  0.00     0.037 A 
HETATM   13  C   UNL     1      -2.880   5.182 -35.056  1.00  0.00     0.003 A 
HETATM   14  C   UNL     1      -4.246   5.073 -34.799  1.00  0.00     0.010 A 
BRANCH  11  15
HETATM   15  O   UNL     1      -1.385   4.253 -31.891  1.00  0.00    -0.290 OA
BRANCH  15  16
HETATM   16  C   UNL     1      -0.960   5.335 -31.082  1.00  0.00     0.505 C 
HETATM   17  F   UNL     1      -0.328   4.854 -29.983  1.00  0.00    -0.184 F 
HETATM   18  F   UNL     1      -0.035   6.032 -31.789  1.00  0.00    -0.184 F 
ENDBRANCH  15  16
ENDBRANCH  11  15
ENDBRANCH   6   9
ENDBRANCH   5   6
ENDBRANCH   2   5
BRANCH   1  19
HETATM   19  C   UNL     1      -5.856  -0.303 -34.088  1.00  0.00     0.048 A 
HETATM   20  C   UNL     1      -4.638  -0.190 -33.282  1.00  0.00     0.022 A 
HETATM   21  C   UNL     1      -3.865  -1.258 -33.008  1.00  0.00     0.054 A 
HETATM   22  C   UNL     1      -4.231  -2.532 -33.516  1.00  0.00     0.157 A 
HETATM   23  N   UNL     1      -5.373  -2.609 -34.301  1.00  0.00    -0.291 N 
HETATM   24  N   UNL     1      -3.690  -3.724 -33.408  1.00  0.00    -0.130 NA
HETATM   25  C   UNL     1      -5.473  -3.939 -34.652  1.00  0.00     0.130 A 
HETATM   26  C   UNL     1      -6.178  -1.511 -34.597  1.00  0.00     0.117 A 
HETATM   27  C   UNL     1      -6.545  -4.509 -35.497  1.00  0.00     0.094 C 
HETATM   28  N   UNL     1      -4.468  -4.607 -34.120  1.00  0.00    -0.135 NA
ENDBRANCH   1  19
TORSDOF 7
ENDMDL
MODEL 9
REMARK VINA RESULT:      -8.1      2.163      2.866
REMARK  7 active torsions:
REMARK  status: ('A' for Active; 'I' for Inactive)
REMARK    1  A    between atoms: C_7  and  C_8 
REMARK       I    between atoms: C_8  and  N_9 
REMARK    2  A    between atoms: N_9  and  C_10 
REMARK    3  A    between atoms: C_10  and  C_11 
REMARK    4  A    between atoms: C_11  and  O_12 
REMARK    5  A    between atoms: C_11  and  C_13 
REMARK    6  A    between atoms: C_15  and  O_16 
REMARK    7  A    between atoms: O_16  and  C_17 
ROOT
HETATM    1  C   UNL     1      -4.400   2.775 -31.736  1.00  0.00     0.253 C 
HETATM    2  N   UNL     1      -3.579   1.681 -31.649  1.00  0.00    -0.354 N 
HETATM    3  O   UNL     1      -5.509   2.838 -31.216  1.00  0.00    -0.268 OA
HETATM    4  H   UNL     1      -2.599   1.757 -31.887  1.00  0.00     0.162 HD
ENDROOT
BRANCH   2   5
HETATM    5  C   UNL     1      -3.946   0.506 -30.870  1.00  0.00     0.159 C 
BRANCH   5   6
HETATM    6  C   UNL     1      -3.506  -0.807 -31.544  1.00  0.00     0.169 C 
BRANCH   6   7
HETATM    7  O   UNL     1      -2.191  -0.645 -32.093  1.00  0.00    -0.389 OA
HETATM    8  H   UNL     1      -2.294  -0.099 -32.893  1.00  0.00     0.210 HD
ENDBRANCH   6   7
BRANCH   6   9
HETATM    9  C   UNL     1      -4.478  -1.282 -32.608  1.00  0.00    -0.025 A 
HETATM   10  C   UNL     1      -5.713  -0.625 -32.764  1.00  0.00     0.046 A 
HETATM   11  C   UNL     1      -6.613  -1.020 -33.759  1.00  0.00     0.075 A 
HETATM   12  C   UNL     1      -6.265  -2.062 -34.620  1.00  0.00     0.037 A 
HETATM   13  C   UNL     1      -5.045  -2.721 -34.480  1.00  0.00     0.003 A 
HETATM   14  C   UNL     1      -4.156  -2.333 -33.480  1.00  0.00     0.010 A 
BRANCH  11  15
HETATM   15  O   UNL     1      -7.829  -0.451 -34.012  1.00  0.00    -0.290 OA
BRANCH  15  16
HETATM   16  C   UNL     1      -7.820   0.752 -34.761  1.00  0.00     0.505 C 
HETATM   17  F   UNL     1      -7.259   1.739 -34.021  1.00  0.00    -0.184 F 
HETATM   18  F   UNL     1      -7.009   0.558 -35.832  1.00  0.00    -0.184 F 
ENDBRANCH  15  16
ENDBRANCH  11  15
ENDBRANCH   6   9
ENDBRANCH   5   6
ENDBRANCH   2   5
BRANCH   1  19
HETATM   19  C   UNL     1      -3.824   3.948 -32.466  1.00  0.00     0.048 A 
HETATM   20  C   UNL     1      -4.453   4.407 -33.706  1.00  0.00     0.022 A 
HETATM   21  C   UNL     1      -3.963   5.445 -34.410  1.00  0.00     0.054 A 
HETATM   22  C   UNL     1      -2.799   6.115 -33.947  1.00  0.00     0.157 A 
HETATM   23  N   UNL     1      -2.205   5.643 -32.785  1.00  0.00    -0.291 N 
HETATM   24  N   UNL     1      -2.117   7.138 -34.407  1.00  0.00    -0.130 NA
HETATM   25  C   UNL     1      -1.115   6.464 -32.587  1.00  0.00     0.130 A 
HETATM   26  C   UNL     1      -2.698   4.566 -32.050  1.00  0.00     0.117 A 
HETATM   27  C   UNL     1      -0.164   6.344 -31.459  1.00  0.00     0.094 C 
HETATM   28  N   UNL     1      -1.060   7.357 -33.555  1.00  0.00    -0.135 NA
ENDBRANCH   1  19
TORSDOF 7
ENDMDL
MODEL 10
REMARK VINA RESULT:      -8.0      2.013      3.080
REMARK  7 active torsions:
REMARK  status: ('A' for Active; 'I' for Inactive)
REMARK    1  A    between atoms: C_7  and  C_8 
REMARK       I    between atoms: C_8  and  N_9 
REMARK    2  A    between atoms: N_9  and  C_10 
REMARK    3  A    between atoms: C_10  and  C_11 
REMARK    4  A    between atoms: C_11  and  O_12 
REMARK    5  A    between atoms: C_11  and  C_13 
REMARK    6  A    between atoms: C_15  and  O_16 
REMARK    7  A    between atoms: O_16  and  C_17 
ROOT
HETATM    1  C   UNL     1      -4.673   3.248 -31.266  1.00  0.00     0.253 C 
HETATM    2  N   UNL     1      -5.986   3.337 -30.885  1.00  0.00    -0.354 N 
HETATM    3  O   UNL     1      -4.061   2.190 -31.364  1.00  0.00    -0.268 OA
HETATM    4  H   UNL     1      -6.508   4.190 -31.042  1.00  0.00     0.162 HD
ENDROOT
BRANCH   2   5
HETATM    5  C   UNL     1      -6.788   2.152 -30.616  1.00  0.00     0.159 C 
BRANCH   5   6
HETATM    6  C   UNL     1      -7.908   1.952 -31.655  1.00  0.00     0.169 C 
BRANCH   6   7
HETATM    7  O   UNL     1      -9.070   1.417 -31.008  1.00  0.00    -0.389 OA
HETATM    8  H   UNL     1      -9.788   1.448 -31.665  1.00  0.00     0.210 HD
ENDBRANCH   6   7
BRANCH   6   9
HETATM    9  C   UNL     1      -7.486   1.072 -32.817  1.00  0.00    -0.025 A 
HETATM   10  C   UNL     1      -6.652  -0.037 -32.584  1.00  0.00     0.046 A 
HETATM   11  C   UNL     1      -6.277  -0.884 -33.631  1.00  0.00     0.075 A 
HETATM   12  C   UNL     1      -6.760  -0.635 -34.917  1.00  0.00     0.037 A 
HETATM   13  C   UNL     1      -7.589   0.457 -35.165  1.00  0.00     0.003 A 
HETATM   14  C   UNL     1      -7.950   1.307 -34.121  1.00  0.00     0.010 A 
BRANCH  11  15
HETATM   15  O   UNL     1      -5.487  -1.993 -33.522  1.00  0.00    -0.290 OA
BRANCH  15  16
HETATM   16  C   UNL     1      -4.122  -1.769 -33.214  1.00  0.00     0.505 C 
HETATM   17  F   UNL     1      -3.764  -0.530 -33.633  1.00  0.00    -0.184 F 
HETATM   18  F   UNL     1      -4.005  -1.771 -31.862  1.00  0.00    -0.184 F 
ENDBRANCH  15  16
ENDBRANCH  11  15
ENDBRANCH   6   9
ENDBRANCH   5   6
ENDBRANCH   2   5
BRANCH   1  19
HETATM   19  C   UNL     1      -4.025   4.549 -31.631  1.00  0.00     0.048 A 
HETATM   20  C   UNL     1      -4.351   5.756 -30.869  1.00  0.00     0.022 A 
HETATM   21  C   UNL     1      -3.811   6.952 -31.168  1.00  0.00     0.054 A 
HETATM   22  C   UNL     1      -2.904   7.056 -32.256  1.00  0.00     0.157 A 
HETATM   23  N   UNL     1      -2.633   5.904 -32.980  1.00  0.00    -0.291 N 
HETATM   24  N   UNL     1      -2.230   8.063 -32.762  1.00  0.00    -0.130 NA
HETATM   25  C   UNL     1      -1.745   6.300 -33.958  1.00  0.00     0.130 A 
HETATM   26  C   UNL     1      -3.190   4.660 -32.685  1.00  0.00     0.117 A 
HETATM   27  C   UNL     1      -1.168   5.405 -34.985  1.00  0.00     0.094 C 
HETATM   28  N   UNL     1      -1.504   7.590 -33.830  1.00  0.00    -0.135 NA
ENDBRANCH   1  19
TORSDOF 7
ENDMDL
