MODEL 1
REMARK VINA RESULT:      -9.8      0.000      0.000
REMARK  4 active torsions:
REMARK  status: ('A' for Active; 'I' for Inactive)
REMARK    1  A    between atoms: C_3  and  N_4 
REMARK    2  A    between atoms: C_11  and  C_12 
REMARK       I    between atoms: C_12  and  N_13 
REMARK    3  A    between atoms: N_13  and  C_14 
REMARK    4  A    between atoms: C_19  and  O_20 
ROOT
HETATM    1  C   UNL     1      -3.513   4.693 -32.352  1.00  0.00     0.036 A 
HETATM    2  C   UNL     1      -2.319   5.029 -31.717  1.00  0.00     0.049 A 
HETATM    3  C   UNL     1      -2.016   6.370 -31.394  1.00  0.00     0.063 A 
HETATM    4  C   UNL     1      -2.926   7.397 -31.698  1.00  0.00     0.075 A 
HETATM    5  N   UNL     1      -2.764   8.775 -31.462  1.00  0.00    -0.226 NA
HETATM    6  C   UNL     1      -2.234   9.191 -30.363  1.00  0.00     0.161 C 
HETATM    7  C   UNL     1      -1.687   8.346 -29.230  1.00  0.00     0.164 C 
HETATM    8  N   UNL     1      -0.584   7.569 -29.786  1.00  0.00    -0.336 N 
HETATM    9  C   UNL     1      -0.691   6.604 -30.763  1.00  0.00     0.257 C 
HETATM   10  O   UNL     1       0.266   5.913 -31.107  1.00  0.00    -0.267 OA
HETATM   11  C   UNL     1      -1.049   9.129 -28.077  1.00  0.00     0.035 C 
HETATM   12  C   UNL     1       0.147   8.270 -27.680  1.00  0.00     0.022 C 
HETATM   13  C   UNL     1       0.634   7.738 -29.017  1.00  0.00     0.127 C 
HETATM   14  C   UNL     1      -4.110   7.044 -32.359  1.00  0.00     0.035 A 
HETATM   15  C   UNL     1      -4.402   5.716 -32.687  1.00  0.00     0.032 A 
ENDROOT
BRANCH   1  16
HETATM   16  N   UNL     1      -3.886   3.378 -32.704  1.00  0.00    -0.323 N 
HETATM   17  C   UNL     1      -4.437   2.415 -31.875  1.00  0.00     0.256 C 
HETATM   18  O   UNL     1      -4.718   2.553 -30.691  1.00  0.00    -0.267 OA
HETATM   19  H   UNL     1      -3.708   3.120 -33.664  1.00  0.00     0.169 HD
BRANCH  17  20
HETATM   20  C   UNL     1      -4.694   1.087 -32.508  1.00  0.00     0.033 A 
HETATM   21  C   UNL     1      -3.966  -0.058 -32.188  1.00  0.00     0.019 A 
HETATM   22  C   UNL     1      -4.277  -1.278 -32.799  1.00  0.00     0.031 A 
HETATM   23  C   UNL     1      -5.311  -1.376 -33.752  1.00  0.00     0.044 A 
HETATM   24  C   UNL     1      -6.000  -0.207 -34.142  1.00  0.00    -0.034 A 
HETATM   25  C   UNL     1      -7.014  -0.129 -35.252  1.00  0.00     0.050 C 
HETATM   26  C   UNL     1      -5.691   1.007 -33.491  1.00  0.00     0.026 A 
BRANCH  23  27
HETATM   27  N   UNL     1      -5.616  -2.675 -34.270  1.00  0.00    -0.332 N 
HETATM   28  C   UNL     1      -4.710  -3.706 -34.458  1.00  0.00     0.096 A 
HETATM   29  C   UNL     1      -5.370  -4.812 -34.946  1.00  0.00     0.019 A 
HETATM   30  C   UNL     1      -6.733  -4.474 -35.039  1.00  0.00     0.019 A 
HETATM   31  C   UNL     1      -6.859  -3.172 -34.608  1.00  0.00     0.096 A 
ENDBRANCH  23  27
ENDBRANCH  17  20
ENDBRANCH   1  16
BRANCH   6  32
HETATM   32  O   UNL     1      -2.183  10.519 -30.205  1.00  0.00    -0.346 OA
HETATM   33  H   UNL     1      -3.101  10.840 -30.195  1.00  0.00     0.219 HD
ENDBRANCH   6  32
TORSDOF 4
ENDMDL
MODEL 2
REMARK VINA RESULT:      -9.5      6.044      9.833
REMARK  4 active torsions:
REMARK  status: ('A' for Active; 'I' for Inactive)
REMARK    1  A    between atoms: C_3  and  N_4 
REMARK    2  A    between atoms: C_11  and  C_12 
REMARK       I    between atoms: C_12  and  N_13 
REMARK    3  A    between atoms: N_13  and  C_14 
REMARK    4  A    between atoms: C_19  and  O_20 
ROOT
HETATM    1  C   UNL     1      -7.696   1.065 -32.214  1.00  0.00     0.036 A 
HETATM    2  C   UNL     1      -7.161   0.011 -32.952  1.00  0.00     0.049 A 
HETATM    3  C   UNL     1      -5.785  -0.299 -32.892  1.00  0.00     0.063 A 
HETATM    4  C   UNL     1      -4.924   0.447 -32.069  1.00  0.00     0.075 A 
HETATM    5  N   UNL     1      -3.535   0.279 -31.916  1.00  0.00    -0.226 NA
HETATM    6  C   UNL     1      -3.025  -0.904 -31.850  1.00  0.00     0.161 C 
HETATM    7  C   UNL     1      -3.755  -2.226 -31.965  1.00  0.00     0.164 C 
HETATM    8  N   UNL     1      -4.348  -2.260 -33.297  1.00  0.00    -0.336 N 
HETATM    9  C   UNL     1      -5.330  -1.413 -33.764  1.00  0.00     0.257 C 
HETATM   10  O   UNL     1      -5.860  -1.568 -34.862  1.00  0.00    -0.267 OA
HETATM   11  C   UNL     1      -2.864  -3.473 -31.921  1.00  0.00     0.035 C 
HETATM   12  C   UNL     1      -3.511  -4.411 -32.934  1.00  0.00     0.022 C 
HETATM   13  C   UNL     1      -3.974  -3.458 -34.024  1.00  0.00     0.127 C 
HETATM   14  C   UNL     1      -5.473   1.519 -31.352  1.00  0.00     0.035 A 
HETATM   15  C   UNL     1      -6.835   1.830 -31.424  1.00  0.00     0.032 A 
ENDROOT
BRANCH   1  16
HETATM   16  N   UNL     1      -9.058   1.433 -32.220  1.00  0.00    -0.323 N 
HETATM   17  C   UNL     1      -9.728   2.143 -33.202  1.00  0.00     0.256 C 
HETATM   18  O   UNL     1      -9.250   2.553 -34.254  1.00  0.00    -0.267 OA
HETATM   19  H   UNL     1      -9.584   1.160 -31.403  1.00  0.00     0.169 HD
BRANCH  17  20
HETATM   20  C   UNL     1     -11.167   2.431 -32.925  1.00  0.00     0.033 A 
HETATM   21  C   UNL     1     -11.584   3.438 -32.056  1.00  0.00     0.019 A 
HETATM   22  C   UNL     1     -12.950   3.673 -31.861  1.00  0.00     0.031 A 
HETATM   23  C   UNL     1     -13.926   2.898 -32.520  1.00  0.00     0.044 A 
HETATM   24  C   UNL     1     -13.515   1.825 -33.339  1.00  0.00    -0.034 A 
HETATM   25  C   UNL     1     -14.436   0.820 -33.978  1.00  0.00     0.050 C 
HETATM   26  C   UNL     1     -12.132   1.625 -33.545  1.00  0.00     0.026 A 
BRANCH  23  27
HETATM   27  N   UNL     1     -15.299   3.255 -32.326  1.00  0.00    -0.332 N 
HETATM   28  C   UNL     1     -16.357   2.369 -32.201  1.00  0.00     0.096 A 
HETATM   29  C   UNL     1     -17.523   3.075 -31.998  1.00  0.00     0.019 A 
HETATM   30  C   UNL     1     -17.181   4.440 -31.966  1.00  0.00     0.019 A 
HETATM   31  C   UNL     1     -15.819   4.523 -32.153  1.00  0.00     0.096 A 
ENDBRANCH  23  27
ENDBRANCH  17  20
ENDBRANCH   1  16
BRANCH   6  32
HETATM   32  O   UNL     1      -1.704  -0.959 -31.639  1.00  0.00    -0.346 OA
HETATM   33  H   UNL     1      -1.301  -1.311 -32.451  1.00  0.00     0.219 HD
ENDBRANCH   6  32
TORSDOF 4
ENDMDL
MODEL 3
REMARK VINA RESULT:      -9.5      6.067      9.867
REMARK  4 active torsions:
REMARK  status: ('A' for Active; 'I' for Inactive)
REMARK    1  A    between atoms: C_3  and  N_4 
REMARK    2  A    between atoms: C_11  and  C_12 
REMARK       I    between atoms: C_12  and  N_13 
REMARK    3  A    between atoms: N_13  and  C_14 
REMARK    4  A    between atoms: C_19  and  O_20 
ROOT
HETATM    1  C   UNL     1      -7.699   1.087 -32.332  1.00  0.00     0.036 A 
HETATM    2  C   UNL     1      -7.152   0.036 -33.066  1.00  0.00     0.049 A 
HETATM    3  C   UNL     1      -5.780  -0.285 -32.971  1.00  0.00     0.063 A 
HETATM    4  C   UNL     1      -4.936   0.448 -32.118  1.00  0.00     0.075 A 
HETATM    5  N   UNL     1      -3.554   0.268 -31.928  1.00  0.00    -0.226 NA
HETATM    6  C   UNL     1      -3.054  -0.918 -31.860  1.00  0.00     0.161 C 
HETATM    7  C   UNL     1      -3.789  -2.235 -32.007  1.00  0.00     0.164 C 
HETATM    8  N   UNL     1      -4.346  -2.252 -33.355  1.00  0.00    -0.336 N 
HETATM    9  C   UNL     1      -5.309  -1.394 -33.840  1.00  0.00     0.257 C 
HETATM   10  O   UNL     1      -5.810  -1.536 -34.954  1.00  0.00    -0.267 OA
HETATM   11  C   UNL     1      -2.909  -3.488 -31.950  1.00  0.00     0.035 C 
HETATM   12  C   UNL     1      -3.535  -4.412 -32.989  1.00  0.00     0.022 C 
HETATM   13  C   UNL     1      -3.961  -3.447 -34.082  1.00  0.00     0.127 C 
HETATM   14  C   UNL     1      -5.498   1.517 -31.407  1.00  0.00     0.035 A 
HETATM   15  C   UNL     1      -6.855   1.838 -31.512  1.00  0.00     0.032 A 
ENDROOT
BRANCH   1  16
HETATM   16  N   UNL     1      -9.058   1.465 -32.372  1.00  0.00    -0.323 N 
HETATM   17  C   UNL     1      -9.665   2.307 -33.289  1.00  0.00     0.256 C 
HETATM   18  O   UNL     1      -9.124   2.849 -34.245  1.00  0.00    -0.267 OA
HETATM   19  H   UNL     1      -9.634   1.089 -31.633  1.00  0.00     0.169 HD
BRANCH  17  20
HETATM   20  C   UNL     1     -11.119   2.568 -33.064  1.00  0.00     0.033 A 
HETATM   21  C   UNL     1     -12.114   2.085 -33.913  1.00  0.00     0.019 A 
HETATM   22  C   UNL     1     -13.461   2.344 -33.629  1.00  0.00     0.031 A 
HETATM   23  C   UNL     1     -13.838   3.101 -32.501  1.00  0.00     0.044 A 
HETATM   24  C   UNL     1     -12.834   3.661 -31.682  1.00  0.00    -0.034 A 
HETATM   25  C   UNL     1     -13.079   4.613 -30.541  1.00  0.00     0.050 C 
HETATM   26  C   UNL     1     -11.485   3.362 -31.969  1.00  0.00     0.026 A 
BRANCH  23  27
HETATM   27  N   UNL     1     -15.237   3.252 -32.241  1.00  0.00    -0.332 N 
HETATM   28  C   UNL     1     -15.922   4.454 -32.160  1.00  0.00     0.096 A 
HETATM   29  C   UNL     1     -17.256   4.206 -31.926  1.00  0.00     0.019 A 
HETATM   30  C   UNL     1     -17.417   2.808 -31.888  1.00  0.00     0.019 A 
HETATM   31  C   UNL     1     -16.176   2.250 -32.098  1.00  0.00     0.096 A 
ENDBRANCH  23  27
ENDBRANCH  17  20
ENDBRANCH   1  16
BRANCH   6  32
HETATM   32  O   UNL     1      -1.739  -0.985 -31.614  1.00  0.00    -0.346 OA
HETATM   33  H   UNL     1      -1.393  -0.078 -31.669  1.00  0.00     0.219 HD
ENDBRANCH   6  32
TORSDOF 4
ENDMDL
MODEL 4
REMARK VINA RESULT:      -9.1      4.288     11.313
REMARK  4 active torsions:
REMARK  status: ('A' for Active; 'I' for Inactive)
REMARK    1  A    between atoms: C_3  and  N_4 
REMARK    2  A    between atoms: C_11  and  C_12 
REMARK       I    between atoms: C_12  and  N_13 
REMARK    3  A    between atoms: N_13  and  C_14 
REMARK    4  A    between atoms: C_19  and  O_20 
ROOT
HETATM    1  C   UNL     1      -1.149   7.204 -30.680  1.00  0.00     0.036 A 
HETATM    2  C   UNL     1      -2.533   7.079 -30.789  1.00  0.00     0.049 A 
HETATM    3  C   UNL     1      -3.144   6.788 -32.028  1.00  0.00     0.063 A 
HETATM    4  C   UNL     1      -2.361   6.604 -33.181  1.00  0.00     0.075 A 
HETATM    5  N   UNL     1      -2.816   6.331 -34.485  1.00  0.00    -0.226 NA
HETATM    6  C   UNL     1      -3.789   5.507 -34.676  1.00  0.00     0.161 C 
HETATM    7  C   UNL     1      -4.593   4.774 -33.622  1.00  0.00     0.164 C 
HETATM    8  N   UNL     1      -5.257   5.796 -32.820  1.00  0.00    -0.336 N 
HETATM    9  C   UNL     1      -4.629   6.730 -32.024  1.00  0.00     0.257 C 
HETATM   10  O   UNL     1      -5.255   7.492 -31.291  1.00  0.00    -0.267 OA
HETATM   11  C   UNL     1      -5.744   3.913 -34.155  1.00  0.00     0.035 C 
HETATM   12  C   UNL     1      -6.849   4.113 -33.124  1.00  0.00     0.022 C 
HETATM   13  C   UNL     1      -6.688   5.575 -32.742  1.00  0.00     0.127 C 
HETATM   14  C   UNL     1      -0.974   6.757 -33.058  1.00  0.00     0.035 A 
HETATM   15  C   UNL     1      -0.373   7.057 -31.831  1.00  0.00     0.032 A 
ENDROOT
BRANCH   1  16
HETATM   16  N   UNL     1      -0.467   7.491 -29.478  1.00  0.00    -0.323 N 
HETATM   17  C   UNL     1      -0.608   8.617 -28.684  1.00  0.00     0.256 C 
HETATM   18  O   UNL     1      -1.376   9.551 -28.881  1.00  0.00    -0.267 OA
HETATM   19  H   UNL     1       0.210   6.800 -29.189  1.00  0.00     0.169 HD
BRANCH  17  20
HETATM   20  C   UNL     1       0.278   8.678 -27.483  1.00  0.00     0.033 A 
HETATM   21  C   UNL     1       1.140   7.642 -27.126  1.00  0.00     0.019 A 
HETATM   22  C   UNL     1       1.964   7.775 -26.002  1.00  0.00     0.031 A 
HETATM   23  C   UNL     1       1.934   8.937 -25.206  1.00  0.00     0.044 A 
HETATM   24  C   UNL     1       1.008   9.957 -25.513  1.00  0.00    -0.034 A 
HETATM   25  C   UNL     1       0.752  11.178 -24.670  1.00  0.00     0.050 C 
HETATM   26  C   UNL     1       0.208   9.816 -26.668  1.00  0.00     0.026 A 
BRANCH  23  27
HETATM   27  N   UNL     1       2.864   9.024 -24.122  1.00  0.00    -0.332 N 
HETATM   28  C   UNL     1       4.106   9.638 -24.165  1.00  0.00     0.096 A 
HETATM   29  C   UNL     1       4.704   9.548 -22.928  1.00  0.00     0.019 A 
HETATM   30  C   UNL     1       3.800   8.885 -22.077  1.00  0.00     0.019 A 
HETATM   31  C   UNL     1       2.681   8.590 -22.824  1.00  0.00     0.096 A 
ENDBRANCH  23  27
ENDBRANCH  17  20
ENDBRANCH   1  16
BRANCH   6  32
HETATM   32  O   UNL     1      -4.106   5.265 -35.954  1.00  0.00    -0.346 OA
HETATM   33  H   UNL     1      -5.074   5.322 -36.023  1.00  0.00     0.219 HD
ENDBRANCH   6  32
TORSDOF 4
ENDMDL
MODEL 5
REMARK VINA RESULT:      -8.9      2.472     10.503
REMARK  4 active torsions:
REMARK  status: ('A' for Active; 'I' for Inactive)
REMARK    1  A    between atoms: C_3  and  N_4 
REMARK    2  A    between atoms: C_11  and  C_12 
REMARK       I    between atoms: C_12  and  N_13 
REMARK    3  A    between atoms: N_13  and  C_14 
REMARK    4  A    between atoms: C_19  and  O_20 
ROOT
HETATM    1  C   UNL     1      -4.985   4.656 -31.097  1.00  0.00     0.036 A 
HETATM    2  C   UNL     1      -5.099   3.271 -31.202  1.00  0.00     0.049 A 
HETATM    3  C   UNL     1      -6.161   2.677 -31.918  1.00  0.00     0.063 A 
HETATM    4  C   UNL     1      -7.124   3.478 -32.555  1.00  0.00     0.075 A 
HETATM    5  N   UNL     1      -8.246   3.043 -33.283  1.00  0.00    -0.226 NA
HETATM    6  C   UNL     1      -8.154   2.034 -34.081  1.00  0.00     0.161 C 
HETATM    7  C   UNL     1      -6.937   1.167 -34.329  1.00  0.00     0.164 C 
HETATM    8  N   UNL     1      -6.609   0.536 -33.054  1.00  0.00    -0.336 N 
HETATM    9  C   UNL     1      -6.198   1.191 -31.914  1.00  0.00     0.257 C 
HETATM   10  O   UNL     1      -5.834   0.587 -30.907  1.00  0.00    -0.267 OA
HETATM   11  C   UNL     1      -7.155  -0.012 -35.283  1.00  0.00     0.035 C 
HETATM   12  C   UNL     1      -6.324  -1.131 -34.665  1.00  0.00     0.022 C 
HETATM   13  C   UNL     1      -6.515  -0.906 -33.175  1.00  0.00     0.127 C 
HETATM   14  C   UNL     1      -7.009   4.868 -32.419  1.00  0.00     0.035 A 
HETATM   15  C   UNL     1      -5.961   5.452 -31.699  1.00  0.00     0.032 A 
ENDROOT
BRANCH   1  16
HETATM   16  N   UNL     1      -3.953   5.322 -30.403  1.00  0.00    -0.323 N 
HETATM   17  C   UNL     1      -2.837   5.935 -30.948  1.00  0.00     0.256 C 
HETATM   18  O   UNL     1      -2.571   6.026 -32.141  1.00  0.00    -0.267 OA
HETATM   19  H   UNL     1      -4.040   5.325 -29.397  1.00  0.00     0.169 HD
BRANCH  17  20
HETATM   20  C   UNL     1      -1.879   6.527 -29.967  1.00  0.00     0.033 A 
HETATM   21  C   UNL     1      -0.545   6.787 -30.275  1.00  0.00     0.019 A 
HETATM   22  C   UNL     1       0.293   7.369 -29.317  1.00  0.00     0.031 A 
HETATM   23  C   UNL     1      -0.181   7.689 -28.029  1.00  0.00     0.044 A 
HETATM   24  C   UNL     1      -1.507   7.356 -27.682  1.00  0.00    -0.034 A 
HETATM   25  C   UNL     1      -2.103   7.493 -26.305  1.00  0.00     0.050 C 
HETATM   26  C   UNL     1      -2.344   6.798 -28.673  1.00  0.00     0.026 A 
BRANCH  23  27
HETATM   27  N   UNL     1       0.720   8.353 -27.136  1.00  0.00    -0.332 N 
HETATM   28  C   UNL     1       0.695   9.700 -26.812  1.00  0.00     0.096 A 
HETATM   29  C   UNL     1       1.694   9.970 -25.902  1.00  0.00     0.019 A 
HETATM   30  C   UNL     1       2.344   8.753 -25.626  1.00  0.00     0.019 A 
HETATM   31  C   UNL     1       1.722   7.780 -26.378  1.00  0.00     0.096 A 
ENDBRANCH  23  27
ENDBRANCH  17  20
ENDBRANCH   1  16
BRANCH   6  32
HETATM   32  O   UNL     1      -9.259   1.738 -34.777  1.00  0.00    -0.346 OA
HETATM   33  H   UNL     1      -9.787   1.133 -34.229  1.00  0.00     0.219 HD
ENDBRANCH   6  32
TORSDOF 4
ENDMDL
MODEL 6
REMARK VINA RESULT:      -8.7      1.939      2.979
REMARK  4 active torsions:
REMARK  status: ('A' for Active; 'I' for Inactive)
REMARK    1  A    between atoms: C_3  and  N_4 
REMARK    2  A    between atoms: C_11  and  C_12 
REMARK       I    between atoms: C_12  and  N_13 
REMARK    3  A    between atoms: N_13  and  C_14 
REMARK    4  A    between atoms: C_19  and  O_20 
ROOT
HETATM    1  C   UNL     1      -3.685   4.524 -32.014  1.00  0.00     0.036 A 
HETATM    2  C   UNL     1      -4.193   5.222 -30.920  1.00  0.00     0.049 A 
HETATM    3  C   UNL     1      -3.771   6.539 -30.633  1.00  0.00     0.063 A 
HETATM    4  C   UNL     1      -2.832   7.179 -31.460  1.00  0.00     0.075 A 
HETATM    5  N   UNL     1      -2.297   8.471 -31.299  1.00  0.00    -0.226 NA
HETATM    6  C   UNL     1      -3.053   9.448 -30.930  1.00  0.00     0.161 C 
HETATM    7  C   UNL     1      -4.526   9.389 -30.582  1.00  0.00     0.164 C 
HETATM    8  N   UNL     1      -4.646   8.502 -29.428  1.00  0.00    -0.336 N 
HETATM    9  C   UNL     1      -4.349   7.157 -29.412  1.00  0.00     0.257 C 
HETATM   10  O   UNL     1      -4.577   6.449 -28.434  1.00  0.00    -0.267 OA
HETATM   11  C   UNL     1      -5.141  10.708 -30.103  1.00  0.00     0.035 C 
HETATM   12  C   UNL     1      -6.105  10.277 -29.003  1.00  0.00     0.022 C 
HETATM   13  C   UNL     1      -5.359   9.134 -28.335  1.00  0.00     0.127 C 
HETATM   14  C   UNL     1      -2.313   6.454 -32.541  1.00  0.00     0.035 A 
HETATM   15  C   UNL     1      -2.726   5.146 -32.815  1.00  0.00     0.032 A 
ENDROOT
BRANCH   1  16
HETATM   16  N   UNL     1      -4.059   3.209 -32.365  1.00  0.00    -0.323 N 
HETATM   17  C   UNL     1      -3.546   2.029 -31.855  1.00  0.00     0.256 C 
HETATM   18  O   UNL     1      -2.688   1.927 -30.986  1.00  0.00    -0.267 OA
HETATM   19  H   UNL     1      -4.767   3.138 -33.082  1.00  0.00     0.169 HD
BRANCH  17  20
HETATM   20  C   UNL     1      -4.101   0.773 -32.445  1.00  0.00     0.033 A 
HETATM   21  C   UNL     1      -5.218   0.758 -33.278  1.00  0.00     0.019 A 
HETATM   22  C   UNL     1      -5.671  -0.451 -33.819  1.00  0.00     0.031 A 
HETATM   23  C   UNL     1      -5.026  -1.670 -33.526  1.00  0.00     0.044 A 
HETATM   24  C   UNL     1      -3.945  -1.675 -32.620  1.00  0.00    -0.034 A 
HETATM   25  C   UNL     1      -3.261  -2.910 -32.094  1.00  0.00     0.050 C 
HETATM   26  C   UNL     1      -3.485  -0.441 -32.110  1.00  0.00     0.026 A 
BRANCH  23  27
HETATM   27  N   UNL     1      -5.505  -2.848 -34.182  1.00  0.00    -0.332 N 
HETATM   28  C   UNL     1      -6.808  -3.073 -34.598  1.00  0.00     0.096 A 
HETATM   29  C   UNL     1      -6.886  -4.303 -35.214  1.00  0.00     0.019 A 
HETATM   30  C   UNL     1      -5.589  -4.851 -35.210  1.00  0.00     0.019 A 
HETATM   31  C   UNL     1      -4.764  -3.940 -34.590  1.00  0.00     0.096 A 
ENDBRANCH  23  27
ENDBRANCH  17  20
ENDBRANCH   1  16
BRANCH   6  32
HETATM   32  O   UNL     1      -2.466  10.650 -30.868  1.00  0.00    -0.346 OA
HETATM   33  H   UNL     1      -2.767  11.154 -31.643  1.00  0.00     0.219 HD
ENDBRANCH   6  32
TORSDOF 4
ENDMDL
MODEL 7
REMARK VINA RESULT:      -8.7      2.264      2.491
REMARK  4 active torsions:
REMARK  status: ('A' for Active; 'I' for Inactive)
REMARK    1  A    between atoms: C_3  and  N_4 
REMARK    2  A    between atoms: C_11  and  C_12 
REMARK       I    between atoms: C_12  and  N_13 
REMARK    3  A    between atoms: N_13  and  C_14 
REMARK    4  A    between atoms: C_19  and  O_20 
ROOT
HETATM    1  C   UNL     1      -5.351   4.242 -30.252  1.00  0.00     0.036 A 
HETATM    2  C   UNL     1      -4.448   5.274 -30.506  1.00  0.00     0.049 A 
HETATM    3  C   UNL     1      -4.490   6.478 -29.770  1.00  0.00     0.063 A 
HETATM    4  C   UNL     1      -5.442   6.656 -28.751  1.00  0.00     0.075 A 
HETATM    5  N   UNL     1      -5.626   7.796 -27.948  1.00  0.00    -0.226 NA
HETATM    6  C   UNL     1      -4.609   8.444 -27.492  1.00  0.00     0.161 C 
HETATM    7  C   UNL     1      -3.144   8.154 -27.751  1.00  0.00     0.164 C 
HETATM    8  N   UNL     1      -2.939   8.303 -29.189  1.00  0.00    -0.336 N 
HETATM    9  C   UNL     1      -3.507   7.519 -30.169  1.00  0.00     0.257 C 
HETATM   10  O   UNL     1      -3.204   7.633 -31.355  1.00  0.00    -0.267 OA
HETATM   11  C   UNL     1      -2.158   9.149 -27.129  1.00  0.00     0.035 C 
HETATM   12  C   UNL     1      -1.070   9.285 -28.188  1.00  0.00     0.022 C 
HETATM   13  C   UNL     1      -1.857   9.222 -29.486  1.00  0.00     0.127 C 
HETATM   14  C   UNL     1      -6.357   5.619 -28.526  1.00  0.00     0.035 A 
HETATM   15  C   UNL     1      -6.319   4.431 -29.265  1.00  0.00     0.032 A 
ENDROOT
BRANCH   1  16
HETATM   16  N   UNL     1      -5.369   3.011 -30.942  1.00  0.00    -0.323 N 
HETATM   17  C   UNL     1      -4.277   2.263 -31.347  1.00  0.00     0.256 C 
HETATM   18  O   UNL     1      -3.099   2.535 -31.150  1.00  0.00    -0.267 OA
HETATM   19  H   UNL     1      -6.287   2.660 -31.176  1.00  0.00     0.169 HD
BRANCH  17  20
HETATM   20  C   UNL     1      -4.593   1.013 -32.103  1.00  0.00     0.033 A 
HETATM   21  C   UNL     1      -3.971  -0.207 -31.841  1.00  0.00     0.019 A 
HETATM   22  C   UNL     1      -4.334  -1.346 -32.569  1.00  0.00     0.031 A 
HETATM   23  C   UNL     1      -5.312  -1.287 -33.581  1.00  0.00     0.044 A 
HETATM   24  C   UNL     1      -5.888  -0.040 -33.908  1.00  0.00    -0.034 A 
HETATM   25  C   UNL     1      -6.825   0.205 -35.061  1.00  0.00     0.050 C 
HETATM   26  C   UNL     1      -5.531   1.090 -33.141  1.00  0.00     0.026 A 
BRANCH  23  27
HETATM   27  N   UNL     1      -5.679  -2.512 -34.223  1.00  0.00    -0.332 N 
HETATM   28  C   UNL     1      -4.802  -3.458 -34.729  1.00  0.00     0.096 A 
HETATM   29  C   UNL     1      -5.517  -4.516 -35.246  1.00  0.00     0.019 A 
HETATM   30  C   UNL     1      -6.880  -4.239 -35.031  1.00  0.00     0.019 A 
HETATM   31  C   UNL     1      -6.952  -3.020 -34.393  1.00  0.00     0.096 A 
ENDBRANCH  23  27
ENDBRANCH  17  20
ENDBRANCH   1  16
BRANCH   6  32
HETATM   32  O   UNL     1      -4.886   9.476 -26.685  1.00  0.00    -0.346 OA
HETATM   33  H   UNL     1      -5.817   9.712 -26.837  1.00  0.00     0.219 HD
ENDBRANCH   6  32
TORSDOF 4
ENDMDL
MODEL 8
REMARK VINA RESULT:      -8.5      3.970     10.322
REMARK  4 active torsions:
REMARK  status: ('A' for Active; 'I' for Inactive)
REMARK    1  A    between atoms: C_3  and  N_4 
REMARK    2  A    between atoms: C_11  and  C_12 
REMARK       I    between atoms: C_12  and  N_13 
REMARK    3  A    between atoms: N_13  and  C_14 
REMARK    4  A    between atoms: C_19  and  O_20 
ROOT
HETATM    1  C   UNL     1      -6.176   3.670 -31.827  1.00  0.00     0.036 A 
HETATM    2  C   UNL     1      -7.173   4.289 -32.580  1.00  0.00     0.049 A 
HETATM    3  C   UNL     1      -8.255   3.552 -33.107  1.00  0.00     0.063 A 
HETATM    4  C   UNL     1      -8.356   2.170 -32.868  1.00  0.00     0.075 A 
HETATM    5  N   UNL     1      -9.354   1.296 -33.337  1.00  0.00    -0.226 NA
HETATM    6  C   UNL     1     -10.589   1.665 -33.352  1.00  0.00     0.161 C 
HETATM    7  C   UNL     1     -11.150   3.014 -32.948  1.00  0.00     0.164 C 
HETATM    8  N   UNL     1     -10.561   3.996 -33.852  1.00  0.00    -0.336 N 
HETATM    9  C   UNL     1      -9.224   4.317 -33.934  1.00  0.00     0.257 C 
HETATM   10  O   UNL     1      -8.812   5.233 -34.642  1.00  0.00    -0.267 OA
HETATM   11  C   UNL     1     -12.661   3.182 -33.146  1.00  0.00     0.035 C 
HETATM   12  C   UNL     1     -12.801   4.623 -33.624  1.00  0.00     0.022 C 
HETATM   13  C   UNL     1     -11.575   4.805 -34.503  1.00  0.00     0.127 C 
HETATM   14  C   UNL     1      -7.333   1.559 -32.130  1.00  0.00     0.035 A 
HETATM   15  C   UNL     1      -6.257   2.292 -31.619  1.00  0.00     0.032 A 
ENDROOT
BRANCH   1  16
HETATM   16  N   UNL     1      -5.068   4.340 -31.267  1.00  0.00    -0.323 N 
HETATM   17  C   UNL     1      -3.921   4.754 -31.924  1.00  0.00     0.256 C 
HETATM   18  O   UNL     1      -3.686   4.629 -33.120  1.00  0.00    -0.267 OA
HETATM   19  H   UNL     1      -5.122   4.512 -30.273  1.00  0.00     0.169 HD
BRANCH  17  20
HETATM   20  C   UNL     1      -2.884   5.405 -31.068  1.00  0.00     0.033 A 
HETATM   21  C   UNL     1      -3.169   6.462 -30.205  1.00  0.00     0.019 A 
HETATM   22  C   UNL     1      -2.154   7.009 -29.411  1.00  0.00     0.031 A 
HETATM   23  C   UNL     1      -0.834   6.520 -29.473  1.00  0.00     0.044 A 
HETATM   24  C   UNL     1      -0.519   5.506 -30.401  1.00  0.00    -0.034 A 
HETATM   25  C   UNL     1       0.869   4.995 -30.689  1.00  0.00     0.050 C 
HETATM   26  C   UNL     1      -1.563   4.947 -31.171  1.00  0.00     0.026 A 
BRANCH  23  27
HETATM   27  N   UNL     1       0.125   7.083 -28.571  1.00  0.00    -0.332 N 
HETATM   28  C   UNL     1       0.735   8.320 -28.703  1.00  0.00     0.096 A 
HETATM   29  C   UNL     1       1.575   8.533 -27.632  1.00  0.00     0.019 A 
HETATM   30  C   UNL     1       1.465   7.410 -26.790  1.00  0.00     0.019 A 
HETATM   31  C   UNL     1       0.565   6.548 -27.376  1.00  0.00     0.096 A 
ENDBRANCH  23  27
ENDBRANCH  17  20
ENDBRANCH   1  16
BRANCH   6  32
HETATM   32  O   UNL     1     -11.470   0.741 -33.755  1.00  0.00    -0.346 OA
HETATM   33  H   UNL     1     -11.544   0.820 -34.721  1.00  0.00     0.219 HD
ENDBRANCH   6  32
TORSDOF 4
ENDMDL
MODEL 9
REMARK VINA RESULT:      -8.4      1.899      3.003
REMARK  4 active torsions:
REMARK  status: ('A' for Active; 'I' for Inactive)
REMARK    1  A    between atoms: C_3  and  N_4 
REMARK    2  A    between atoms: C_11  and  C_12 
REMARK       I    between atoms: C_12  and  N_13 
REMARK    3  A    between atoms: N_13  and  C_14 
REMARK    4  A    between atoms: C_19  and  O_20 
ROOT
HETATM    1  C   UNL     1      -3.151   6.312 -30.217  1.00  0.00     0.036 A 
HETATM    2  C   UNL     1      -1.833   6.539 -29.827  1.00  0.00     0.049 A 
HETATM    3  C   UNL     1      -1.439   7.776 -29.270  1.00  0.00     0.063 A 
HETATM    4  C   UNL     1      -2.380   8.804 -29.085  1.00  0.00     0.075 A 
HETATM    5  N   UNL     1      -2.144  10.091 -28.567  1.00  0.00    -0.226 NA
HETATM    6  C   UNL     1      -1.354  10.253 -27.561  1.00  0.00     0.161 C 
HETATM    7  C   UNL     1      -0.560   9.187 -26.835  1.00  0.00     0.164 C 
HETATM    8  N   UNL     1       0.362   8.617 -27.813  1.00  0.00    -0.336 N 
HETATM    9  C   UNL     1       0.004   7.911 -28.940  1.00  0.00     0.257 C 
HETATM   10  O   UNL     1       0.836   7.367 -29.663  1.00  0.00    -0.267 OA
HETATM   11  C   UNL     1       0.354   9.698 -25.715  1.00  0.00     0.035 C 
HETATM   12  C   UNL     1       1.597   8.824 -25.840  1.00  0.00     0.022 C 
HETATM   13  C   UNL     1       1.733   8.651 -27.344  1.00  0.00     0.127 C 
HETATM   14  C   UNL     1      -3.695   8.567 -29.506  1.00  0.00     0.035 A 
HETATM   15  C   UNL     1      -4.079   7.344 -30.067  1.00  0.00     0.032 A 
ENDROOT
BRANCH   1  16
HETATM   16  N   UNL     1      -3.620   5.104 -30.778  1.00  0.00    -0.323 N 
HETATM   17  C   UNL     1      -3.262   4.553 -31.996  1.00  0.00     0.256 C 
HETATM   18  O   UNL     1      -2.449   5.014 -32.789  1.00  0.00    -0.267 OA
HETATM   19  H   UNL     1      -4.307   4.610 -30.227  1.00  0.00     0.169 HD
BRANCH  17  20
HETATM   20  C   UNL     1      -3.952   3.279 -32.359  1.00  0.00     0.033 A 
HETATM   21  C   UNL     1      -5.132   3.243 -33.101  1.00  0.00     0.019 A 
HETATM   22  C   UNL     1      -5.713   2.012 -33.430  1.00  0.00     0.031 A 
HETATM   23  C   UNL     1      -5.136   0.796 -33.011  1.00  0.00     0.044 A 
HETATM   24  C   UNL     1      -3.988   0.826 -32.192  1.00  0.00    -0.034 A 
HETATM   25  C   UNL     1      -3.354  -0.377 -31.544  1.00  0.00     0.050 C 
HETATM   26  C   UNL     1      -3.401   2.076 -31.898  1.00  0.00     0.026 A 
BRANCH  23  27
HETATM   27  N   UNL     1      -5.751  -0.418 -33.456  1.00  0.00    -0.332 N 
HETATM   28  C   UNL     1      -7.108  -0.697 -33.430  1.00  0.00     0.096 A 
HETATM   29  C   UNL     1      -7.328  -1.948 -33.964  1.00  0.00     0.019 A 
HETATM   30  C   UNL     1      -6.076  -2.454 -34.362  1.00  0.00     0.019 A 
HETATM   31  C   UNL     1      -5.134  -1.498 -34.056  1.00  0.00     0.096 A 
ENDBRANCH  23  27
ENDBRANCH  17  20
ENDBRANCH   1  16
BRANCH   6  32
HETATM   32  O   UNL     1      -1.245  11.506 -27.101  1.00  0.00    -0.346 OA
HETATM   33  H   UNL     1      -1.538  12.098 -27.815  1.00  0.00     0.219 HD
ENDBRANCH   6  32
TORSDOF 4
ENDMDL
MODEL 10
REMARK VINA RESULT:      -8.3      2.664      3.385
REMARK  4 active torsions:
REMARK  status: ('A' for Active; 'I' for Inactive)
REMARK    1  A    between atoms: C_3  and  N_4 
REMARK    2  A    between atoms: C_11  and  C_12 
REMARK       I    between atoms: C_12  and  N_13 
REMARK    3  A    between atoms: N_13  and  C_14 
REMARK    4  A    between atoms: C_19  and  O_20 
ROOT
HETATM    1  C   UNL     1      -4.164   4.693 -30.845  1.00  0.00     0.036 A 
HETATM    2  C   UNL     1      -5.011   5.279 -29.905  1.00  0.00     0.049 A 
HETATM    3  C   UNL     1      -4.685   6.510 -29.295  1.00  0.00     0.063 A 
HETATM    4  C   UNL     1      -3.496   7.179 -29.636  1.00  0.00     0.075 A 
HETATM    5  N   UNL     1      -3.021   8.393 -29.107  1.00  0.00    -0.226 NA
HETATM    6  C   UNL     1      -3.834   9.369 -28.882  1.00  0.00     0.161 C 
HETATM    7  C   UNL     1      -5.335   9.378 -29.083  1.00  0.00     0.164 C 
HETATM    8  N   UNL     1      -5.880   8.360 -28.191  1.00  0.00    -0.336 N 
HETATM    9  C   UNL     1      -5.644   7.006 -28.275  1.00  0.00     0.257 C 
HETATM   10  O   UNL     1      -6.224   6.195 -27.555  1.00  0.00    -0.267 OA
HETATM   11  C   UNL     1      -6.046  10.668 -28.656  1.00  0.00     0.035 C 
HETATM   12  C   UNL     1      -7.349  10.171 -28.040  1.00  0.00     0.022 C 
HETATM   13  C   UNL     1      -6.920   8.896 -27.334  1.00  0.00     0.127 C 
HETATM   14  C   UNL     1      -2.645   6.564 -30.564  1.00  0.00     0.035 A 
HETATM   15  C   UNL     1      -2.967   5.339 -31.158  1.00  0.00     0.032 A 
ENDROOT
BRANCH   1  16
HETATM   16  N   UNL     1      -4.423   3.469 -31.498  1.00  0.00    -0.323 N 
HETATM   17  C   UNL     1      -5.355   3.233 -32.494  1.00  0.00     0.256 C 
HETATM   18  O   UNL     1      -6.102   4.063 -32.999  1.00  0.00    -0.267 OA
HETATM   19  H   UNL     1      -3.874   2.684 -31.178  1.00  0.00     0.169 HD
BRANCH  17  20
HETATM   20  C   UNL     1      -5.445   1.822 -32.976  1.00  0.00     0.033 A 
HETATM   21  C   UNL     1      -4.568   0.823 -32.557  1.00  0.00     0.019 A 
HETATM   22  C   UNL     1      -4.724  -0.487 -33.028  1.00  0.00     0.031 A 
HETATM   23  C   UNL     1      -5.750  -0.820 -33.936  1.00  0.00     0.044 A 
HETATM   24  C   UNL     1      -6.592   0.201 -34.427  1.00  0.00    -0.034 A 
HETATM   25  C   UNL     1      -7.623   0.027 -35.510  1.00  0.00     0.050 C 
HETATM   26  C   UNL     1      -6.436   1.508 -33.916  1.00  0.00     0.026 A 
BRANCH  23  27
HETATM   27  N   UNL     1      -5.888  -2.195 -34.306  1.00  0.00    -0.332 N 
HETATM   28  C   UNL     1      -4.852  -3.057 -34.630  1.00  0.00     0.096 A 
HETATM   29  C   UNL     1      -5.363  -4.306 -34.903  1.00  0.00     0.019 A 
HETATM   30  C   UNL     1      -6.756  -4.233 -34.717  1.00  0.00     0.019 A 
HETATM   31  C   UNL     1      -7.050  -2.942 -34.339  1.00  0.00     0.096 A 
ENDBRANCH  23  27
ENDBRANCH  17  20
ENDBRANCH   1  16
BRANCH   6  32
HETATM   32  O   UNL     1      -3.276  10.503 -28.439  1.00  0.00    -0.346 OA
HETATM   33  H   UNL     1      -2.390  10.275 -28.112  1.00  0.00     0.219 HD
ENDBRANCH   6  32
TORSDOF 4
ENDMDL
