MODEL 1
REMARK VINA RESULT:      -9.0      0.000      0.000
REMARK  8 active torsions:
REMARK  status: ('A' for Active; 'I' for Inactive)
REMARK    1  A    between atoms: C_2  and  O_3 
REMARK    2  A    between atoms: O_3  and  C_4 
REMARK    3  A    between atoms: C_5  and  O_6 
REMARK    4  A    between atoms: O_6  and  C_7 
REMARK       I    between atoms: C_7  and  N_8 
REMARK    5  A    between atoms: C_18  and  C_19 
REMARK    6  A    between atoms: C_23  and  N_24 
REMARK    7  A    between atoms: C_31  and  C_32 
REMARK    8  A    between atoms: C_35  and  O_36 
ROOT
HETATM    1  C   UNL     1      -9.398   2.744 -34.227  1.00  0.00     0.105 C 
HETATM    2  C   UNL     1     -10.589   3.682 -34.455  1.00  0.00     0.067 C 
HETATM    3  C   UNL     1     -10.301   5.126 -34.831  1.00  0.00     0.020 C 
HETATM    4  N   UNL     1     -10.063   6.324 -35.142  1.00  0.00    -0.096 N 
HETATM    5  C   UNL     1     -11.883   3.286 -34.330  1.00  0.00     0.139 C 
HETATM    6  O   UNL     1     -12.220   1.977 -33.958  1.00  0.00    -0.279 OA
HETATM    7  C   UNL     1     -11.216   1.190 -33.600  1.00  0.00     0.175 A 
HETATM    8  C   UNL     1      -9.863   1.440 -33.645  1.00  0.00     0.040 A 
HETATM    9  N   UNL     1     -11.381  -0.044 -33.069  1.00  0.00    -0.256 N 
HETATM   10  H   UNL     1     -12.248  -0.539 -32.891  1.00  0.00     0.191 HD
HETATM   11  N   UNL     1     -10.223  -0.618 -32.721  1.00  0.00    -0.172 NA
HETATM   12  C   UNL     1      -9.270   0.275 -33.061  1.00  0.00     0.099 A 
ENDROOT
BRANCH   1  13
HETATM   13  C   UNL     1      -8.274   3.337 -33.386  1.00  0.00    -0.040 C 
HETATM   14  C   UNL     1      -8.414   3.764 -32.056  1.00  0.00     0.030 C 
HETATM   15  C   UNL     1      -7.285   4.101 -31.301  1.00  0.00     0.048 C 
HETATM   16  C   UNL     1      -6.022   4.106 -31.896  1.00  0.00     0.131 C 
HETATM   17 BR   UNL     1      -7.511   4.502 -29.460  1.00  0.00    -0.048 Br
HETATM   18  C   UNL     1      -5.881   3.874 -33.269  1.00  0.00     0.104 C 
HETATM   19  C   UNL     1      -6.997   3.445 -33.988  1.00  0.00     0.048 C 
BRANCH  16  20
HETATM   20  O   UNL     1      -4.893   4.384 -31.111  1.00  0.00    -0.257 OA
BRANCH  20  21
HETATM   21  C   UNL     1      -4.500   5.721 -31.157  1.00  0.00     0.368 C 
HETATM   22  N   UNL     1      -3.148   5.886 -30.898  1.00  0.00    -0.324 N 
HETATM   23  C   UNL     1      -2.167   4.813 -31.030  1.00  0.00     0.154 C 
HETATM   24  C   UNL     1      -2.567   7.224 -30.928  1.00  0.00     0.154 C 
HETATM   25  C   UNL     1      -1.316   5.052 -32.287  1.00  0.00     0.187 C 
HETATM   26  O   UNL     1      -0.710   6.358 -32.263  1.00  0.00    -0.388 OA
HETATM   27  C   UNL     1      -1.711   7.392 -32.186  1.00  0.00     0.187 C 
HETATM   28  O   UNL     1      -5.246   6.666 -31.398  1.00  0.00    -0.238 OA
ENDBRANCH  20  21
ENDBRANCH  16  20
BRANCH  18  29
HETATM   29  O   UNL     1      -4.628   4.038 -33.795  1.00  0.00    -0.349 OA
BRANCH  29  30
HETATM   30  C   UNL     1      -4.473   4.830 -34.971  1.00  0.00     0.171 C 
HETATM   31  C   UNL     1      -3.149   5.576 -34.971  1.00  0.00     0.034 C 
ENDBRANCH  29  30
ENDBRANCH  18  29
ENDBRANCH   1  13
BRANCH   5  32
HETATM   32  N   UNL     1     -12.989   4.077 -34.542  1.00  0.00    -0.282 NA
HETATM   33  H   UNL     1     -13.692   3.708 -35.177  1.00  0.00     0.126 HD
HETATM   34  H   UNL     1     -13.381   4.434 -33.674  1.00  0.00     0.126 HD
ENDBRANCH   5  32
BRANCH  12  35
HETATM   35  C   UNL     1      -7.875  -0.010 -32.721  1.00  0.00    -0.005 A 
HETATM   36  C   UNL     1      -7.322   0.322 -31.483  1.00  0.00     0.016 A 
HETATM   37  C   UNL     1      -6.004  -0.045 -31.182  1.00  0.00     0.037 A 
HETATM   38  C   UNL     1      -5.215  -0.730 -32.111  1.00  0.00     0.068 A 
HETATM   39  C   UNL     1      -5.753  -1.042 -33.356  1.00  0.00     0.037 A 
HETATM   40  C   UNL     1      -7.071  -0.683 -33.657  1.00  0.00     0.016 A 
BRANCH  38  41
HETATM   41  O   UNL     1      -3.949  -1.030 -31.688  1.00  0.00    -0.356 OA
HETATM   42  C   UNL     1      -3.155   0.054 -31.221  1.00  0.00     0.210 C 
ENDBRANCH  38  41
ENDBRANCH  12  35
TORSDOF 8
ENDMDL
MODEL 2
REMARK VINA RESULT:      -8.3      1.876      2.741
REMARK  8 active torsions:
REMARK  status: ('A' for Active; 'I' for Inactive)
REMARK    1  A    between atoms: C_2  and  O_3 
REMARK    2  A    between atoms: O_3  and  C_4 
REMARK    3  A    between atoms: C_5  and  O_6 
REMARK    4  A    between atoms: O_6  and  C_7 
REMARK       I    between atoms: C_7  and  N_8 
REMARK    5  A    between atoms: C_18  and  C_19 
REMARK    6  A    between atoms: C_23  and  N_24 
REMARK    7  A    between atoms: C_31  and  C_32 
REMARK    8  A    between atoms: C_35  and  O_36 
ROOT
HETATM    1  C   UNL     1      -9.557   2.738 -34.368  1.00  0.00     0.105 C 
HETATM    2  C   UNL     1     -10.726   3.697 -34.616  1.00  0.00     0.067 C 
HETATM    3  C   UNL     1     -10.406   5.121 -35.044  1.00  0.00     0.020 C 
HETATM    4  N   UNL     1     -10.141   6.301 -35.399  1.00  0.00    -0.096 N 
HETATM    5  C   UNL     1     -12.029   3.339 -34.465  1.00  0.00     0.139 C 
HETATM    6  O   UNL     1     -12.394   2.053 -34.045  1.00  0.00    -0.279 OA
HETATM    7  C   UNL     1     -11.406   1.252 -33.670  1.00  0.00     0.175 A 
HETATM    8  C   UNL     1     -10.048   1.467 -33.737  1.00  0.00     0.040 A 
HETATM    9  N   UNL     1     -11.597   0.043 -33.096  1.00  0.00    -0.256 N 
HETATM   10  H   UNL     1     -12.474  -0.424 -32.892  1.00  0.00     0.191 HD
HETATM   11  N   UNL     1     -10.450  -0.549 -32.740  1.00  0.00    -0.172 NA
HETATM   12  C   UNL     1      -9.479   0.307 -33.120  1.00  0.00     0.099 A 
ENDROOT
BRANCH   1  13
HETATM   13  C   UNL     1      -8.409   3.330 -33.559  1.00  0.00    -0.040 C 
HETATM   14  C   UNL     1      -7.125   3.586 -34.066  1.00  0.00     0.030 C 
HETATM   15  C   UNL     1      -6.202   4.318 -33.311  1.00  0.00     0.048 C 
HETATM   16  C   UNL     1      -6.520   4.715 -32.011  1.00  0.00     0.131 C 
HETATM   17 BR   UNL     1      -4.547   4.789 -34.110  1.00  0.00    -0.048 Br
HETATM   18  C   UNL     1      -7.717   4.302 -31.413  1.00  0.00     0.104 C 
HETATM   19  C   UNL     1      -8.667   3.659 -32.206  1.00  0.00     0.048 C 
BRANCH  16  20
HETATM   20  O   UNL     1      -5.610   5.503 -31.291  1.00  0.00    -0.257 OA
BRANCH  20  21
HETATM   21  C   UNL     1      -5.890   6.867 -31.346  1.00  0.00     0.368 C 
HETATM   22  N   UNL     1      -5.381   7.558 -30.258  1.00  0.00    -0.324 N 
HETATM   23  C   UNL     1      -4.301   7.051 -29.416  1.00  0.00     0.154 C 
HETATM   24  C   UNL     1      -5.569   9.002 -30.170  1.00  0.00     0.154 C 
HETATM   25  C   UNL     1      -3.011   7.827 -29.719  1.00  0.00     0.187 C 
HETATM   26  O   UNL     1      -3.210   9.246 -29.570  1.00  0.00    -0.388 OA
HETATM   27  C   UNL     1      -4.245   9.718 -30.455  1.00  0.00     0.187 C 
HETATM   28  O   UNL     1      -6.517   7.420 -32.246  1.00  0.00    -0.238 OA
ENDBRANCH  20  21
ENDBRANCH  16  20
BRANCH  18  29
HETATM   29  O   UNL     1      -7.884   4.616 -30.092  1.00  0.00    -0.349 OA
BRANCH  29  30
HETATM   30  C   UNL     1      -8.940   5.501 -29.722  1.00  0.00     0.171 C 
HETATM   31  C   UNL     1      -8.492   6.494 -28.663  1.00  0.00     0.034 C 
ENDBRANCH  29  30
ENDBRANCH  18  29
ENDBRANCH   1  13
BRANCH   5  32
HETATM   32  N   UNL     1     -13.116   4.151 -34.692  1.00  0.00    -0.282 NA
HETATM   33  H   UNL     1     -13.755   3.853 -35.426  1.00  0.00     0.126 HD
HETATM   34  H   UNL     1     -13.590   4.414 -33.832  1.00  0.00     0.126 HD
ENDBRANCH   5  32
BRANCH  12  35
HETATM   35  C   UNL     1      -8.087  -0.002 -32.785  1.00  0.00    -0.005 A 
HETATM   36  C   UNL     1      -7.522   0.329 -31.552  1.00  0.00     0.016 A 
HETATM   37  C   UNL     1      -6.210  -0.060 -31.254  1.00  0.00     0.037 A 
HETATM   38  C   UNL     1      -5.439  -0.767 -32.181  1.00  0.00     0.068 A 
HETATM   39  C   UNL     1      -5.988  -1.078 -33.422  1.00  0.00     0.037 A 
HETATM   40  C   UNL     1      -7.300  -0.697 -33.719  1.00  0.00     0.016 A 
BRANCH  38  41
HETATM   41  O   UNL     1      -4.177  -1.088 -31.762  1.00  0.00    -0.356 OA
HETATM   42  C   UNL     1      -3.393  -0.031 -31.221  1.00  0.00     0.210 C 
ENDBRANCH  38  41
ENDBRANCH  12  35
TORSDOF 8
ENDMDL
MODEL 3
REMARK VINA RESULT:      -8.3      1.437      2.622
REMARK  8 active torsions:
REMARK  status: ('A' for Active; 'I' for Inactive)
REMARK    1  A    between atoms: C_2  and  O_3 
REMARK    2  A    between atoms: O_3  and  C_4 
REMARK    3  A    between atoms: C_5  and  O_6 
REMARK    4  A    between atoms: O_6  and  C_7 
REMARK       I    between atoms: C_7  and  N_8 
REMARK    5  A    between atoms: C_18  and  C_19 
REMARK    6  A    between atoms: C_23  and  N_24 
REMARK    7  A    between atoms: C_31  and  C_32 
REMARK    8  A    between atoms: C_35  and  O_36 
ROOT
HETATM    1  C   UNL     1      -9.452   2.707 -34.332  1.00  0.00     0.105 C 
HETATM    2  C   UNL     1     -10.635   3.673 -34.450  1.00  0.00     0.067 C 
HETATM    3  C   UNL     1     -10.351   5.107 -34.866  1.00  0.00     0.020 C 
HETATM    4  N   UNL     1     -10.116   6.297 -35.211  1.00  0.00    -0.096 N 
HETATM    5  C   UNL     1     -11.921   3.311 -34.193  1.00  0.00     0.139 C 
HETATM    6  O   UNL     1     -12.250   2.014 -33.777  1.00  0.00    -0.279 OA
HETATM    7  C   UNL     1     -11.235   1.204 -33.513  1.00  0.00     0.175 A 
HETATM    8  C   UNL     1      -9.888   1.419 -33.695  1.00  0.00     0.040 A 
HETATM    9  N   UNL     1     -11.377  -0.021 -32.957  1.00  0.00    -0.256 N 
HETATM   10  H   UNL     1     -12.234  -0.493 -32.689  1.00  0.00     0.191 HD
HETATM   11  N   UNL     1     -10.204  -0.623 -32.721  1.00  0.00    -0.172 NA
HETATM   12  C   UNL     1      -9.269   0.243 -33.162  1.00  0.00     0.099 A 
ENDROOT
BRANCH   1  13
HETATM   13  C   UNL     1      -8.235   3.277 -33.613  1.00  0.00    -0.040 C 
HETATM   14  C   UNL     1      -7.012   3.582 -34.233  1.00  0.00     0.030 C 
HETATM   15  C   UNL     1      -6.027   4.290 -33.537  1.00  0.00     0.048 C 
HETATM   16  C   UNL     1      -6.216   4.614 -32.192  1.00  0.00     0.131 C 
HETATM   17 BR   UNL     1      -4.467   4.830 -34.472  1.00  0.00    -0.048 Br
HETATM   18  C   UNL     1      -7.340   4.150 -31.500  1.00  0.00     0.104 C 
HETATM   19  C   UNL     1      -8.358   3.531 -32.225  1.00  0.00     0.048 C 
BRANCH  16  20
HETATM   20  O   UNL     1      -5.246   5.379 -31.526  1.00  0.00    -0.257 OA
BRANCH  20  21
HETATM   21  C   UNL     1      -4.055   4.691 -31.299  1.00  0.00     0.368 C 
HETATM   22  N   UNL     1      -2.938   5.435 -31.644  1.00  0.00    -0.324 N 
HETATM   23  C   UNL     1      -2.948   6.889 -31.771  1.00  0.00     0.154 C 
HETATM   24  C   UNL     1      -1.608   4.868 -31.449  1.00  0.00     0.154 C 
HETATM   25  C   UNL     1      -2.218   7.511 -30.570  1.00  0.00     0.187 C 
HETATM   26  O   UNL     1      -0.889   6.975 -30.435  1.00  0.00    -0.388 OA
HETATM   27  C   UNL     1      -0.922   5.546 -30.258  1.00  0.00     0.187 C 
HETATM   28  O   UNL     1      -3.977   3.551 -30.846  1.00  0.00    -0.238 OA
ENDBRANCH  20  21
ENDBRANCH  16  20
BRANCH  18  29
HETATM   29  O   UNL     1      -7.376   4.392 -30.153  1.00  0.00    -0.349 OA
BRANCH  29  30
HETATM   30  C   UNL     1      -8.311   5.344 -29.649  1.00  0.00     0.171 C 
HETATM   31  C   UNL     1      -7.836   5.955 -28.342  1.00  0.00     0.034 C 
ENDBRANCH  29  30
ENDBRANCH  18  29
ENDBRANCH   1  13
BRANCH   5  32
HETATM   32  N   UNL     1     -13.022   4.129 -34.301  1.00  0.00    -0.282 NA
HETATM   33  H   UNL     1     -12.898   4.983 -34.840  1.00  0.00     0.126 HD
HETATM   34  H   UNL     1     -13.862   3.615 -34.553  1.00  0.00     0.126 HD
ENDBRANCH   5  32
BRANCH  12  35
HETATM   35  C   UNL     1      -7.853  -0.074 -32.961  1.00  0.00    -0.005 A 
HETATM   36  C   UNL     1      -7.048  -0.584 -33.980  1.00  0.00     0.016 A 
HETATM   37  C   UNL     1      -5.681  -0.796 -33.754  1.00  0.00     0.037 A 
HETATM   38  C   UNL     1      -5.104  -0.520 -32.511  1.00  0.00     0.068 A 
HETATM   39  C   UNL     1      -5.908  -0.035 -31.484  1.00  0.00     0.037 A 
HETATM   40  C   UNL     1      -7.271   0.184 -31.708  1.00  0.00     0.016 A 
BRANCH  38  41
HETATM   41  O   UNL     1      -3.761  -0.769 -32.427  1.00  0.00    -0.356 OA
HETATM   42  C   UNL     1      -3.366  -2.131 -32.328  1.00  0.00     0.210 C 
ENDBRANCH  38  41
ENDBRANCH  12  35
TORSDOF 8
ENDMDL
MODEL 4
REMARK VINA RESULT:      -8.1      1.681      2.525
REMARK  8 active torsions:
REMARK  status: ('A' for Active; 'I' for Inactive)
REMARK    1  A    between atoms: C_2  and  O_3 
REMARK    2  A    between atoms: O_3  and  C_4 
REMARK    3  A    between atoms: C_5  and  O_6 
REMARK    4  A    between atoms: O_6  and  C_7 
REMARK       I    between atoms: C_7  and  N_8 
REMARK    5  A    between atoms: C_18  and  C_19 
REMARK    6  A    between atoms: C_23  and  N_24 
REMARK    7  A    between atoms: C_31  and  C_32 
REMARK    8  A    between atoms: C_35  and  O_36 
ROOT
HETATM    1  C   UNL     1      -9.603   3.688 -33.960  1.00  0.00     0.105 C 
HETATM    2  C   UNL     1     -10.555   4.827 -33.579  1.00  0.00     0.067 C 
HETATM    3  C   UNL     1     -10.025   6.250 -33.628  1.00  0.00     0.020 C 
HETATM    4  N   UNL     1      -9.586   7.431 -33.668  1.00  0.00    -0.096 N 
HETATM    5  C   UNL     1     -11.843   4.623 -33.193  1.00  0.00     0.139 C 
HETATM    6  O   UNL     1     -12.387   3.335 -33.097  1.00  0.00    -0.279 OA
HETATM    7  C   UNL     1     -11.545   2.325 -33.266  1.00  0.00     0.175 A 
HETATM    8  C   UNL     1     -10.220   2.358 -33.633  1.00  0.00     0.040 A 
HETATM    9  N   UNL     1     -11.874   1.030 -33.054  1.00  0.00    -0.256 N 
HETATM   10  H   UNL     1     -12.770   0.648 -32.769  1.00  0.00     0.191 HD
HETATM   11  N   UNL     1     -10.838   0.198 -33.220  1.00  0.00    -0.172 NA
HETATM   12  C   UNL     1      -9.804   0.989 -33.574  1.00  0.00     0.099 A 
ENDROOT
BRANCH   1  13
HETATM   13  C   UNL     1      -8.208   3.796 -33.356  1.00  0.00    -0.040 C 
HETATM   14  C   UNL     1      -7.051   4.133 -34.076  1.00  0.00     0.030 C 
HETATM   15  C   UNL     1      -5.856   4.409 -33.402  1.00  0.00     0.048 C 
HETATM   16  C   UNL     1      -5.784   4.257 -32.016  1.00  0.00     0.131 C 
HETATM   17 BR   UNL     1      -4.371   5.030 -34.405  1.00  0.00    -0.048 Br
HETATM   18  C   UNL     1      -6.867   3.733 -31.300  1.00  0.00     0.104 C 
HETATM   19  C   UNL     1      -8.079   3.555 -31.966  1.00  0.00     0.048 C 
BRANCH  16  20
HETATM   20  O   UNL     1      -4.599   4.598 -31.348  1.00  0.00    -0.257 OA
BRANCH  20  21
HETATM   21  C   UNL     1      -4.465   5.966 -31.117  1.00  0.00     0.368 C 
HETATM   22  N   UNL     1      -3.157   6.334 -30.842  1.00  0.00    -0.324 N 
HETATM   23  C   UNL     1      -2.000   5.521 -31.206  1.00  0.00     0.154 C 
HETATM   24  C   UNL     1      -2.840   7.736 -30.597  1.00  0.00     0.154 C 
HETATM   25  C   UNL     1      -1.273   6.172 -32.393  1.00  0.00     0.187 C 
HETATM   26  O   UNL     1      -0.922   7.538 -32.102  1.00  0.00    -0.388 OA
HETATM   27  C   UNL     1      -2.094   8.320 -31.800  1.00  0.00     0.187 C 
HETATM   28  O   UNL     1      -5.387   6.778 -31.146  1.00  0.00    -0.238 OA
ENDBRANCH  20  21
ENDBRANCH  16  20
BRANCH  18  29
HETATM   29  O   UNL     1      -6.662   3.484 -29.970  1.00  0.00    -0.349 OA
BRANCH  29  30
HETATM   30  C   UNL     1      -6.682   2.134 -29.510  1.00  0.00     0.171 C 
HETATM   31  C   UNL     1      -5.483   1.353 -30.021  1.00  0.00     0.034 C 
ENDBRANCH  29  30
ENDBRANCH  18  29
ENDBRANCH   1  13
BRANCH   5  32
HETATM   32  N   UNL     1     -12.746   5.606 -32.859  1.00  0.00    -0.282 NA
HETATM   33  H   UNL     1     -12.530   6.153 -32.029  1.00  0.00     0.126 HD
HETATM   34  H   UNL     1     -13.009   6.177 -33.658  1.00  0.00     0.126 HD
ENDBRANCH   5  32
BRANCH  12  35
HETATM   35  C   UNL     1      -8.477   0.393 -33.741  1.00  0.00    -0.005 A 
HETATM   36  C   UNL     1      -7.710  -0.043 -32.659  1.00  0.00     0.016 A 
HETATM   37  C   UNL     1      -6.482  -0.678 -32.880  1.00  0.00     0.037 A 
HETATM   38  C   UNL     1      -5.993  -0.874 -34.175  1.00  0.00     0.068 A 
HETATM   39  C   UNL     1      -6.742  -0.419 -35.257  1.00  0.00     0.037 A 
HETATM   40  C   UNL     1      -7.973   0.209 -35.039  1.00  0.00     0.016 A 
BRANCH  38  41
HETATM   41  O   UNL     1      -4.784  -1.510 -34.250  1.00  0.00    -0.356 OA
HETATM   42  C   UNL     1      -4.808  -2.900 -34.548  1.00  0.00     0.210 C 
ENDBRANCH  38  41
ENDBRANCH  12  35
TORSDOF 8
ENDMDL
MODEL 5
REMARK VINA RESULT:      -7.9      2.527      7.721
REMARK  8 active torsions:
REMARK  status: ('A' for Active; 'I' for Inactive)
REMARK    1  A    between atoms: C_2  and  O_3 
REMARK    2  A    between atoms: O_3  and  C_4 
REMARK    3  A    between atoms: C_5  and  O_6 
REMARK    4  A    between atoms: O_6  and  C_7 
REMARK       I    between atoms: C_7  and  N_8 
REMARK    5  A    between atoms: C_18  and  C_19 
REMARK    6  A    between atoms: C_23  and  N_24 
REMARK    7  A    between atoms: C_31  and  C_32 
REMARK    8  A    between atoms: C_35  and  O_36 
ROOT
HETATM    1  C   UNL     1      -5.686   4.515 -30.284  1.00  0.00     0.105 C 
HETATM    2  C   UNL     1      -5.521   5.862 -29.571  1.00  0.00     0.067 C 
HETATM    3  C   UNL     1      -6.660   6.350 -28.691  1.00  0.00     0.020 C 
HETATM    4  N   UNL     1      -7.604   6.756 -27.962  1.00  0.00    -0.096 N 
HETATM    5  C   UNL     1      -4.413   6.640 -29.696  1.00  0.00     0.139 C 
HETATM    6  O   UNL     1      -3.339   6.264 -30.513  1.00  0.00    -0.279 OA
HETATM    7  C   UNL     1      -3.518   5.186 -31.264  1.00  0.00     0.175 A 
HETATM    8  C   UNL     1      -4.578   4.309 -31.276  1.00  0.00     0.040 A 
HETATM    9  N   UNL     1      -2.646   4.781 -32.216  1.00  0.00    -0.256 N 
HETATM   10  H   UNL     1      -1.761   5.202 -32.477  1.00  0.00     0.191 HD
HETATM   11  N   UNL     1      -3.077   3.708 -32.890  1.00  0.00    -0.172 NA
HETATM   12  C   UNL     1      -4.267   3.397 -32.335  1.00  0.00     0.099 A 
ENDROOT
BRANCH   1  13
HETATM   13  C   UNL     1      -7.043   4.306 -30.943  1.00  0.00    -0.040 C 
HETATM   14  C   UNL     1      -7.679   5.243 -31.774  1.00  0.00     0.030 C 
HETATM   15  C   UNL     1      -8.822   4.884 -32.497  1.00  0.00     0.048 C 
HETATM   16  C   UNL     1      -9.391   3.621 -32.323  1.00  0.00     0.131 C 
HETATM   17 BR   UNL     1      -9.539   6.128 -33.737  1.00  0.00    -0.048 Br
HETATM   18  C   UNL     1      -8.890   2.741 -31.356  1.00  0.00     0.104 C 
HETATM   19  C   UNL     1      -7.697   3.071 -30.713  1.00  0.00     0.048 C 
BRANCH  16  20
HETATM   20  O   UNL     1     -10.498   3.253 -33.102  1.00  0.00    -0.257 OA
BRANCH  20  21
HETATM   21  C   UNL     1     -11.722   3.551 -32.504  1.00  0.00     0.368 C 
HETATM   22  N   UNL     1     -12.802   3.186 -33.292  1.00  0.00    -0.324 N 
HETATM   23  C   UNL     1     -12.716   2.202 -34.368  1.00  0.00     0.154 C 
HETATM   24  C   UNL     1     -14.158   3.409 -32.804  1.00  0.00     0.154 C 
HETATM   25  C   UNL     1     -13.399   0.900 -33.924  1.00  0.00     0.187 C 
HETATM   26  O   UNL     1     -14.754   1.141 -33.500  1.00  0.00    -0.388 OA
HETATM   27  C   UNL     1     -14.794   2.075 -32.403  1.00  0.00     0.187 C 
HETATM   28  O   UNL     1     -11.856   4.079 -31.403  1.00  0.00    -0.238 OA
ENDBRANCH  20  21
ENDBRANCH  16  20
BRANCH  18  29
HETATM   29  O   UNL     1      -9.594   1.585 -31.154  1.00  0.00    -0.349 OA
BRANCH  29  30
HETATM   30  C   UNL     1      -9.098   0.370 -31.714  1.00  0.00     0.171 C 
HETATM   31  C   UNL     1     -10.019  -0.160 -32.800  1.00  0.00     0.034 C 
ENDBRANCH  29  30
ENDBRANCH  18  29
ENDBRANCH   1  13
BRANCH   5  32
HETATM   32  N   UNL     1      -4.204   7.845 -29.066  1.00  0.00    -0.282 NA
HETATM   33  H   UNL     1      -4.378   8.679 -29.621  1.00  0.00     0.126 HD
HETATM   34  H   UNL     1      -4.633   7.880 -28.145  1.00  0.00     0.126 HD
ENDBRANCH   5  32
BRANCH  12  35
HETATM   35  C   UNL     1      -5.060   2.310 -32.915  1.00  0.00    -0.005 A 
HETATM   36  C   UNL     1      -6.026   2.530 -33.897  1.00  0.00     0.016 A 
HETATM   37  C   UNL     1      -6.700   1.446 -34.474  1.00  0.00     0.037 A 
HETATM   38  C   UNL     1      -6.434   0.134 -34.071  1.00  0.00     0.068 A 
HETATM   39  C   UNL     1      -5.489  -0.089 -33.074  1.00  0.00     0.037 A 
HETATM   40  C   UNL     1      -4.809   0.991 -32.502  1.00  0.00     0.016 A 
BRANCH  38  41
HETATM   41  O   UNL     1      -7.159  -0.830 -34.716  1.00  0.00    -0.356 OA
HETATM   42  C   UNL     1      -6.711  -2.172 -34.575  1.00  0.00     0.210 C 
ENDBRANCH  38  41
ENDBRANCH  12  35
TORSDOF 8
ENDMDL
MODEL 6
REMARK VINA RESULT:      -7.8      2.669      5.378
REMARK  8 active torsions:
REMARK  status: ('A' for Active; 'I' for Inactive)
REMARK    1  A    between atoms: C_2  and  O_3 
REMARK    2  A    between atoms: O_3  and  C_4 
REMARK    3  A    between atoms: C_5  and  O_6 
REMARK    4  A    between atoms: O_6  and  C_7 
REMARK       I    between atoms: C_7  and  N_8 
REMARK    5  A    between atoms: C_18  and  C_19 
REMARK    6  A    between atoms: C_23  and  N_24 
REMARK    7  A    between atoms: C_31  and  C_32 
REMARK    8  A    between atoms: C_35  and  O_36 
ROOT
HETATM    1  C   UNL     1      -5.844   1.070 -32.247  1.00  0.00     0.105 C 
HETATM    2  C   UNL     1      -4.916  -0.091 -32.621  1.00  0.00     0.067 C 
HETATM    3  C   UNL     1      -3.605  -0.232 -31.866  1.00  0.00     0.020 C 
HETATM    4  N   UNL     1      -2.517  -0.349 -31.240  1.00  0.00    -0.096 N 
HETATM    5  C   UNL     1      -5.206  -0.991 -33.598  1.00  0.00     0.139 C 
HETATM    6  O   UNL     1      -6.384  -0.904 -34.353  1.00  0.00    -0.279 OA
HETATM    7  C   UNL     1      -7.127   0.177 -34.163  1.00  0.00     0.175 A 
HETATM    8  C   UNL     1      -6.965   1.185 -33.241  1.00  0.00     0.040 A 
HETATM    9  N   UNL     1      -8.206   0.489 -34.917  1.00  0.00    -0.256 N 
HETATM   10  H   UNL     1      -8.604  -0.034 -35.690  1.00  0.00     0.191 HD
HETATM   11  N   UNL     1      -8.752   1.664 -34.581  1.00  0.00    -0.172 NA
HETATM   12  C   UNL     1      -8.006   2.118 -33.552  1.00  0.00     0.099 A 
ENDROOT
BRANCH   1  13
HETATM   13  C   UNL     1      -5.144   2.412 -32.070  1.00  0.00    -0.040 C 
HETATM   14  C   UNL     1      -5.447   3.343 -31.063  1.00  0.00     0.030 C 
HETATM   15  C   UNL     1      -4.618   4.449 -30.853  1.00  0.00     0.048 C 
HETATM   16  C   UNL     1      -3.537   4.686 -31.706  1.00  0.00     0.131 C 
HETATM   17 BR   UNL     1      -4.970   5.579 -29.371  1.00  0.00    -0.048 Br
HETATM   18  C   UNL     1      -3.332   3.882 -32.833  1.00  0.00     0.104 C 
HETATM   19  C   UNL     1      -4.103   2.729 -32.976  1.00  0.00     0.048 C 
BRANCH  16  20
HETATM   20  O   UNL     1      -2.678   5.763 -31.444  1.00  0.00    -0.257 OA
BRANCH  20  21
HETATM   21  C   UNL     1      -1.501   5.390 -30.797  1.00  0.00     0.368 C 
HETATM   22  N   UNL     1      -0.939   6.431 -30.075  1.00  0.00    -0.324 N 
HETATM   23  C   UNL     1      -1.689   7.606 -29.641  1.00  0.00     0.154 C 
HETATM   24  C   UNL     1       0.289   6.203 -29.320  1.00  0.00     0.154 C 
HETATM   25  C   UNL     1      -1.941   7.521 -28.128  1.00  0.00     0.187 C 
HETATM   26  O   UNL     1      -0.708   7.352 -27.404  1.00  0.00    -0.388 OA
HETATM   27  C   UNL     1      -0.022   6.155 -27.821  1.00  0.00     0.187 C 
HETATM   28  O   UNL     1      -0.995   4.272 -30.848  1.00  0.00    -0.238 OA
ENDBRANCH  20  21
ENDBRANCH  16  20
BRANCH  18  29
HETATM   29  O   UNL     1      -2.337   4.269 -33.691  1.00  0.00    -0.349 OA
BRANCH  29  30
HETATM   30  C   UNL     1      -2.578   5.360 -34.578  1.00  0.00     0.171 C 
HETATM   31  C   UNL     1      -3.888   5.190 -35.328  1.00  0.00     0.034 C 
ENDBRANCH  29  30
ENDBRANCH  18  29
ENDBRANCH   1  13
BRANCH   5  32
HETATM   32  N   UNL     1      -4.422  -2.062 -33.962  1.00  0.00    -0.282 NA
HETATM   33  H   UNL     1      -3.482  -2.084 -33.573  1.00  0.00     0.126 HD
HETATM   34  H   UNL     1      -4.913  -2.948 -33.874  1.00  0.00     0.126 HD
ENDBRANCH   5  32
BRANCH  12  35
HETATM   35  C   UNL     1      -8.284   3.447 -33.004  1.00  0.00    -0.005 A 
HETATM   36  C   UNL     1      -9.050   3.637 -31.852  1.00  0.00     0.016 A 
HETATM   37  C   UNL     1      -9.218   4.924 -31.326  1.00  0.00     0.037 A 
HETATM   38  C   UNL     1      -8.643   6.038 -31.945  1.00  0.00     0.068 A 
HETATM   39  C   UNL     1      -7.899   5.857 -33.108  1.00  0.00     0.037 A 
HETATM   40  C   UNL     1      -7.723   4.572 -33.631  1.00  0.00     0.016 A 
BRANCH  38  41
HETATM   41  O   UNL     1      -8.884   7.234 -31.327  1.00  0.00    -0.356 OA
HETATM   42  C   UNL     1      -8.572   7.314 -29.941  1.00  0.00     0.210 C 
ENDBRANCH  38  41
ENDBRANCH  12  35
TORSDOF 8
ENDMDL
MODEL 7
REMARK VINA RESULT:      -7.5      2.534      7.397
REMARK  8 active torsions:
REMARK  status: ('A' for Active; 'I' for Inactive)
REMARK    1  A    between atoms: C_2  and  O_3 
REMARK    2  A    between atoms: O_3  and  C_4 
REMARK    3  A    between atoms: C_5  and  O_6 
REMARK    4  A    between atoms: O_6  and  C_7 
REMARK       I    between atoms: C_7  and  N_8 
REMARK    5  A    between atoms: C_18  and  C_19 
REMARK    6  A    between atoms: C_23  and  N_24 
REMARK    7  A    between atoms: C_31  and  C_32 
REMARK    8  A    between atoms: C_35  and  O_36 
ROOT
HETATM    1  C   UNL     1      -6.127   3.932 -30.401  1.00  0.00     0.105 C 
HETATM    2  C   UNL     1      -6.317   5.389 -29.967  1.00  0.00     0.067 C 
HETATM    3  C   UNL     1      -7.726   5.866 -29.655  1.00  0.00     0.020 C 
HETATM    4  N   UNL     1      -8.895   6.261 -29.396  1.00  0.00    -0.096 N 
HETATM    5  C   UNL     1      -5.290   6.274 -29.856  1.00  0.00     0.139 C 
HETATM    6  O   UNL     1      -3.971   5.910 -30.157  1.00  0.00    -0.279 OA
HETATM    7  C   UNL     1      -3.796   4.707 -30.686  1.00  0.00     0.175 A 
HETATM    8  C   UNL     1      -4.723   3.709 -30.885  1.00  0.00     0.040 A 
HETATM    9  N   UNL     1      -2.614   4.265 -31.173  1.00  0.00    -0.256 N 
HETATM   10  H   UNL     1      -1.723   4.748 -31.192  1.00  0.00     0.191 HD
HETATM   11  N   UNL     1      -2.703   3.046 -31.721  1.00  0.00    -0.172 NA
HETATM   12  C   UNL     1      -3.991   2.680 -31.561  1.00  0.00     0.099 A 
ENDROOT
BRANCH   1  13
HETATM   13  C   UNL     1      -7.135   3.439 -31.432  1.00  0.00    -0.040 C 
HETATM   14  C   UNL     1      -7.752   2.178 -31.404  1.00  0.00     0.030 C 
HETATM   15  C   UNL     1      -8.813   1.893 -32.271  1.00  0.00     0.048 C 
HETATM   16  C   UNL     1      -9.199   2.828 -33.234  1.00  0.00     0.131 C 
HETATM   17 BR   UNL     1      -9.727   0.243 -32.075  1.00  0.00    -0.048 Br
HETATM   18  C   UNL     1      -8.471   4.011 -33.411  1.00  0.00     0.104 C 
HETATM   19  C   UNL     1      -7.482   4.326 -32.480  1.00  0.00     0.048 C 
BRANCH  16  20
HETATM   20  O   UNL     1     -10.305   2.553 -34.054  1.00  0.00    -0.257 OA
BRANCH  20  21
HETATM   21  C   UNL     1     -11.512   3.012 -33.529  1.00  0.00     0.368 C 
HETATM   22  N   UNL     1     -12.611   2.401 -34.113  1.00  0.00    -0.324 N 
HETATM   23  C   UNL     1     -12.541   1.126 -34.822  1.00  0.00     0.154 C 
HETATM   24  C   UNL     1     -13.953   2.752 -33.663  1.00  0.00     0.154 C 
HETATM   25  C   UNL     1     -13.173   0.025 -33.956  1.00  0.00     0.187 C 
HETATM   26  O   UNL     1     -14.517   0.373 -33.574  1.00  0.00    -0.388 OA
HETATM   27  C   UNL     1     -14.541   1.608 -32.831  1.00  0.00     0.187 C 
HETATM   28  O   UNL     1     -11.619   3.862 -32.649  1.00  0.00    -0.238 OA
ENDBRANCH  20  21
ENDBRANCH  16  20
BRANCH  18  29
HETATM   29  O   UNL     1      -8.831   4.802 -34.468  1.00  0.00    -0.349 OA
BRANCH  29  30
HETATM   30  C   UNL     1      -9.456   6.057 -34.208  1.00  0.00     0.171 C 
HETATM   31  C   UNL     1     -10.384   6.465 -35.340  1.00  0.00     0.034 C 
ENDBRANCH  29  30
ENDBRANCH  18  29
ENDBRANCH   1  13
BRANCH   5  32
HETATM   32  N   UNL     1      -5.399   7.584 -29.453  1.00  0.00    -0.282 NA
HETATM   33  H   UNL     1      -4.526   8.092 -29.331  1.00  0.00     0.126 HD
HETATM   34  H   UNL     1      -6.090   8.099 -29.994  1.00  0.00     0.126 HD
ENDBRANCH   5  32
BRANCH  12  35
HETATM   35  C   UNL     1      -4.450   1.417 -32.144  1.00  0.00    -0.005 A 
HETATM   36  C   UNL     1      -5.210   1.365 -33.314  1.00  0.00     0.016 A 
HETATM   37  C   UNL     1      -5.554   0.127 -33.871  1.00  0.00     0.037 A 
HETATM   38  C   UNL     1      -5.163  -1.071 -33.266  1.00  0.00     0.068 A 
HETATM   39  C   UNL     1      -4.426  -1.025 -32.086  1.00  0.00     0.037 A 
HETATM   40  C   UNL     1      -4.074   0.209 -31.531  1.00  0.00     0.016 A 
BRANCH  38  41
HETATM   41  O   UNL     1      -5.563  -2.207 -33.916  1.00  0.00    -0.356 OA
HETATM   42  C   UNL     1      -6.844  -2.176 -34.532  1.00  0.00     0.210 C 
ENDBRANCH  38  41
ENDBRANCH  12  35
TORSDOF 8
ENDMDL
MODEL 8
REMARK VINA RESULT:      -7.5      2.851      5.749
REMARK  8 active torsions:
REMARK  status: ('A' for Active; 'I' for Inactive)
REMARK    1  A    between atoms: C_2  and  O_3 
REMARK    2  A    between atoms: O_3  and  C_4 
REMARK    3  A    between atoms: C_5  and  O_6 
REMARK    4  A    between atoms: O_6  and  C_7 
REMARK       I    between atoms: C_7  and  N_8 
REMARK    5  A    between atoms: C_18  and  C_19 
REMARK    6  A    between atoms: C_23  and  N_24 
REMARK    7  A    between atoms: C_31  and  C_32 
REMARK    8  A    between atoms: C_35  and  O_36 
ROOT
HETATM    1  C   UNL     1      -6.115   0.823 -32.384  1.00  0.00     0.105 C 
HETATM    2  C   UNL     1      -5.062  -0.236 -32.726  1.00  0.00     0.067 C 
HETATM    3  C   UNL     1      -3.795  -0.284 -31.888  1.00  0.00     0.020 C 
HETATM    4  N   UNL     1      -2.744  -0.323 -31.194  1.00  0.00    -0.096 N 
HETATM    5  C   UNL     1      -5.205  -1.127 -33.744  1.00  0.00     0.139 C 
HETATM    6  O   UNL     1      -6.334  -1.120 -34.574  1.00  0.00    -0.279 OA
HETATM    7  C   UNL     1      -7.185  -0.117 -34.405  1.00  0.00     0.175 A 
HETATM    8  C   UNL     1      -7.175   0.870 -33.447  1.00  0.00     0.040 A 
HETATM    9  N   UNL     1      -8.237   0.121 -35.221  1.00  0.00    -0.256 N 
HETATM   10  H   UNL     1      -8.535  -0.410 -36.032  1.00  0.00     0.191 HD
HETATM   11  N   UNL     1      -8.909   1.230 -34.890  1.00  0.00    -0.172 NA
HETATM   12  C   UNL     1      -8.275   1.715 -33.802  1.00  0.00     0.099 A 
ENDROOT
BRANCH   1  13
HETATM   13  C   UNL     1      -5.554   2.216 -32.123  1.00  0.00    -0.040 C 
HETATM   14  C   UNL     1      -4.840   2.976 -33.063  1.00  0.00     0.030 C 
HETATM   15  C   UNL     1      -4.544   4.319 -32.805  1.00  0.00     0.048 C 
HETATM   16  C   UNL     1      -4.874   4.883 -31.571  1.00  0.00     0.131 C 
HETATM   17 BR   UNL     1      -3.734   5.350 -34.176  1.00  0.00    -0.048 Br
HETATM   18  C   UNL     1      -5.409   4.093 -30.547  1.00  0.00     0.104 C 
HETATM   19  C   UNL     1      -5.788   2.785 -30.848  1.00  0.00     0.048 C 
BRANCH  16  20
HETATM   20  O   UNL     1      -4.629   6.247 -31.351  1.00  0.00    -0.257 OA
BRANCH  20  21
HETATM   21  C   UNL     1      -3.412   6.498 -30.719  1.00  0.00     0.368 C 
HETATM   22  N   UNL     1      -3.449   7.634 -29.927  1.00  0.00    -0.324 N 
HETATM   23  C   UNL     1      -4.686   8.226 -29.426  1.00  0.00     0.154 C 
HETATM   24  C   UNL     1      -2.261   8.028 -29.177  1.00  0.00     0.154 C 
HETATM   25  C   UNL     1      -4.820   7.934 -27.924  1.00  0.00     0.187 C 
HETATM   26  O   UNL     1      -3.658   8.384 -27.201  1.00  0.00    -0.388 OA
HETATM   27  C   UNL     1      -2.465   7.739 -27.687  1.00  0.00     0.187 C 
HETATM   28  O   UNL     1      -2.403   5.806 -30.836  1.00  0.00    -0.238 OA
ENDBRANCH  20  21
ENDBRANCH  16  20
BRANCH  18  29
HETATM   29  O   UNL     1      -5.570   4.693 -29.327  1.00  0.00    -0.349 OA
BRANCH  29  30
HETATM   30  C   UNL     1      -6.879   4.776 -28.768  1.00  0.00     0.171 C 
HETATM   31  C   UNL     1      -7.640   5.977 -29.305  1.00  0.00     0.034 C 
ENDBRANCH  29  30
ENDBRANCH  18  29
ENDBRANCH   1  13
BRANCH   5  32
HETATM   32  N   UNL     1      -4.304  -2.109 -34.083  1.00  0.00    -0.282 NA
HETATM   33  H   UNL     1      -3.382  -1.793 -34.376  1.00  0.00     0.126 HD
HETATM   34  H   UNL     1      -4.271  -2.858 -33.396  1.00  0.00     0.126 HD
ENDBRANCH   5  32
BRANCH  12  35
HETATM   35  C   UNL     1      -8.710   2.995 -33.237  1.00  0.00    -0.005 A 
HETATM   36  C   UNL     1      -8.297   4.222 -33.759  1.00  0.00     0.016 A 
HETATM   37  C   UNL     1      -8.805   5.415 -33.230  1.00  0.00     0.037 A 
HETATM   38  C   UNL     1      -9.715   5.405 -32.168  1.00  0.00     0.068 A 
HETATM   39  C   UNL     1     -10.111   4.185 -31.628  1.00  0.00     0.037 A 
HETATM   40  C   UNL     1      -9.611   2.991 -32.159  1.00  0.00     0.016 A 
BRANCH  38  41
HETATM   41  O   UNL     1     -10.134   6.638 -31.751  1.00  0.00    -0.356 OA
HETATM   42  C   UNL     1      -9.356   7.755 -32.165  1.00  0.00     0.210 C 
ENDBRANCH  38  41
ENDBRANCH  12  35
TORSDOF 8
ENDMDL
MODEL 9
REMARK VINA RESULT:      -7.3      2.652      5.284
REMARK  8 active torsions:
REMARK  status: ('A' for Active; 'I' for Inactive)
REMARK    1  A    between atoms: C_2  and  O_3 
REMARK    2  A    between atoms: O_3  and  C_4 
REMARK    3  A    between atoms: C_5  and  O_6 
REMARK    4  A    between atoms: O_6  and  C_7 
REMARK       I    between atoms: C_7  and  N_8 
REMARK    5  A    between atoms: C_18  and  C_19 
REMARK    6  A    between atoms: C_23  and  N_24 
REMARK    7  A    between atoms: C_31  and  C_32 
REMARK    8  A    between atoms: C_35  and  O_36 
ROOT
HETATM    1  C   UNL     1      -6.250   1.012 -32.169  1.00  0.00     0.105 C 
HETATM    2  C   UNL     1      -5.141   0.036 -32.576  1.00  0.00     0.067 C 
HETATM    3  C   UNL     1      -3.869   0.010 -31.744  1.00  0.00     0.020 C 
HETATM    4  N   UNL     1      -2.814  -0.012 -31.055  1.00  0.00    -0.096 N 
HETATM    5  C   UNL     1      -5.238  -0.798 -33.646  1.00  0.00     0.139 C 
HETATM    6  O   UNL     1      -6.369  -0.805 -34.473  1.00  0.00    -0.279 OA
HETATM    7  C   UNL     1      -7.274   0.136 -34.242  1.00  0.00     0.175 A 
HETATM    8  C   UNL     1      -7.316   1.063 -33.226  1.00  0.00     0.040 A 
HETATM    9  N   UNL     1      -8.341   0.363 -35.042  1.00  0.00    -0.256 N 
HETATM   10  H   UNL     1      -8.613  -0.133 -35.883  1.00  0.00     0.191 HD
HETATM   11  N   UNL     1      -9.074   1.411 -34.643  1.00  0.00    -0.172 NA
HETATM   12  C   UNL     1      -8.463   1.864 -33.528  1.00  0.00     0.099 A 
ENDROOT
BRANCH   1  13
HETATM   13  C   UNL     1      -5.767   2.416 -31.826  1.00  0.00    -0.040 C 
HETATM   14  C   UNL     1      -6.095   3.106 -30.647  1.00  0.00     0.030 C 
HETATM   15  C   UNL     1      -5.442   4.301 -30.325  1.00  0.00     0.048 C 
HETATM   16  C   UNL     1      -4.530   4.863 -31.220  1.00  0.00     0.131 C 
HETATM   17 BR   UNL     1      -5.793   5.100 -28.641  1.00  0.00    -0.048 Br
HETATM   18  C   UNL     1      -4.334   4.297 -32.486  1.00  0.00     0.104 C 
HETATM   19  C   UNL     1      -4.914   3.058 -32.756  1.00  0.00     0.048 C 
BRANCH  16  20
HETATM   20  O   UNL     1      -3.837   6.027 -30.855  1.00  0.00    -0.257 OA
BRANCH  20  21
HETATM   21  C   UNL     1      -4.592   7.190 -30.998  1.00  0.00     0.368 C 
HETATM   22  N   UNL     1      -4.301   8.134 -30.026  1.00  0.00    -0.324 N 
HETATM   23  C   UNL     1      -3.064   8.137 -29.251  1.00  0.00     0.154 C 
HETATM   24  C   UNL     1      -4.989   9.421 -30.043  1.00  0.00     0.154 C 
HETATM   25  C   UNL     1      -2.158   9.278 -29.741  1.00  0.00     0.187 C 
HETATM   26  O   UNL     1      -2.844  10.543 -29.695  1.00  0.00    -0.388 OA
HETATM   27  C   UNL     1      -4.030  10.519 -30.512  1.00  0.00     0.187 C 
HETATM   28  O   UNL     1      -5.428   7.383 -31.877  1.00  0.00    -0.238 OA
ENDBRANCH  20  21
ENDBRANCH  16  20
BRANCH  18  29
HETATM   29  O   UNL     1      -3.532   4.990 -33.351  1.00  0.00    -0.349 OA
BRANCH  29  30
HETATM   30  C   UNL     1      -2.214   4.508 -33.605  1.00  0.00     0.171 C 
HETATM   31  C   UNL     1      -1.574   5.226 -34.781  1.00  0.00     0.034 C 
ENDBRANCH  29  30
ENDBRANCH  18  29
ENDBRANCH   1  13
BRANCH   5  32
HETATM   32  N   UNL     1      -4.284  -1.706 -34.045  1.00  0.00    -0.282 NA
HETATM   33  H   UNL     1      -4.223  -2.563 -33.500  1.00  0.00     0.126 HD
HETATM   34  H   UNL     1      -4.302  -1.870 -35.048  1.00  0.00     0.126 HD
ENDBRANCH   5  32
BRANCH  12  35
HETATM   35  C   UNL     1      -8.966   3.081 -32.887  1.00  0.00    -0.005 A 
HETATM   36  C   UNL     1      -9.765   3.049 -31.743  1.00  0.00     0.016 A 
HETATM   37  C   UNL     1     -10.153   4.245 -31.125  1.00  0.00     0.037 A 
HETATM   38  C   UNL     1      -9.766   5.484 -31.643  1.00  0.00     0.068 A 
HETATM   39  C   UNL     1      -8.990   5.522 -32.798  1.00  0.00     0.037 A 
HETATM   40  C   UNL     1      -8.595   4.330 -33.413  1.00  0.00     0.016 A 
BRANCH  38  41
HETATM   41  O   UNL     1     -10.210   6.572 -30.941  1.00  0.00    -0.356 OA
HETATM   42  C   UNL     1     -11.613   6.671 -30.732  1.00  0.00     0.210 C 
ENDBRANCH  38  41
ENDBRANCH  12  35
TORSDOF 8
ENDMDL
MODEL 10
REMARK VINA RESULT:      -7.3      2.654      7.869
REMARK  8 active torsions:
REMARK  status: ('A' for Active; 'I' for Inactive)
REMARK    1  A    between atoms: C_2  and  O_3 
REMARK    2  A    between atoms: O_3  and  C_4 
REMARK    3  A    between atoms: C_5  and  O_6 
REMARK    4  A    between atoms: O_6  and  C_7 
REMARK       I    between atoms: C_7  and  N_8 
REMARK    5  A    between atoms: C_18  and  C_19 
REMARK    6  A    between atoms: C_23  and  N_24 
REMARK    7  A    between atoms: C_31  and  C_32 
REMARK    8  A    between atoms: C_35  and  O_36 
ROOT
HETATM    1  C   UNL     1      -3.963   7.203 -30.964  1.00  0.00     0.105 C 
HETATM    2  C   UNL     1      -3.652   8.633 -30.509  1.00  0.00     0.067 C 
HETATM    3  C   UNL     1      -4.483   9.222 -29.381  1.00  0.00     0.020 C 
HETATM    4  N   UNL     1      -5.173   9.712 -28.446  1.00  0.00    -0.096 N 
HETATM    5  C   UNL     1      -2.678   9.397 -31.070  1.00  0.00     0.139 C 
HETATM    6  O   UNL     1      -1.894   8.927 -32.133  1.00  0.00    -0.279 OA
HETATM    7  C   UNL     1      -2.245   7.759 -32.652  1.00  0.00     0.175 A 
HETATM    8  C   UNL     1      -3.211   6.878 -32.222  1.00  0.00     0.040 A 
HETATM    9  N   UNL     1      -1.693   7.240 -33.773  1.00  0.00    -0.256 N 
HETATM   10  H   UNL     1      -0.955   7.630 -34.348  1.00  0.00     0.191 HD
HETATM   11  N   UNL     1      -2.259   6.083 -34.141  1.00  0.00    -0.172 NA
HETATM   12  C   UNL     1      -3.200   5.838 -33.206  1.00  0.00     0.099 A 
ENDROOT
BRANCH   1  13
HETATM   13  C   UNL     1      -5.447   6.897 -31.132  1.00  0.00    -0.040 C 
HETATM   14  C   UNL     1      -6.406   7.821 -31.576  1.00  0.00     0.030 C 
HETATM   15  C   UNL     1      -7.700   7.396 -31.895  1.00  0.00     0.048 C 
HETATM   16  C   UNL     1      -8.072   6.068 -31.681  1.00  0.00     0.131 C 
HETATM   17 BR   UNL     1      -8.905   8.648 -32.657  1.00  0.00    -0.048 Br
HETATM   18  C   UNL     1      -7.194   5.174 -31.056  1.00  0.00     0.104 C 
HETATM   19  C   UNL     1      -5.879   5.582 -30.834  1.00  0.00     0.048 C 
BRANCH  16  20
HETATM   20  O   UNL     1      -9.353   5.642 -32.065  1.00  0.00    -0.257 OA
BRANCH  20  21
HETATM   21  C   UNL     1      -9.385   5.040 -33.322  1.00  0.00     0.368 C 
HETATM   22  N   UNL     1      -9.976   3.787 -33.295  1.00  0.00    -0.324 N 
HETATM   23  C   UNL     1     -10.870   3.341 -32.231  1.00  0.00     0.154 C 
HETATM   24  C   UNL     1     -10.108   3.027 -34.534  1.00  0.00     0.154 C 
HETATM   25  C   UNL     1     -12.315   3.322 -32.753  1.00  0.00     0.187 C 
HETATM   26  O   UNL     1     -12.427   2.520 -33.943  1.00  0.00    -0.388 OA
HETATM   27  C   UNL     1     -11.571   3.021 -34.988  1.00  0.00     0.187 C 
HETATM   28  O   UNL     1      -8.944   5.541 -34.353  1.00  0.00    -0.238 OA
ENDBRANCH  20  21
ENDBRANCH  16  20
BRANCH  18  29
HETATM   29  O   UNL     1      -7.690   3.934 -30.758  1.00  0.00    -0.349 OA
BRANCH  29  30
HETATM   30  C   UNL     1      -7.229   3.273 -29.580  1.00  0.00     0.171 C 
HETATM   31  C   UNL     1      -6.536   1.961 -29.911  1.00  0.00     0.034 C 
ENDBRANCH  29  30
ENDBRANCH  18  29
ENDBRANCH   1  13
BRANCH   5  32
HETATM   32  N   UNL     1      -2.343  10.676 -30.690  1.00  0.00    -0.282 NA
HETATM   33  H   UNL     1      -1.462  10.782 -30.193  1.00  0.00     0.126 HD
HETATM   34  H   UNL     1      -2.460  11.348 -31.445  1.00  0.00     0.126 HD
ENDBRANCH   5  32
BRANCH  12  35
HETATM   35  C   UNL     1      -4.079   4.678 -33.369  1.00  0.00    -0.005 A 
HETATM   36  C   UNL     1      -3.880   3.483 -32.675  1.00  0.00     0.016 A 
HETATM   37  C   UNL     1      -4.797   2.433 -32.809  1.00  0.00     0.037 A 
HETATM   38  C   UNL     1      -5.911   2.550 -33.645  1.00  0.00     0.068 A 
HETATM   39  C   UNL     1      -6.101   3.729 -34.359  1.00  0.00     0.037 A 
HETATM   40  C   UNL     1      -5.192   4.782 -34.221  1.00  0.00     0.016 A 
BRANCH  38  41
HETATM   41  O   UNL     1      -6.727   1.452 -33.681  1.00  0.00    -0.356 OA
HETATM   42  C   UNL     1      -6.928   0.844 -34.951  1.00  0.00     0.210 C 
ENDBRANCH  38  41
ENDBRANCH  12  35
TORSDOF 8
ENDMDL
