MODEL 1
REMARK VINA RESULT:      -7.9      0.000      0.000
REMARK  7 active torsions:
REMARK  status: ('A' for Active; 'I' for Inactive)
REMARK    1  A    between atoms: C_2  and  C_3 
REMARK    2  A    between atoms: C_3  and  N_4 
REMARK    3  A    between atoms: N_4  and  C_5 
REMARK    4  A    between atoms: C_7  and  N_8 
REMARK    5  A    between atoms: N_8  and  C_9 
REMARK    6  A    between atoms: C_9  and  C_10 
REMARK    7  A    between atoms: C_11  and  O_12 
ROOT
HETATM    1  C   UNL     1      -6.456   0.600 -33.095  1.00  0.00     0.134 A 
HETATM    2  N   UNL     1      -5.577   1.419 -32.483  1.00  0.00    -0.052 NA
HETATM    3  C   UNL     1      -4.323   0.980 -32.305  1.00  0.00     0.702 A 
HETATM    4  N   UNL     1      -3.913  -0.220 -32.702  1.00  0.00    -0.189 N 
HETATM    5  H   UNL     1      -2.939  -0.456 -32.576  1.00  0.00     0.184 HD
HETATM    6  C   UNL     1      -4.739  -1.060 -33.342  1.00  0.00     0.062 A 
HETATM    7  C   UNL     1      -6.070  -0.668 -33.576  1.00  0.00     0.032 A 
HETATM    8  C   UNL     1      -4.265  -2.297 -33.805  1.00  0.00     0.031 A 
HETATM    9  C   UNL     1      -5.108  -3.152 -34.515  1.00  0.00     0.002 A 
HETATM   10  C   UNL     1      -6.424  -2.777 -34.766  1.00  0.00     0.001 A 
HETATM   11  C   UNL     1      -6.904  -1.551 -34.303  1.00  0.00     0.017 A 
ENDROOT
BRANCH   3  12
HETATM   12  N   UNL     1      -3.420   1.892 -31.810  1.00  0.00    -0.220 N 
HETATM   13  H   UNL     1      -2.522   1.737 -32.264  1.00  0.00     0.178 HD
BRANCH  12  14
HETATM   14  C   UNL     1      -3.739   3.295 -31.601  1.00  0.00     0.179 C 
BRANCH  14  15
HETATM   15  C   UNL     1      -3.136   4.246 -32.614  1.00  0.00    -0.007 A 
HETATM   16  C   UNL     1      -1.795   4.658 -32.453  1.00  0.00     0.076 A 
HETATM   17  C   UNL     1      -1.180   5.448 -33.432  1.00  0.00     0.037 A 
HETATM   18  C   UNL     1      -1.878   5.816 -34.581  1.00  0.00     0.003 A 
HETATM   19  C   UNL     1      -3.193   5.403 -34.759  1.00  0.00     0.001 A 
HETATM   20  C   UNL     1      -3.817   4.618 -33.788  1.00  0.00     0.011 A 
BRANCH  16  21
HETATM   21  O   UNL     1      -1.175   4.245 -31.299  1.00  0.00    -0.355 OA
HETATM   22  C   UNL     1      -0.457   5.237 -30.566  1.00  0.00     0.210 C 
ENDBRANCH  16  21
ENDBRANCH  14  15
ENDBRANCH  12  14
ENDBRANCH   3  12
BRANCH   1  23
HETATM   23  N   UNL     1      -7.756   1.059 -33.336  1.00  0.00    -0.276 NA
HETATM   24  H   UNL     1      -8.114   0.707 -34.222  1.00  0.00     0.129 HD
BRANCH  23  25
HETATM   25  C   UNL     1      -8.731   0.900 -32.259  1.00  0.00     0.093 C 
BRANCH  25  26
HETATM   26  C   UNL     1      -9.896   0.029 -32.735  1.00  0.00     0.010 C 
HETATM   27  C   UNL     1     -10.935   0.818 -33.522  1.00  0.00     0.006 C 
ENDBRANCH  25  26
ENDBRANCH  23  25
ENDBRANCH   1  23
TORSDOF 7
ENDMDL
MODEL 2
REMARK VINA RESULT:      -7.8      1.710      3.427
REMARK  7 active torsions:
REMARK  status: ('A' for Active; 'I' for Inactive)
REMARK    1  A    between atoms: C_2  and  C_3 
REMARK    2  A    between atoms: C_3  and  N_4 
REMARK    3  A    between atoms: N_4  and  C_5 
REMARK    4  A    between atoms: C_7  and  N_8 
REMARK    5  A    between atoms: N_8  and  C_9 
REMARK    6  A    between atoms: C_9  and  C_10 
REMARK    7  A    between atoms: C_11  and  O_12 
ROOT
HETATM    1  C   UNL     1      -4.633  -0.365 -32.049  1.00  0.00     0.134 A 
HETATM    2  N   UNL     1      -4.157   0.706 -31.384  1.00  0.00    -0.052 NA
HETATM    3  C   UNL     1      -4.538   1.924 -31.793  1.00  0.00     0.702 A 
HETATM    4  N   UNL     1      -5.359   2.119 -32.820  1.00  0.00    -0.189 N 
HETATM    5  H   UNL     1      -5.637   3.066 -33.032  1.00  0.00     0.184 HD
HETATM    6  C   UNL     1      -5.884   1.088 -33.495  1.00  0.00     0.062 A 
HETATM    7  C   UNL     1      -5.540  -0.225 -33.121  1.00  0.00     0.032 A 
HETATM    8  C   UNL     1      -6.796   1.319 -34.536  1.00  0.00     0.031 A 
HETATM    9  C   UNL     1      -7.383   0.247 -35.208  1.00  0.00     0.002 A 
HETATM   10  C   UNL     1      -7.064  -1.058 -34.845  1.00  0.00     0.001 A 
HETATM   11  C   UNL     1      -6.153  -1.296 -33.814  1.00  0.00     0.017 A 
ENDROOT
BRANCH   3  12
HETATM   12  N   UNL     1      -4.149   2.982 -31.005  1.00  0.00    -0.220 N 
HETATM   13  H   UNL     1      -3.237   2.771 -30.606  1.00  0.00     0.178 HD
BRANCH  12  14
HETATM   14  C   UNL     1      -4.309   4.372 -31.402  1.00  0.00     0.179 C 
BRANCH  14  15
HETATM   15  C   UNL     1      -3.468   4.799 -32.588  1.00  0.00    -0.007 A 
HETATM   16  C   UNL     1      -2.062   4.700 -32.501  1.00  0.00     0.076 A 
HETATM   17  C   UNL     1      -1.267   4.985 -33.617  1.00  0.00     0.037 A 
HETATM   18  C   UNL     1      -1.856   5.347 -34.827  1.00  0.00     0.003 A 
HETATM   19  C   UNL     1      -3.240   5.432 -34.930  1.00  0.00     0.001 A 
HETATM   20  C   UNL     1      -4.042   5.154 -33.823  1.00  0.00     0.011 A 
BRANCH  16  21
HETATM   21  O   UNL     1      -1.562   4.328 -31.277  1.00  0.00    -0.355 OA
HETATM   22  C   UNL     1      -0.608   5.206 -30.680  1.00  0.00     0.210 C 
ENDBRANCH  16  21
ENDBRANCH  14  15
ENDBRANCH  12  14
ENDBRANCH   3  12
BRANCH   1  23
HETATM   23  N   UNL     1      -4.288  -1.648 -31.607  1.00  0.00    -0.276 NA
HETATM   24  H   UNL     1      -5.005  -2.329 -31.852  1.00  0.00     0.129 HD
BRANCH  23  25
HETATM   25  C   UNL     1      -2.949  -2.131 -31.939  1.00  0.00     0.093 C 
BRANCH  25  26
HETATM   26  C   UNL     1      -2.914  -3.659 -31.868  1.00  0.00     0.010 C 
HETATM   27  C   UNL     1      -3.473  -4.317 -33.123  1.00  0.00     0.006 C 
ENDBRANCH  25  26
ENDBRANCH  23  25
ENDBRANCH   1  23
TORSDOF 7
ENDMDL
MODEL 3
REMARK VINA RESULT:      -7.6      1.801      3.138
REMARK  7 active torsions:
REMARK  status: ('A' for Active; 'I' for Inactive)
REMARK    1  A    between atoms: C_2  and  C_3 
REMARK    2  A    between atoms: C_3  and  N_4 
REMARK    3  A    between atoms: N_4  and  C_5 
REMARK    4  A    between atoms: C_7  and  N_8 
REMARK    5  A    between atoms: N_8  and  C_9 
REMARK    6  A    between atoms: C_9  and  C_10 
REMARK    7  A    between atoms: C_11  and  O_12 
ROOT
HETATM    1  C   UNL     1      -6.239  -1.099 -34.330  1.00  0.00     0.134 A 
HETATM    2  N   UNL     1      -5.424  -0.199 -33.745  1.00  0.00    -0.052 NA
HETATM    3  C   UNL     1      -4.267  -0.636 -33.230  1.00  0.00     0.702 A 
HETATM    4  N   UNL     1      -3.893  -1.911 -33.270  1.00  0.00    -0.189 N 
HETATM    5  H   UNL     1      -2.982  -2.151 -32.904  1.00  0.00     0.184 HD
HETATM    6  C   UNL     1      -4.652  -2.840 -33.866  1.00  0.00     0.062 A 
HETATM    7  C   UNL     1      -5.880  -2.458 -34.440  1.00  0.00     0.032 A 
HETATM    8  C   UNL     1      -4.206  -4.168 -33.948  1.00  0.00     0.031 A 
HETATM    9  C   UNL     1      -4.972  -5.127 -34.612  1.00  0.00     0.002 A 
HETATM   10  C   UNL     1      -6.182  -4.766 -35.196  1.00  0.00     0.001 A 
HETATM   11  C   UNL     1      -6.635  -3.448 -35.112  1.00  0.00     0.017 A 
ENDROOT
BRANCH   3  12
HETATM   12  N   UNL     1      -3.398   0.327 -32.772  1.00  0.00    -0.220 N 
HETATM   13  H   UNL     1      -3.384   1.094 -33.441  1.00  0.00     0.178 HD
BRANCH  12  14
HETATM   14  C   UNL     1      -3.345   0.757 -31.384  1.00  0.00     0.179 C 
BRANCH  14  15
HETATM   15  C   UNL     1      -4.411   1.756 -30.983  1.00  0.00    -0.007 A 
HETATM   16  C   UNL     1      -4.321   3.082 -31.462  1.00  0.00     0.076 A 
HETATM   17  C   UNL     1      -5.348   3.996 -31.196  1.00  0.00     0.037 A 
HETATM   18  C   UNL     1      -6.474   3.600 -30.477  1.00  0.00     0.003 A 
HETATM   19  C   UNL     1      -6.582   2.293 -30.014  1.00  0.00     0.001 A 
HETATM   20  C   UNL     1      -5.562   1.375 -30.270  1.00  0.00     0.011 A 
BRANCH  16  21
HETATM   21  O   UNL     1      -3.185   3.388 -32.169  1.00  0.00    -0.355 OA
HETATM   22  C   UNL     1      -2.324   4.377 -31.605  1.00  0.00     0.210 C 
ENDBRANCH  16  21
ENDBRANCH  14  15
ENDBRANCH  12  14
ENDBRANCH   3  12
BRANCH   1  23
HETATM   23  N   UNL     1      -7.429  -0.654 -34.919  1.00  0.00    -0.276 NA
HETATM   24  H   UNL     1      -8.182  -1.328 -34.786  1.00  0.00     0.129 HD
BRANCH  23  25
HETATM   25  C   UNL     1      -7.861   0.706 -34.607  1.00  0.00     0.093 C 
BRANCH  25  26
HETATM   26  C   UNL     1      -9.170   0.669 -33.815  1.00  0.00     0.010 C 
HETATM   27  C   UNL     1      -8.947   0.448 -32.324  1.00  0.00     0.006 C 
ENDBRANCH  25  26
ENDBRANCH  23  25
ENDBRANCH   1  23
TORSDOF 7
ENDMDL
MODEL 4
REMARK VINA RESULT:      -7.6      3.541      6.779
REMARK  7 active torsions:
REMARK  status: ('A' for Active; 'I' for Inactive)
REMARK    1  A    between atoms: C_2  and  C_3 
REMARK    2  A    between atoms: C_3  and  N_4 
REMARK    3  A    between atoms: N_4  and  C_5 
REMARK    4  A    between atoms: C_7  and  N_8 
REMARK    5  A    between atoms: N_8  and  C_9 
REMARK    6  A    between atoms: C_9  and  C_10 
REMARK    7  A    between atoms: C_11  and  O_12 
ROOT
HETATM    1  C   UNL     1      -4.872  -0.748 -33.764  1.00  0.00     0.134 A 
HETATM    2  N   UNL     1      -5.836   0.179 -33.933  1.00  0.00    -0.052 NA
HETATM    3  C   UNL     1      -7.001  -0.211 -34.468  1.00  0.00     0.702 A 
HETATM    4  N   UNL     1      -7.244  -1.465 -34.837  1.00  0.00    -0.189 N 
HETATM    5  H   UNL     1      -8.166  -1.687 -35.185  1.00  0.00     0.184 HD
HETATM    6  C   UNL     1      -6.332  -2.431 -34.662  1.00  0.00     0.062 A 
HETATM    7  C   UNL     1      -5.085  -2.102 -34.097  1.00  0.00     0.032 A 
HETATM    8  C   UNL     1      -6.636  -3.757 -35.004  1.00  0.00     0.031 A 
HETATM    9  C   UNL     1      -5.707  -4.772 -34.776  1.00  0.00     0.002 A 
HETATM   10  C   UNL     1      -4.473  -4.469 -34.208  1.00  0.00     0.001 A 
HETATM   11  C   UNL     1      -4.161  -3.150 -33.872  1.00  0.00     0.017 A 
ENDROOT
BRANCH   3  12
HETATM   12  N   UNL     1      -8.007   0.726 -34.493  1.00  0.00    -0.220 N 
HETATM   13  H   UNL     1      -8.534   0.614 -35.357  1.00  0.00     0.178 HD
BRANCH  12  14
HETATM   14  C   UNL     1      -8.834   1.038 -33.338  1.00  0.00     0.179 C 
BRANCH  14  15
HETATM   15  C   UNL     1     -10.321   1.103 -33.615  1.00  0.00    -0.007 A 
HETATM   16  C   UNL     1     -10.829   2.176 -34.381  1.00  0.00     0.076 A 
HETATM   17  C   UNL     1     -12.181   2.203 -34.743  1.00  0.00     0.037 A 
HETATM   18  C   UNL     1     -13.031   1.163 -34.370  1.00  0.00     0.003 A 
HETATM   19  C   UNL     1     -12.540   0.093 -33.630  1.00  0.00     0.001 A 
HETATM   20  C   UNL     1     -11.195   0.058 -33.261  1.00  0.00     0.011 A 
BRANCH  16  21
HETATM   21  O   UNL     1      -9.925   3.154 -34.715  1.00  0.00    -0.355 OA
HETATM   22  C   UNL     1     -10.457   4.358 -35.266  1.00  0.00     0.210 C 
ENDBRANCH  16  21
ENDBRANCH  14  15
ENDBRANCH  12  14
ENDBRANCH   3  12
BRANCH   1  23
HETATM   23  N   UNL     1      -3.667  -0.372 -33.160  1.00  0.00    -0.276 NA
HETATM   24  H   UNL     1      -2.943  -0.199 -33.856  1.00  0.00     0.129 HD
BRANCH  23  25
HETATM   25  C   UNL     1      -3.724   0.696 -32.164  1.00  0.00     0.093 C 
BRANCH  25  26
HETATM   26  C   UNL     1      -4.046   0.110 -30.788  1.00  0.00     0.010 C 
HETATM   27  C   UNL     1      -5.401   0.564 -30.259  1.00  0.00     0.006 C 
ENDBRANCH  25  26
ENDBRANCH  23  25
ENDBRANCH   1  23
TORSDOF 7
ENDMDL
MODEL 5
REMARK VINA RESULT:      -7.5      1.105      1.937
REMARK  7 active torsions:
REMARK  status: ('A' for Active; 'I' for Inactive)
REMARK    1  A    between atoms: C_2  and  C_3 
REMARK    2  A    between atoms: C_3  and  N_4 
REMARK    3  A    between atoms: N_4  and  C_5 
REMARK    4  A    between atoms: C_7  and  N_8 
REMARK    5  A    between atoms: N_8  and  C_9 
REMARK    6  A    between atoms: C_9  and  C_10 
REMARK    7  A    between atoms: C_11  and  O_12 
ROOT
HETATM    1  C   UNL     1      -6.350   0.883 -33.402  1.00  0.00     0.134 A 
HETATM    2  N   UNL     1      -5.414   1.652 -32.813  1.00  0.00    -0.052 NA
HETATM    3  C   UNL     1      -4.215   1.108 -32.563  1.00  0.00     0.702 A 
HETATM    4  N   UNL     1      -3.914  -0.151 -32.868  1.00  0.00    -0.189 N 
HETATM    5  H   UNL     1      -2.972  -0.470 -32.692  1.00  0.00     0.184 HD
HETATM    6  C   UNL     1      -4.799  -0.948 -33.481  1.00  0.00     0.062 A 
HETATM    7  C   UNL     1      -6.078  -0.447 -33.787  1.00  0.00     0.032 A 
HETATM    8  C   UNL     1      -4.435  -2.253 -33.847  1.00  0.00     0.031 A 
HETATM    9  C   UNL     1      -5.338  -3.069 -34.530  1.00  0.00     0.002 A 
HETATM   10  C   UNL     1      -6.603  -2.587 -34.851  1.00  0.00     0.001 A 
HETATM   11  C   UNL     1      -6.973  -1.291 -34.485  1.00  0.00     0.017 A 
ENDROOT
BRANCH   3  12
HETATM   12  N   UNL     1      -3.242   1.960 -32.096  1.00  0.00    -0.220 N 
HETATM   13  H   UNL     1      -2.407   1.842 -32.667  1.00  0.00     0.178 HD
BRANCH  12  14
HETATM   14  C   UNL     1      -3.504   3.339 -31.718  1.00  0.00     0.179 C 
BRANCH  14  15
HETATM   15  C   UNL     1      -2.723   4.376 -32.497  1.00  0.00    -0.007 A 
HETATM   16  C   UNL     1      -3.296   4.931 -33.663  1.00  0.00     0.076 A 
HETATM   17  C   UNL     1      -2.644   5.968 -34.341  1.00  0.00     0.037 A 
HETATM   18  C   UNL     1      -1.437   6.474 -33.862  1.00  0.00     0.003 A 
HETATM   19  C   UNL     1      -0.871   5.946 -32.707  1.00  0.00     0.001 A 
HETATM   20  C   UNL     1      -1.511   4.911 -32.025  1.00  0.00     0.011 A 
BRANCH  16  21
HETATM   21  O   UNL     1      -4.490   4.384 -34.063  1.00  0.00    -0.355 OA
HETATM   22  C   UNL     1      -5.661   5.170 -33.845  1.00  0.00     0.210 C 
ENDBRANCH  16  21
ENDBRANCH  14  15
ENDBRANCH  12  14
ENDBRANCH   3  12
BRANCH   1  23
HETATM   23  N   UNL     1      -7.592   1.447 -33.718  1.00  0.00    -0.276 NA
HETATM   24  H   UNL     1      -8.105   0.865 -34.378  1.00  0.00     0.129 HD
BRANCH  23  25
HETATM   25  C   UNL     1      -8.436   1.872 -32.603  1.00  0.00     0.093 C 
BRANCH  25  26
HETATM   26  C   UNL     1      -9.011   0.647 -31.888  1.00  0.00     0.010 C 
HETATM   27  C   UNL     1     -10.009  -0.119 -32.747  1.00  0.00     0.006 C 
ENDBRANCH  25  26
ENDBRANCH  23  25
ENDBRANCH   1  23
TORSDOF 7
ENDMDL
MODEL 6
REMARK VINA RESULT:      -7.5      4.032      7.131
REMARK  7 active torsions:
REMARK  status: ('A' for Active; 'I' for Inactive)
REMARK    1  A    between atoms: C_2  and  C_3 
REMARK    2  A    between atoms: C_3  and  N_4 
REMARK    3  A    between atoms: N_4  and  C_5 
REMARK    4  A    between atoms: C_7  and  N_8 
REMARK    5  A    between atoms: N_8  and  C_9 
REMARK    6  A    between atoms: C_9  and  C_10 
REMARK    7  A    between atoms: C_11  and  O_12 
ROOT
HETATM    1  C   UNL     1      -6.262  -1.349 -33.619  1.00  0.00     0.134 A 
HETATM    2  N   UNL     1      -7.497  -0.842 -33.435  1.00  0.00    -0.052 NA
HETATM    3  C   UNL     1      -7.684   0.011 -32.418  1.00  0.00     0.702 A 
HETATM    4  N   UNL     1      -6.710   0.374 -31.590  1.00  0.00    -0.189 N 
HETATM    5  H   UNL     1      -6.922   1.061 -30.880  1.00  0.00     0.184 HD
HETATM    6  C   UNL     1      -5.459  -0.077 -31.748  1.00  0.00     0.062 A 
HETATM    7  C   UNL     1      -5.179  -0.970 -32.799  1.00  0.00     0.032 A 
HETATM    8  C   UNL     1      -4.436   0.369 -30.896  1.00  0.00     0.031 A 
HETATM    9  C   UNL     1      -3.123  -0.060 -31.090  1.00  0.00     0.002 A 
HETATM   10  C   UNL     1      -2.825  -0.934 -32.130  1.00  0.00     0.001 A 
HETATM   11  C   UNL     1      -3.838  -1.387 -32.977  1.00  0.00     0.017 A 
ENDROOT
BRANCH   3  12
HETATM   12  N   UNL     1      -8.916   0.618 -32.348  1.00  0.00    -0.220 N 
HETATM   13  H   UNL     1      -9.148   0.768 -31.368  1.00  0.00     0.178 HD
BRANCH  12  14
HETATM   14  C   UNL     1      -9.318   1.710 -33.221  1.00  0.00     0.179 C 
BRANCH  14  15
HETATM   15  C   UNL     1     -10.750   1.645 -33.709  1.00  0.00    -0.007 A 
HETATM   16  C   UNL     1     -11.196   2.598 -34.651  1.00  0.00     0.076 A 
HETATM   17  C   UNL     1     -12.479   2.496 -35.200  1.00  0.00     0.037 A 
HETATM   18  C   UNL     1     -13.319   1.444 -34.838  1.00  0.00     0.003 A 
HETATM   19  C   UNL     1     -12.886   0.491 -33.924  1.00  0.00     0.001 A 
HETATM   20  C   UNL     1     -11.609   0.585 -33.368  1.00  0.00     0.011 A 
BRANCH  16  21
HETATM   21  O   UNL     1     -10.305   3.596 -34.962  1.00  0.00    -0.355 OA
HETATM   22  C   UNL     1     -10.859   4.852 -35.354  1.00  0.00     0.210 C 
ENDBRANCH  16  21
ENDBRANCH  14  15
ENDBRANCH  12  14
ENDBRANCH   3  12
BRANCH   1  23
HETATM   23  N   UNL     1      -6.034  -2.202 -34.706  1.00  0.00    -0.276 NA
HETATM   24  H   UNL     1      -5.039  -2.383 -34.831  1.00  0.00     0.129 HD
BRANCH  23  25
HETATM   25  C   UNL     1      -6.817  -3.434 -34.764  1.00  0.00     0.093 C 
BRANCH  25  26
HETATM   26  C   UNL     1      -5.934  -4.592 -35.235  1.00  0.00     0.010 C 
HETATM   27  C   UNL     1      -4.715  -4.799 -34.346  1.00  0.00     0.006 C 
ENDBRANCH  25  26
ENDBRANCH  23  25
ENDBRANCH   1  23
TORSDOF 7
ENDMDL
MODEL 7
REMARK VINA RESULT:      -7.4     15.353     17.089
REMARK  7 active torsions:
REMARK  status: ('A' for Active; 'I' for Inactive)
REMARK    1  A    between atoms: C_2  and  C_3 
REMARK    2  A    between atoms: C_3  and  N_4 
REMARK    3  A    between atoms: N_4  and  C_5 
REMARK    4  A    between atoms: C_7  and  N_8 
REMARK    5  A    between atoms: N_8  and  C_9 
REMARK    6  A    between atoms: C_9  and  C_10 
REMARK    7  A    between atoms: C_11  and  O_12 
ROOT
HETATM    1  C   UNL     1      -3.839 -12.394 -38.251  1.00  0.00     0.134 A 
HETATM    2  N   UNL     1      -3.694 -12.683 -36.942  1.00  0.00    -0.052 NA
HETATM    3  C   UNL     1      -4.797 -12.943 -36.227  1.00  0.00     0.702 A 
HETATM    4  N   UNL     1      -6.019 -12.928 -36.749  1.00  0.00    -0.189 N 
HETATM    5  H   UNL     1      -6.794 -13.185 -36.154  1.00  0.00     0.184 HD
HETATM    6  C   UNL     1      -6.216 -12.678 -38.051  1.00  0.00     0.062 A 
HETATM    7  C   UNL     1      -5.105 -12.404 -38.872  1.00  0.00     0.032 A 
HETATM    8  C   UNL     1      -7.510 -12.728 -38.590  1.00  0.00     0.031 A 
HETATM    9  C   UNL     1      -7.712 -12.517 -39.955  1.00  0.00     0.002 A 
HETATM   10  C   UNL     1      -6.626 -12.256 -40.784  1.00  0.00     0.001 A 
HETATM   11  C   UNL     1      -5.336 -12.198 -40.253  1.00  0.00     0.017 A 
ENDROOT
BRANCH   3  12
HETATM   12  N   UNL     1      -4.601 -13.373 -34.935  1.00  0.00    -0.220 N 
HETATM   13  H   UNL     1      -3.630 -13.198 -34.680  1.00  0.00     0.178 HD
BRANCH  12  14
HETATM   14  C   UNL     1      -5.546 -13.121 -33.859  1.00  0.00     0.179 C 
BRANCH  14  15
HETATM   15  C   UNL     1      -5.918 -14.337 -33.037  1.00  0.00    -0.007 A 
HETATM   16  C   UNL     1      -6.722 -15.340 -33.624  1.00  0.00     0.076 A 
HETATM   17  C   UNL     1      -6.991 -16.523 -32.926  1.00  0.00     0.037 A 
HETATM   18  C   UNL     1      -6.452 -16.730 -31.657  1.00  0.00     0.003 A 
HETATM   19  C   UNL     1      -5.646 -15.758 -31.075  1.00  0.00     0.001 A 
HETATM   20  C   UNL     1      -5.375 -14.573 -31.761  1.00  0.00     0.011 A 
BRANCH  16  21
HETATM   21  O   UNL     1      -7.205 -15.063 -34.879  1.00  0.00    -0.355 OA
HETATM   22  C   UNL     1      -7.194 -16.134 -35.822  1.00  0.00     0.210 C 
ENDBRANCH  16  21
ENDBRANCH  14  15
ENDBRANCH  12  14
ENDBRANCH   3  12
BRANCH   1  23
HETATM   23  N   UNL     1      -2.696 -12.170 -39.027  1.00  0.00    -0.276 NA
HETATM   24  H   UNL     1      -2.741 -11.268 -39.499  1.00  0.00     0.129 HD
BRANCH  23  25
HETATM   25  C   UNL     1      -1.400 -12.377 -38.383  1.00  0.00     0.093 C 
BRANCH  25  26
HETATM   26  C   UNL     1      -0.784 -13.693 -38.864  1.00  0.00     0.010 C 
HETATM   27  C   UNL     1      -0.792 -13.824 -40.382  1.00  0.00     0.006 C 
ENDBRANCH  25  26
ENDBRANCH  23  25
ENDBRANCH   1  23
TORSDOF 7
ENDMDL
MODEL 8
REMARK VINA RESULT:      -7.2      3.319      7.688
REMARK  7 active torsions:
REMARK  status: ('A' for Active; 'I' for Inactive)
REMARK    1  A    between atoms: C_2  and  C_3 
REMARK    2  A    between atoms: C_3  and  N_4 
REMARK    3  A    between atoms: N_4  and  C_5 
REMARK    4  A    between atoms: C_7  and  N_8 
REMARK    5  A    between atoms: N_8  and  C_9 
REMARK    6  A    between atoms: C_9  and  C_10 
REMARK    7  A    between atoms: C_11  and  O_12 
ROOT
HETATM    1  C   UNL     1      -6.578   0.469 -31.865  1.00  0.00     0.134 A 
HETATM    2  N   UNL     1      -7.837   0.949 -31.880  1.00  0.00    -0.052 NA
HETATM    3  C   UNL     1      -8.683   0.474 -32.805  1.00  0.00     0.702 A 
HETATM    4  N   UNL     1      -8.334  -0.443 -33.702  1.00  0.00    -0.189 N 
HETATM    5  H   UNL     1      -9.045  -0.785 -34.333  1.00  0.00     0.184 HD
HETATM    6  C   UNL     1      -7.104  -0.975 -33.711  1.00  0.00     0.062 A 
HETATM    7  C   UNL     1      -6.160  -0.535 -32.764  1.00  0.00     0.032 A 
HETATM    8  C   UNL     1      -6.780  -1.985 -34.629  1.00  0.00     0.031 A 
HETATM    9  C   UNL     1      -5.516  -2.575 -34.607  1.00  0.00     0.002 A 
HETATM   10  C   UNL     1      -4.573  -2.162 -33.671  1.00  0.00     0.001 A 
HETATM   11  C   UNL     1      -4.887  -1.153 -32.758  1.00  0.00     0.017 A 
ENDROOT
BRANCH   3  12
HETATM   12  N   UNL     1      -9.993   0.877 -32.701  1.00  0.00    -0.220 N 
HETATM   13  H   UNL     1     -10.066   1.550 -31.939  1.00  0.00     0.178 HD
BRANCH  12  14
HETATM   14  C   UNL     1     -10.822   1.203 -33.851  1.00  0.00     0.179 C 
BRANCH  14  15
HETATM   15  C   UNL     1     -12.308   1.277 -33.568  1.00  0.00    -0.007 A 
HETATM   16  C   UNL     1     -12.841   2.460 -33.010  1.00  0.00     0.076 A 
HETATM   17  C   UNL     1     -14.224   2.595 -32.840  1.00  0.00     0.037 A 
HETATM   18  C   UNL     1     -15.086   1.575 -33.237  1.00  0.00     0.003 A 
HETATM   19  C   UNL     1     -14.574   0.412 -33.803  1.00  0.00     0.001 A 
HETATM   20  C   UNL     1     -13.197   0.265 -33.974  1.00  0.00     0.011 A 
BRANCH  16  21
HETATM   21  O   UNL     1     -11.926   3.420 -32.655  1.00  0.00    -0.355 OA
HETATM   22  C   UNL     1     -12.133   4.071 -31.402  1.00  0.00     0.210 C 
ENDBRANCH  16  21
ENDBRANCH  14  15
ENDBRANCH  12  14
ENDBRANCH   3  12
BRANCH   1  23
HETATM   23  N   UNL     1      -5.694   0.914 -30.874  1.00  0.00    -0.276 NA
HETATM   24  H   UNL     1      -4.730   0.684 -31.109  1.00  0.00     0.129 HD
BRANCH  23  25
HETATM   25  C   UNL     1      -5.826   2.302 -30.436  1.00  0.00     0.093 C 
BRANCH  25  26
HETATM   26  C   UNL     1      -4.551   3.078 -30.772  1.00  0.00     0.010 C 
HETATM   27  C   UNL     1      -3.455   2.188 -31.342  1.00  0.00     0.006 C 
ENDBRANCH  25  26
ENDBRANCH  23  25
ENDBRANCH   1  23
TORSDOF 7
ENDMDL
MODEL 9
REMARK VINA RESULT:      -6.9     15.254     16.659
REMARK  7 active torsions:
REMARK  status: ('A' for Active; 'I' for Inactive)
REMARK    1  A    between atoms: C_2  and  C_3 
REMARK    2  A    between atoms: C_3  and  N_4 
REMARK    3  A    between atoms: N_4  and  C_5 
REMARK    4  A    between atoms: C_7  and  N_8 
REMARK    5  A    between atoms: N_8  and  C_9 
REMARK    6  A    between atoms: C_9  and  C_10 
REMARK    7  A    between atoms: C_11  and  O_12 
ROOT
HETATM    1  C   UNL     1      -5.436 -12.827 -37.271  1.00  0.00     0.134 A 
HETATM    2  N   UNL     1      -4.133 -12.516 -37.421  1.00  0.00    -0.052 NA
HETATM    3  C   UNL     1      -3.709 -12.142 -38.637  1.00  0.00     0.702 A 
HETATM    4  N   UNL     1      -4.514 -12.067 -39.692  1.00  0.00    -0.189 N 
HETATM    5  H   UNL     1      -4.127 -11.728 -40.561  1.00  0.00     0.184 HD
HETATM    6  C   UNL     1      -5.823 -12.335 -39.589  1.00  0.00     0.062 A 
HETATM    7  C   UNL     1      -6.347 -12.726 -38.343  1.00  0.00     0.032 A 
HETATM    8  C   UNL     1      -6.661 -12.189 -40.705  1.00  0.00     0.031 A 
HETATM    9  C   UNL     1      -8.032 -12.419 -40.588  1.00  0.00     0.002 A 
HETATM   10  C   UNL     1      -8.571 -12.795 -39.362  1.00  0.00     0.001 A 
HETATM   11  C   UNL     1      -7.741 -12.949 -38.249  1.00  0.00     0.017 A 
ENDROOT
BRANCH   3  12
HETATM   12  N   UNL     1      -2.411 -11.696 -38.721  1.00  0.00    -0.220 N 
HETATM   13  H   UNL     1      -2.406 -10.687 -38.580  1.00  0.00     0.178 HD
BRANCH  12  14
HETATM   14  C   UNL     1      -1.290 -12.381 -38.098  1.00  0.00     0.179 C 
BRANCH  14  15
HETATM   15  C   UNL     1      -0.962 -13.737 -38.688  1.00  0.00    -0.007 A 
HETATM   16  C   UNL     1      -1.021 -14.878 -37.857  1.00  0.00     0.076 A 
HETATM   17  C   UNL     1      -0.829 -16.153 -38.400  1.00  0.00     0.037 A 
HETATM   18  C   UNL     1      -0.598 -16.311 -39.765  1.00  0.00     0.003 A 
HETATM   19  C   UNL     1      -0.553 -15.197 -40.596  1.00  0.00     0.001 A 
HETATM   20  C   UNL     1      -0.741 -13.920 -40.065  1.00  0.00     0.011 A 
BRANCH  16  21
HETATM   21  O   UNL     1      -1.262 -14.638 -36.526  1.00  0.00    -0.355 OA
HETATM   22  C   UNL     1      -2.023 -15.621 -35.825  1.00  0.00     0.210 C 
ENDBRANCH  16  21
ENDBRANCH  14  15
ENDBRANCH  12  14
ENDBRANCH   3  12
BRANCH   1  23
HETATM   23  N   UNL     1      -5.909 -13.170 -35.999  1.00  0.00    -0.276 NA
HETATM   24  H   UNL     1      -6.895 -12.936 -35.895  1.00  0.00     0.129 HD
BRANCH  23  25
HETATM   25  C   UNL     1      -5.623 -14.522 -35.522  1.00  0.00     0.093 C 
BRANCH  25  26
HETATM   26  C   UNL     1      -5.315 -14.493 -34.024  1.00  0.00     0.010 C 
HETATM   27  C   UNL     1      -5.616 -13.141 -33.389  1.00  0.00     0.006 C 
ENDBRANCH  25  26
ENDBRANCH  23  25
ENDBRANCH   1  23
TORSDOF 7
ENDMDL
MODEL 10
REMARK VINA RESULT:      -6.9      1.557      3.723
REMARK  7 active torsions:
REMARK  status: ('A' for Active; 'I' for Inactive)
REMARK    1  A    between atoms: C_2  and  C_3 
REMARK    2  A    between atoms: C_3  and  N_4 
REMARK    3  A    between atoms: N_4  and  C_5 
REMARK    4  A    between atoms: C_7  and  N_8 
REMARK    5  A    between atoms: N_8  and  C_9 
REMARK    6  A    between atoms: C_9  and  C_10 
REMARK    7  A    between atoms: C_11  and  O_12 
ROOT
HETATM    1  C   UNL     1      -6.597   0.535 -32.870  1.00  0.00     0.134 A 
HETATM    2  N   UNL     1      -5.645   1.486 -32.795  1.00  0.00    -0.052 NA
HETATM    3  C   UNL     1      -6.025   2.769 -32.883  1.00  0.00     0.702 A 
HETATM    4  N   UNL     1      -7.292   3.138 -33.041  1.00  0.00    -0.189 N 
HETATM    5  H   UNL     1      -7.501   4.127 -33.048  1.00  0.00     0.184 HD
HETATM    6  C   UNL     1      -8.279   2.234 -33.092  1.00  0.00     0.062 A 
HETATM    7  C   UNL     1      -7.962   0.866 -32.997  1.00  0.00     0.032 A 
HETATM    8  C   UNL     1      -9.614   2.654 -33.199  1.00  0.00     0.031 A 
HETATM    9  C   UNL     1     -10.647   1.717 -33.201  1.00  0.00     0.002 A 
HETATM   10  C   UNL     1     -10.354   0.360 -33.096  1.00  0.00     0.001 A 
HETATM   11  C   UNL     1      -9.028  -0.065 -32.996  1.00  0.00     0.017 A 
ENDROOT
BRANCH   3  12
HETATM   12  N   UNL     1      -5.050   3.712 -32.658  1.00  0.00    -0.220 N 
HETATM   13  H   UNL     1      -5.312   4.260 -31.840  1.00  0.00     0.178 HD
BRANCH  12  14
HETATM   14  C   UNL     1      -3.627   3.423 -32.739  1.00  0.00     0.179 C 
BRANCH  14  15
HETATM   15  C   UNL     1      -2.752   4.610 -33.083  1.00  0.00    -0.007 A 
HETATM   16  C   UNL     1      -2.426   5.537 -32.068  1.00  0.00     0.076 A 
HETATM   17  C   UNL     1      -1.533   6.582 -32.332  1.00  0.00     0.037 A 
HETATM   18  C   UNL     1      -0.943   6.705 -33.589  1.00  0.00     0.003 A 
HETATM   19  C   UNL     1      -1.244   5.790 -34.591  1.00  0.00     0.001 A 
HETATM   20  C   UNL     1      -2.136   4.746 -34.340  1.00  0.00     0.011 A 
BRANCH  16  21
HETATM   21  O   UNL     1      -3.042   5.341 -30.857  1.00  0.00    -0.355 OA
HETATM   22  C   UNL     1      -3.657   6.480 -30.257  1.00  0.00     0.210 C 
ENDBRANCH  16  21
ENDBRANCH  14  15
ENDBRANCH  12  14
ENDBRANCH   3  12
BRANCH   1  23
HETATM   23  N   UNL     1      -6.227  -0.808 -32.729  1.00  0.00    -0.276 NA
HETATM   24  H   UNL     1      -6.984  -1.360 -32.328  1.00  0.00     0.129 HD
BRANCH  23  25
HETATM   25  C   UNL     1      -5.640  -1.465 -33.896  1.00  0.00     0.093 C 
BRANCH  25  26
HETATM   26  C   UNL     1      -6.696  -2.323 -34.597  1.00  0.00     0.010 C 
HETATM   27  C   UNL     1      -6.187  -3.718 -34.937  1.00  0.00     0.006 C 
ENDBRANCH  25  26
ENDBRANCH  23  25
ENDBRANCH   1  23
TORSDOF 7
ENDMDL
