MODEL 1
REMARK VINA RESULT:      -9.4      0.000      0.000
REMARK  6 active torsions:
REMARK  status: ('A' for Active; 'I' for Inactive)
REMARK    1  A    between atoms: C_3  and  C_4 
REMARK    2  A    between atoms: C_4  and  N_5 
REMARK    3  A    between atoms: C_4  and  C_9 
REMARK       I    between atoms: N_5  and  C_6 
REMARK       I    between atoms: C_6  and  N_7 
REMARK    4  A    between atoms: C_9  and  C_10 
REMARK       I    between atoms: C_10  and  N_11 
REMARK    5  A    between atoms: N_11  and  C_12 
REMARK    6  A    between atoms: C_14  and  C_15 
ROOT
HETATM    1  C   UNL     1      -3.191   3.392 -31.643  1.00  0.00     0.133 C 
ENDROOT
BRANCH   1   2
HETATM    2  C   UNL     1      -2.538   4.686 -32.134  1.00  0.00     0.128 C 
BRANCH   2   3
HETATM    3  C   UNL     1      -1.689   5.437 -31.104  1.00  0.00    -0.029 A 
HETATM    4  C   UNL     1      -2.096   6.588 -30.390  1.00  0.00    -0.054 A 
HETATM    5  C   UNL     1      -3.416   7.280 -30.590  1.00  0.00     0.049 C 
HETATM    6  C   UNL     1      -1.217   7.159 -29.447  1.00  0.00     0.007 A 
HETATM    7  C   UNL     1       0.030   6.597 -29.180  1.00  0.00     0.001 A 
HETATM    8  C   UNL     1       0.429   5.459 -29.863  1.00  0.00     0.001 A 
HETATM    9  C   UNL     1      -0.417   4.889 -30.813  1.00  0.00     0.010 A 
ENDBRANCH   2   3
BRANCH   2  10
HETATM   10  N   UNL     1      -1.819   4.611 -33.408  1.00  0.00    -0.339 N 
HETATM   11  C   UNL     1      -1.807   5.548 -34.390  1.00  0.00     0.292 C 
HETATM   12  N   UNL     1      -1.058   5.161 -35.454  1.00  0.00    -0.254 NA
HETATM   13  O   UNL     1      -2.376   6.628 -34.379  1.00  0.00    -0.254 OA
HETATM   14  H   UNL     1      -0.212   4.650 -35.250  1.00  0.00     0.128 HD
HETATM   15  H   UNL     1      -0.946   5.895 -36.143  1.00  0.00     0.128 HD
HETATM   16  H   UNL     1      -1.552   3.683 -33.700  1.00  0.00     0.164 HD
ENDBRANCH   2  10
ENDBRANCH   1   2
BRANCH   1  17
HETATM   17  C   UNL     1      -4.255   2.919 -32.612  1.00  0.00     0.224 C 
HETATM   18  N   UNL     1      -4.605   1.593 -32.435  1.00  0.00    -0.327 N 
HETATM   19  H   UNL     1      -4.307   1.155 -31.572  1.00  0.00     0.169 HD
HETATM   20  O   UNL     1      -4.722   3.690 -33.446  1.00  0.00    -0.273 OA
BRANCH  18  21
HETATM   21  C   UNL     1      -5.377   0.793 -33.302  1.00  0.00     0.035 A 
HETATM   22  C   UNL     1      -5.159  -0.576 -33.494  1.00  0.00     0.042 A 
HETATM   23  C   UNL     1      -5.999  -1.335 -34.328  1.00  0.00    -0.021 A 
HETATM   24  C   UNL     1      -7.064  -0.699 -34.976  1.00  0.00     0.012 A 
HETATM   25  C   UNL     1      -7.287   0.667 -34.793  1.00  0.00     0.003 A 
HETATM   26  C   UNL     1      -6.451   1.406 -33.957  1.00  0.00     0.029 A 
BRANCH  23  27
HETATM   27  C   UNL     1      -5.790  -2.764 -34.502  1.00  0.00     0.010 A 
HETATM   28  C   UNL     1      -6.673  -3.787 -34.924  1.00  0.00     0.152 A 
HETATM   29  N   UNL     1      -6.096  -4.991 -34.961  1.00  0.00    -0.187 NA
HETATM   30  N   UNL     1      -4.839  -4.746 -34.557  1.00  0.00    -0.289 N 
HETATM   31  H   UNL     1      -4.193  -5.525 -34.497  1.00  0.00     0.188 HD
HETATM   32  C   UNL     1      -4.604  -3.432 -34.276  1.00  0.00     0.123 A 
ENDBRANCH  23  27
ENDBRANCH  18  21
ENDBRANCH   1  17
TORSDOF 6
ENDMDL
MODEL 2
REMARK VINA RESULT:      -9.2      4.154      7.436
REMARK  6 active torsions:
REMARK  status: ('A' for Active; 'I' for Inactive)
REMARK    1  A    between atoms: C_3  and  C_4 
REMARK    2  A    between atoms: C_4  and  N_5 
REMARK    3  A    between atoms: C_4  and  C_9 
REMARK       I    between atoms: N_5  and  C_6 
REMARK       I    between atoms: C_6  and  N_7 
REMARK    4  A    between atoms: C_9  and  C_10 
REMARK       I    between atoms: C_10  and  N_11 
REMARK    5  A    between atoms: N_11  and  C_12 
REMARK    6  A    between atoms: C_14  and  C_15 
ROOT
HETATM    1  C   UNL     1      -6.142  -0.087 -30.865  1.00  0.00     0.133 C 
ENDROOT
BRANCH   1   2
HETATM    2  C   UNL     1      -4.968  -0.045 -31.846  1.00  0.00     0.128 C 
BRANCH   2   3
HETATM    3  C   UNL     1      -4.965  -1.131 -32.926  1.00  0.00    -0.029 A 
HETATM    4  C   UNL     1      -4.129  -2.271 -32.938  1.00  0.00    -0.054 A 
HETATM    5  C   UNL     1      -3.071  -2.551 -31.906  1.00  0.00     0.049 C 
HETATM    6  C   UNL     1      -4.255  -3.206 -33.986  1.00  0.00     0.007 A 
HETATM    7  C   UNL     1      -5.206  -3.047 -34.993  1.00  0.00     0.001 A 
HETATM    8  C   UNL     1      -6.040  -1.940 -34.980  1.00  0.00     0.001 A 
HETATM    9  C   UNL     1      -5.919  -0.995 -33.962  1.00  0.00     0.010 A 
ENDBRANCH   2   3
BRANCH   2  10
HETATM   10  N   UNL     1      -4.669   1.255 -32.449  1.00  0.00    -0.339 N 
HETATM   11  C   UNL     1      -3.714   2.135 -32.051  1.00  0.00     0.292 C 
HETATM   12  N   UNL     1      -3.709   3.260 -32.810  1.00  0.00    -0.254 NA
HETATM   13  O   UNL     1      -2.923   1.991 -31.134  1.00  0.00    -0.254 OA
HETATM   14  H   UNL     1      -3.890   3.142 -33.796  1.00  0.00     0.128 HD
HETATM   15  H   UNL     1      -2.931   3.873 -32.599  1.00  0.00     0.128 HD
HETATM   16  H   UNL     1      -5.407   1.652 -33.011  1.00  0.00     0.164 HD
ENDBRANCH   2  10
ENDBRANCH   1   2
BRANCH   1  17
HETATM   17  C   UNL     1      -7.227   0.887 -31.274  1.00  0.00     0.224 C 
HETATM   18  N   UNL     1      -8.101   0.370 -32.212  1.00  0.00    -0.327 N 
HETATM   19  H   UNL     1      -8.076  -0.632 -32.353  1.00  0.00     0.169 HD
HETATM   20  O   UNL     1      -7.272   2.011 -30.779  1.00  0.00    -0.273 OA
BRANCH  18  21
HETATM   21  C   UNL     1      -9.063   1.077 -32.962  1.00  0.00     0.035 A 
HETATM   22  C   UNL     1     -10.376   0.634 -33.155  1.00  0.00     0.042 A 
HETATM   23  C   UNL     1     -11.308   1.410 -33.865  1.00  0.00    -0.021 A 
HETATM   24  C   UNL     1     -10.902   2.643 -34.389  1.00  0.00     0.012 A 
HETATM   25  C   UNL     1      -9.594   3.092 -34.205  1.00  0.00     0.003 A 
HETATM   26  C   UNL     1      -8.681   2.315 -33.491  1.00  0.00     0.029 A 
BRANCH  23  27
HETATM   27  C   UNL     1     -12.682   0.962 -34.037  1.00  0.00     0.010 A 
HETATM   28  C   UNL     1     -13.789   1.584 -34.664  1.00  0.00     0.152 A 
HETATM   29  N   UNL     1     -14.897   0.839 -34.619  1.00  0.00    -0.187 NA
HETATM   30  N   UNL     1     -14.506  -0.262 -33.958  1.00  0.00    -0.289 N 
HETATM   31  H   UNL     1     -15.190  -0.992 -33.792  1.00  0.00     0.188 HD
HETATM   32  C   UNL     1     -13.192  -0.240 -33.594  1.00  0.00     0.123 A 
ENDBRANCH  23  27
ENDBRANCH  18  21
ENDBRANCH   1  17
TORSDOF 6
ENDMDL
MODEL 3
REMARK VINA RESULT:      -8.9      2.449      9.204
REMARK  6 active torsions:
REMARK  status: ('A' for Active; 'I' for Inactive)
REMARK    1  A    between atoms: C_3  and  C_4 
REMARK    2  A    between atoms: C_4  and  N_5 
REMARK    3  A    between atoms: C_4  and  C_9 
REMARK       I    between atoms: N_5  and  C_6 
REMARK       I    between atoms: C_6  and  N_7 
REMARK    4  A    between atoms: C_9  and  C_10 
REMARK       I    between atoms: C_10  and  N_11 
REMARK    5  A    between atoms: N_11  and  C_12 
REMARK    6  A    between atoms: C_14  and  C_15 
ROOT
HETATM    1  C   UNL     1      -4.481   1.246 -32.013  1.00  0.00     0.133 C 
ENDROOT
BRANCH   1   2
HETATM    2  C   UNL     1      -5.779   0.788 -32.683  1.00  0.00     0.128 C 
BRANCH   2   3
HETATM    3  C   UNL     1      -5.695  -0.522 -33.471  1.00  0.00    -0.029 A 
HETATM    4  C   UNL     1      -6.500  -0.862 -34.583  1.00  0.00    -0.054 A 
HETATM    5  C   UNL     1      -7.607   0.004 -35.119  1.00  0.00     0.049 C 
HETATM    6  C   UNL     1      -6.291  -2.097 -35.231  1.00  0.00     0.007 A 
HETATM    7  C   UNL     1      -5.290  -2.976 -34.820  1.00  0.00     0.001 A 
HETATM    8  C   UNL     1      -4.487  -2.642 -33.741  1.00  0.00     0.001 A 
HETATM    9  C   UNL     1      -4.688  -1.434 -33.075  1.00  0.00     0.010 A 
ENDBRANCH   2   3
BRANCH   2  10
HETATM   10  N   UNL     1      -6.980   0.786 -31.845  1.00  0.00    -0.339 N 
HETATM   11  C   UNL     1      -8.041   1.628 -31.944  1.00  0.00     0.292 C 
HETATM   12  N   UNL     1      -8.983   1.374 -31.001  1.00  0.00    -0.254 NA
HETATM   13  O   UNL     1      -8.192   2.522 -32.761  1.00  0.00    -0.254 OA
HETATM   14  H   UNL     1      -9.143   0.405 -30.770  1.00  0.00     0.128 HD
HETATM   15  H   UNL     1      -9.828   1.916 -31.133  1.00  0.00     0.128 HD
HETATM   16  H   UNL     1      -6.886   0.321 -30.955  1.00  0.00     0.164 HD
ENDBRANCH   2  10
ENDBRANCH   1   2
BRANCH   1  17
HETATM   17  C   UNL     1      -4.236   2.721 -32.258  1.00  0.00     0.224 C 
HETATM   18  N   UNL     1      -2.950   2.998 -32.683  1.00  0.00    -0.327 N 
HETATM   19  H   UNL     1      -2.397   2.212 -33.001  1.00  0.00     0.169 HD
HETATM   20  O   UNL     1      -5.136   3.538 -32.080  1.00  0.00    -0.273 OA
BRANCH  18  21
HETATM   21  C   UNL     1      -2.337   4.264 -32.774  1.00  0.00     0.035 A 
HETATM   22  C   UNL     1      -1.923   5.007 -31.663  1.00  0.00     0.042 A 
HETATM   23  C   UNL     1      -1.264   6.239 -31.817  1.00  0.00    -0.021 A 
HETATM   24  C   UNL     1      -1.028   6.723 -33.109  1.00  0.00     0.012 A 
HETATM   25  C   UNL     1      -1.440   5.991 -34.224  1.00  0.00     0.003 A 
HETATM   26  C   UNL     1      -2.086   4.766 -34.056  1.00  0.00     0.029 A 
BRANCH  23  27
HETATM   27  C   UNL     1      -0.807   6.996 -30.661  1.00  0.00     0.010 A 
HETATM   28  C   UNL     1       0.409   6.940 -29.938  1.00  0.00     0.152 A 
HETATM   29  N   UNL     1       0.453   7.813 -28.927  1.00  0.00    -0.187 NA
HETATM   30  N   UNL     1      -0.738   8.428 -28.995  1.00  0.00    -0.289 N 
HETATM   31  H   UNL     1      -0.948   9.148 -28.312  1.00  0.00     0.188 HD
HETATM   32  C   UNL     1      -1.524   7.981 -30.016  1.00  0.00     0.123 A 
ENDBRANCH  23  27
ENDBRANCH  18  21
ENDBRANCH   1  17
TORSDOF 6
ENDMDL
MODEL 4
REMARK VINA RESULT:      -8.8      2.822      8.402
REMARK  6 active torsions:
REMARK  status: ('A' for Active; 'I' for Inactive)
REMARK    1  A    between atoms: C_3  and  C_4 
REMARK    2  A    between atoms: C_4  and  N_5 
REMARK    3  A    between atoms: C_4  and  C_9 
REMARK       I    between atoms: N_5  and  C_6 
REMARK       I    between atoms: C_6  and  N_7 
REMARK    4  A    between atoms: C_9  and  C_10 
REMARK       I    between atoms: C_10  and  N_11 
REMARK    5  A    between atoms: N_11  and  C_12 
REMARK    6  A    between atoms: C_14  and  C_15 
ROOT
HETATM    1  C   UNL     1      -6.032   3.343 -34.104  1.00  0.00     0.133 C 
ENDROOT
BRANCH   1   2
HETATM    2  C   UNL     1      -6.197   2.326 -32.971  1.00  0.00     0.128 C 
BRANCH   2   3
HETATM    3  C   UNL     1      -5.851   0.877 -33.323  1.00  0.00    -0.029 A 
HETATM    4  C   UNL     1      -6.622   0.029 -34.151  1.00  0.00    -0.054 A 
HETATM    5  C   UNL     1      -7.938   0.419 -34.764  1.00  0.00     0.049 C 
HETATM    6  C   UNL     1      -6.165  -1.280 -34.411  1.00  0.00     0.007 A 
HETATM    7  C   UNL     1      -4.956  -1.745 -33.897  1.00  0.00     0.001 A 
HETATM    8  C   UNL     1      -4.186  -0.914 -33.097  1.00  0.00     0.001 A 
HETATM    9  C   UNL     1      -4.629   0.377 -32.813  1.00  0.00     0.010 A 
ENDBRANCH   2   3
BRANCH   2  10
HETATM   10  N   UNL     1      -5.597   2.681 -31.684  1.00  0.00    -0.339 N 
HETATM   11  C   UNL     1      -6.241   2.817 -30.497  1.00  0.00     0.292 C 
HETATM   12  N   UNL     1      -5.396   3.175 -29.496  1.00  0.00    -0.254 NA
HETATM   13  O   UNL     1      -7.431   2.648 -30.286  1.00  0.00    -0.254 OA
HETATM   14  H   UNL     1      -4.475   2.765 -29.512  1.00  0.00     0.128 HD
HETATM   15  H   UNL     1      -5.840   3.169 -28.586  1.00  0.00     0.128 HD
HETATM   16  H   UNL     1      -4.698   3.139 -31.737  1.00  0.00     0.164 HD
ENDBRANCH   2  10
ENDBRANCH   1   2
BRANCH   1  17
HETATM   17  C   UNL     1      -5.246   4.551 -33.638  1.00  0.00     0.224 C 
HETATM   18  N   UNL     1      -3.891   4.452 -33.890  1.00  0.00    -0.327 N 
HETATM   19  H   UNL     1      -3.600   3.728 -34.536  1.00  0.00     0.169 HD
HETATM   20  O   UNL     1      -5.820   5.496 -33.101  1.00  0.00    -0.273 OA
BRANCH  18  21
HETATM   21  C   UNL     1      -2.867   5.280 -33.385  1.00  0.00     0.035 A 
HETATM   22  C   UNL     1      -2.156   5.006 -32.211  1.00  0.00     0.042 A 
HETATM   23  C   UNL     1      -1.106   5.839 -31.788  1.00  0.00    -0.021 A 
HETATM   24  C   UNL     1      -0.779   6.961 -32.558  1.00  0.00     0.012 A 
HETATM   25  C   UNL     1      -1.485   7.244 -33.729  1.00  0.00     0.003 A 
HETATM   26  C   UNL     1      -2.520   6.405 -34.141  1.00  0.00     0.029 A 
BRANCH  23  27
HETATM   27  C   UNL     1      -0.346   5.536 -30.584  1.00  0.00     0.010 A 
HETATM   28  C   UNL     1       0.818   4.753 -30.394  1.00  0.00     0.152 A 
HETATM   29  N   UNL     1       1.221   4.722 -29.121  1.00  0.00    -0.187 NA
HETATM   30  N   UNL     1       0.312   5.480 -28.487  1.00  0.00    -0.289 N 
HETATM   31  H   UNL     1       0.405   5.606 -27.485  1.00  0.00     0.188 HD
HETATM   32  C   UNL     1      -0.641   5.994 -29.317  1.00  0.00     0.123 A 
ENDBRANCH  23  27
ENDBRANCH  18  21
ENDBRANCH   1  17
TORSDOF 6
ENDMDL
MODEL 5
REMARK VINA RESULT:      -8.7      2.278      3.220
REMARK  6 active torsions:
REMARK  status: ('A' for Active; 'I' for Inactive)
REMARK    1  A    between atoms: C_3  and  C_4 
REMARK    2  A    between atoms: C_4  and  N_5 
REMARK    3  A    between atoms: C_4  and  C_9 
REMARK       I    between atoms: N_5  and  C_6 
REMARK       I    between atoms: C_6  and  N_7 
REMARK    4  A    between atoms: C_9  and  C_10 
REMARK       I    between atoms: C_10  and  N_11 
REMARK    5  A    between atoms: N_11  and  C_12 
REMARK    6  A    between atoms: C_14  and  C_15 
ROOT
HETATM    1  C   UNL     1      -2.944   3.174 -31.509  1.00  0.00     0.133 C 
ENDROOT
BRANCH   1   2
HETATM    2  C   UNL     1      -2.913   4.634 -31.970  1.00  0.00     0.128 C 
BRANCH   2   3
HETATM    3  C   UNL     1      -1.824   5.507 -31.341  1.00  0.00    -0.029 A 
HETATM    4  C   UNL     1      -2.052   6.658 -30.551  1.00  0.00    -0.054 A 
HETATM    5  C   UNL     1      -3.414   7.226 -30.263  1.00  0.00     0.049 C 
HETATM    6  C   UNL     1      -0.949   7.351 -30.011  1.00  0.00     0.007 A 
HETATM    7  C   UNL     1       0.358   6.911 -30.212  1.00  0.00     0.001 A 
HETATM    8  C   UNL     1       0.588   5.774 -30.971  1.00  0.00     0.001 A 
HETATM    9  C   UNL     1      -0.487   5.084 -31.529  1.00  0.00     0.010 A 
ENDBRANCH   2   3
BRANCH   2  10
HETATM   10  N   UNL     1      -2.958   4.862 -33.415  1.00  0.00    -0.339 N 
HETATM   11  C   UNL     1      -3.945   5.486 -34.109  1.00  0.00     0.292 C 
HETATM   12  N   UNL     1      -3.691   5.514 -35.442  1.00  0.00    -0.254 NA
HETATM   13  O   UNL     1      -4.960   5.984 -33.650  1.00  0.00    -0.254 OA
HETATM   14  H   UNL     1      -2.731   5.655 -35.717  1.00  0.00     0.128 HD
HETATM   15  H   UNL     1      -4.360   6.074 -35.957  1.00  0.00     0.128 HD
HETATM   16  H   UNL     1      -2.361   4.264 -33.967  1.00  0.00     0.164 HD
ENDBRANCH   2  10
ENDBRANCH   1   2
BRANCH   1  17
HETATM   17  C   UNL     1      -4.277   2.531 -31.831  1.00  0.00     0.224 C 
HETATM   18  N   UNL     1      -4.167   1.209 -32.219  1.00  0.00    -0.327 N 
HETATM   19  H   UNL     1      -3.282   0.753 -32.034  1.00  0.00     0.169 HD
HETATM   20  O   UNL     1      -5.317   3.177 -31.733  1.00  0.00    -0.273 OA
BRANCH  18  21
HETATM   21  C   UNL     1      -5.169   0.405 -32.800  1.00  0.00     0.035 A 
HETATM   22  C   UNL     1      -6.525   0.747 -32.819  1.00  0.00     0.042 A 
HETATM   23  C   UNL     1      -7.471  -0.068 -33.464  1.00  0.00    -0.021 A 
HETATM   24  C   UNL     1      -7.038  -1.242 -34.090  1.00  0.00     0.012 A 
HETATM   25  C   UNL     1      -5.687  -1.594 -34.075  1.00  0.00     0.003 A 
HETATM   26  C   UNL     1      -4.758  -0.772 -33.437  1.00  0.00     0.029 A 
BRANCH  23  27
HETATM   27  C   UNL     1      -8.877   0.306 -33.509  1.00  0.00     0.010 A 
HETATM   28  C   UNL     1      -9.573   1.198 -34.360  1.00  0.00     0.152 A 
HETATM   29  N   UNL     1     -10.879   1.266 -34.085  1.00  0.00    -0.187 NA
HETATM   30  N   UNL     1     -11.024   0.422 -33.051  1.00  0.00    -0.289 N 
HETATM   31  H   UNL     1     -11.949   0.303 -32.653  1.00  0.00     0.188 HD
HETATM   32  C   UNL     1      -9.860  -0.181 -32.673  1.00  0.00     0.123 A 
ENDBRANCH  23  27
ENDBRANCH  18  21
ENDBRANCH   1  17
TORSDOF 6
ENDMDL
MODEL 6
REMARK VINA RESULT:      -8.3      2.620      3.848
REMARK  6 active torsions:
REMARK  status: ('A' for Active; 'I' for Inactive)
REMARK    1  A    between atoms: C_3  and  C_4 
REMARK    2  A    between atoms: C_4  and  N_5 
REMARK    3  A    between atoms: C_4  and  C_9 
REMARK       I    between atoms: N_5  and  C_6 
REMARK       I    between atoms: C_6  and  N_7 
REMARK    4  A    between atoms: C_9  and  C_10 
REMARK       I    between atoms: C_10  and  N_11 
REMARK    5  A    between atoms: N_11  and  C_12 
REMARK    6  A    between atoms: C_14  and  C_15 
ROOT
HETATM    1  C   UNL     1      -6.190   4.213 -32.103  1.00  0.00     0.133 C 
ENDROOT
BRANCH   1   2
HETATM    2  C   UNL     1      -4.833   4.750 -31.640  1.00  0.00     0.128 C 
BRANCH   2   3
HETATM    3  C   UNL     1      -3.788   4.956 -32.739  1.00  0.00    -0.029 A 
HETATM    4  C   UNL     1      -2.388   4.858 -32.567  1.00  0.00    -0.054 A 
HETATM    5  C   UNL     1      -1.717   4.593 -31.247  1.00  0.00     0.049 C 
HETATM    6  C   UNL     1      -1.542   5.046 -33.680  1.00  0.00     0.007 A 
HETATM    7  C   UNL     1      -2.057   5.294 -34.951  1.00  0.00     0.001 A 
HETATM    8  C   UNL     1      -3.429   5.374 -35.132  1.00  0.00     0.001 A 
HETATM    9  C   UNL     1      -4.281   5.210 -34.041  1.00  0.00     0.010 A 
ENDBRANCH   2   3
BRANCH   2  10
HETATM   10  N   UNL     1      -4.861   5.918 -30.757  1.00  0.00    -0.339 N 
HETATM   11  C   UNL     1      -5.293   5.954 -29.471  1.00  0.00     0.292 C 
HETATM   12  N   UNL     1      -5.206   7.199 -28.938  1.00  0.00    -0.254 NA
HETATM   13  O   UNL     1      -5.717   5.016 -28.814  1.00  0.00    -0.254 OA
HETATM   14  H   UNL     1      -4.404   7.751 -29.204  1.00  0.00     0.128 HD
HETATM   15  H   UNL     1      -5.417   7.219 -27.948  1.00  0.00     0.128 HD
HETATM   16  H   UNL     1      -4.831   6.813 -31.223  1.00  0.00     0.164 HD
ENDBRANCH   2  10
ENDBRANCH   1   2
BRANCH   1  17
HETATM   17  C   UNL     1      -6.187   2.699 -32.150  1.00  0.00     0.224 C 
HETATM   18  N   UNL     1      -5.892   2.191 -33.402  1.00  0.00    -0.327 N 
HETATM   19  H   UNL     1      -5.497   2.838 -34.074  1.00  0.00     0.169 HD
HETATM   20  O   UNL     1      -6.427   2.046 -31.138  1.00  0.00    -0.273 OA
BRANCH  18  21
HETATM   21  C   UNL     1      -6.034   0.857 -33.836  1.00  0.00     0.035 A 
HETATM   22  C   UNL     1      -5.158  -0.173 -33.475  1.00  0.00     0.042 A 
HETATM   23  C   UNL     1      -5.383  -1.497 -33.893  1.00  0.00    -0.021 A 
HETATM   24  C   UNL     1      -6.501  -1.775 -34.687  1.00  0.00     0.012 A 
HETATM   25  C   UNL     1      -7.378  -0.753 -35.055  1.00  0.00     0.003 A 
HETATM   26  C   UNL     1      -7.147   0.554 -34.628  1.00  0.00     0.029 A 
BRANCH  23  27
HETATM   27  C   UNL     1      -4.490  -2.572 -33.491  1.00  0.00     0.010 A 
HETATM   28  C   UNL     1      -3.639  -2.701 -32.365  1.00  0.00     0.152 A 
HETATM   29  N   UNL     1      -2.973  -3.858 -32.347  1.00  0.00    -0.187 NA
HETATM   30  N   UNL     1      -3.388  -4.475 -33.466  1.00  0.00    -0.289 N 
HETATM   31  H   UNL     1      -3.010  -5.391 -33.679  1.00  0.00     0.188 HD
HETATM   32  C   UNL     1      -4.298  -3.752 -34.180  1.00  0.00     0.123 A 
ENDBRANCH  23  27
ENDBRANCH  18  21
ENDBRANCH   1  17
TORSDOF 6
ENDMDL
MODEL 7
REMARK VINA RESULT:      -8.2      1.505      2.204
REMARK  6 active torsions:
REMARK  status: ('A' for Active; 'I' for Inactive)
REMARK    1  A    between atoms: C_3  and  C_4 
REMARK    2  A    between atoms: C_4  and  N_5 
REMARK    3  A    between atoms: C_4  and  C_9 
REMARK       I    between atoms: N_5  and  C_6 
REMARK       I    between atoms: C_6  and  N_7 
REMARK    4  A    between atoms: C_9  and  C_10 
REMARK       I    between atoms: C_10  and  N_11 
REMARK    5  A    between atoms: N_11  and  C_12 
REMARK    6  A    between atoms: C_14  and  C_15 
ROOT
HETATM    1  C   UNL     1      -2.497   4.035 -31.189  1.00  0.00     0.133 C 
ENDROOT
BRANCH   1   2
HETATM    2  C   UNL     1      -2.370   5.557 -31.294  1.00  0.00     0.128 C 
BRANCH   2   3
HETATM    3  C   UNL     1      -1.528   6.231 -30.206  1.00  0.00    -0.029 A 
HETATM    4  C   UNL     1      -0.123   6.134 -30.081  1.00  0.00    -0.054 A 
HETATM    5  C   UNL     1       0.747   5.296 -30.976  1.00  0.00     0.049 C 
HETATM    6  C   UNL     1       0.525   6.835 -29.042  1.00  0.00     0.007 A 
HETATM    7  C   UNL     1      -0.185   7.644 -28.157  1.00  0.00     0.001 A 
HETATM    8  C   UNL     1      -1.560   7.757 -28.284  1.00  0.00     0.001 A 
HETATM    9  C   UNL     1      -2.222   7.058 -29.292  1.00  0.00     0.010 A 
ENDBRANCH   2   3
BRANCH   2  10
HETATM   10  N   UNL     1      -2.005   6.093 -32.606  1.00  0.00    -0.339 N 
HETATM   11  C   UNL     1      -2.169   7.369 -33.038  1.00  0.00     0.292 C 
HETATM   12  N   UNL     1      -1.745   7.534 -34.317  1.00  0.00    -0.254 NA
HETATM   13  O   UNL     1      -2.633   8.303 -32.403  1.00  0.00    -0.254 OA
HETATM   14  H   UNL     1      -0.917   7.025 -34.588  1.00  0.00     0.128 HD
HETATM   15  H   UNL     1      -1.756   8.502 -34.613  1.00  0.00     0.128 HD
HETATM   16  H   UNL     1      -1.892   5.406 -33.338  1.00  0.00     0.164 HD
ENDBRANCH   2  10
ENDBRANCH   1   2
BRANCH   1  17
HETATM   17  C   UNL     1      -3.717   3.540 -31.938  1.00  0.00     0.224 C 
HETATM   18  N   UNL     1      -4.317   2.445 -31.343  1.00  0.00    -0.327 N 
HETATM   19  H   UNL     1      -4.040   2.236 -30.392  1.00  0.00     0.169 HD
HETATM   20  O   UNL     1      -4.087   4.104 -32.964  1.00  0.00    -0.273 OA
BRANCH  18  21
HETATM   21  C   UNL     1      -5.311   1.612 -31.896  1.00  0.00     0.035 A 
HETATM   22  C   UNL     1      -5.034   0.443 -32.613  1.00  0.00     0.042 A 
HETATM   23  C   UNL     1      -6.069  -0.378 -33.091  1.00  0.00    -0.021 A 
HETATM   24  C   UNL     1      -7.396  -0.006 -32.846  1.00  0.00     0.012 A 
HETATM   25  C   UNL     1      -7.683   1.160 -32.135  1.00  0.00     0.003 A 
HETATM   26  C   UNL     1      -6.645   1.962 -31.660  1.00  0.00     0.029 A 
BRANCH  23  27
HETATM   27  C   UNL     1      -5.779  -1.610 -33.809  1.00  0.00     0.010 A 
HETATM   28  C   UNL     1      -4.565  -2.317 -33.987  1.00  0.00     0.152 A 
HETATM   29  N   UNL     1      -4.711  -3.426 -34.716  1.00  0.00    -0.187 NA
HETATM   30  N   UNL     1      -6.020  -3.433 -35.015  1.00  0.00    -0.289 N 
HETATM   31  H   UNL     1      -6.381  -4.194 -35.579  1.00  0.00     0.188 HD
HETATM   32  C   UNL     1      -6.703  -2.374 -34.492  1.00  0.00     0.123 A 
ENDBRANCH  23  27
ENDBRANCH  18  21
ENDBRANCH   1  17
TORSDOF 6
ENDMDL
MODEL 8
REMARK VINA RESULT:      -8.2      2.175      3.296
REMARK  6 active torsions:
REMARK  status: ('A' for Active; 'I' for Inactive)
REMARK    1  A    between atoms: C_3  and  C_4 
REMARK    2  A    between atoms: C_4  and  N_5 
REMARK    3  A    between atoms: C_4  and  C_9 
REMARK       I    between atoms: N_5  and  C_6 
REMARK       I    between atoms: C_6  and  N_7 
REMARK    4  A    between atoms: C_9  and  C_10 
REMARK       I    between atoms: C_10  and  N_11 
REMARK    5  A    between atoms: N_11  and  C_12 
REMARK    6  A    between atoms: C_14  and  C_15 
ROOT
HETATM    1  C   UNL     1      -5.044   5.711 -32.925  1.00  0.00     0.133 C 
ENDROOT
BRANCH   1   2
HETATM    2  C   UNL     1      -4.092   5.143 -31.869  1.00  0.00     0.128 C 
BRANCH   2   3
HETATM    3  C   UNL     1      -2.686   5.751 -31.844  1.00  0.00    -0.029 A 
HETATM    4  C   UNL     1      -1.713   5.605 -32.860  1.00  0.00    -0.054 A 
HETATM    5  C   UNL     1      -1.905   4.773 -34.098  1.00  0.00     0.049 C 
HETATM    6  C   UNL     1      -0.466   6.247 -32.715  1.00  0.00     0.007 A 
HETATM    7  C   UNL     1      -0.183   7.046 -31.609  1.00  0.00     0.001 A 
HETATM    8  C   UNL     1      -1.137   7.207 -30.617  1.00  0.00     0.001 A 
HETATM    9  C   UNL     1      -2.370   6.566 -30.732  1.00  0.00     0.010 A 
ENDBRANCH   2   3
BRANCH   2  10
HETATM   10  N   UNL     1      -4.614   5.046 -30.505  1.00  0.00    -0.339 N 
HETATM   11  C   UNL     1      -5.215   3.968 -29.940  1.00  0.00     0.292 C 
HETATM   12  N   UNL     1      -5.605   4.213 -28.663  1.00  0.00    -0.254 NA
HETATM   13  O   UNL     1      -5.410   2.882 -30.461  1.00  0.00    -0.254 OA
HETATM   14  H   UNL     1      -4.989   4.783 -28.103  1.00  0.00     0.128 HD
HETATM   15  H   UNL     1      -5.950   3.385 -28.192  1.00  0.00     0.128 HD
HETATM   16  H   UNL     1      -4.803   5.927 -30.050  1.00  0.00     0.164 HD
ENDBRANCH   2  10
ENDBRANCH   1   2
BRANCH   1  17
HETATM   17  C   UNL     1      -5.587   4.611 -33.814  1.00  0.00     0.224 C 
HETATM   18  N   UNL     1      -6.492   3.787 -33.173  1.00  0.00    -0.327 N 
HETATM   19  H   UNL     1      -6.864   4.118 -32.291  1.00  0.00     0.169 HD
HETATM   20  O   UNL     1      -5.220   4.520 -34.983  1.00  0.00    -0.273 OA
BRANCH  18  21
HETATM   21  C   UNL     1      -6.996   2.553 -33.633  1.00  0.00     0.035 A 
HETATM   22  C   UNL     1      -6.228   1.387 -33.728  1.00  0.00     0.042 A 
HETATM   23  C   UNL     1      -6.801   0.172 -34.140  1.00  0.00    -0.021 A 
HETATM   24  C   UNL     1      -8.163   0.141 -34.464  1.00  0.00     0.012 A 
HETATM   25  C   UNL     1      -8.936   1.299 -34.376  1.00  0.00     0.003 A 
HETATM   26  C   UNL     1      -8.356   2.497 -33.958  1.00  0.00     0.029 A 
BRANCH  23  27
HETATM   27  C   UNL     1      -6.009  -1.046 -34.208  1.00  0.00     0.010 A 
HETATM   28  C   UNL     1      -6.320  -2.330 -34.720  1.00  0.00     0.152 A 
HETATM   29  N   UNL     1      -5.310  -3.195 -34.604  1.00  0.00    -0.187 NA
HETATM   30  N   UNL     1      -4.347  -2.472 -34.010  1.00  0.00    -0.289 N 
HETATM   31  H   UNL     1      -3.462  -2.924 -33.807  1.00  0.00     0.188 HD
HETATM   32  C   UNL     1      -4.712  -1.183 -33.758  1.00  0.00     0.123 A 
ENDBRANCH  23  27
ENDBRANCH  18  21
ENDBRANCH   1  17
TORSDOF 6
ENDMDL
MODEL 9
REMARK VINA RESULT:      -8.1      2.743      9.460
REMARK  6 active torsions:
REMARK  status: ('A' for Active; 'I' for Inactive)
REMARK    1  A    between atoms: C_3  and  C_4 
REMARK    2  A    between atoms: C_4  and  N_5 
REMARK    3  A    between atoms: C_4  and  C_9 
REMARK       I    between atoms: N_5  and  C_6 
REMARK       I    between atoms: C_6  and  N_7 
REMARK    4  A    between atoms: C_9  and  C_10 
REMARK       I    between atoms: C_10  and  N_11 
REMARK    5  A    between atoms: N_11  and  C_12 
REMARK    6  A    between atoms: C_14  and  C_15 
ROOT
HETATM    1  C   UNL     1      -3.999   2.701 -33.293  1.00  0.00     0.133 C 
ENDROOT
BRANCH   1   2
HETATM    2  C   UNL     1      -5.214   1.932 -32.767  1.00  0.00     0.128 C 
BRANCH   2   3
HETATM    3  C   UNL     1      -5.364   0.496 -33.277  1.00  0.00    -0.029 A 
HETATM    4  C   UNL     1      -6.335   0.054 -34.204  1.00  0.00    -0.054 A 
HETATM    5  C   UNL     1      -7.410   0.933 -34.783  1.00  0.00     0.049 C 
HETATM    6  C   UNL     1      -6.338  -1.298 -34.606  1.00  0.00     0.007 A 
HETATM    7  C   UNL     1      -5.385  -2.199 -34.135  1.00  0.00     0.001 A 
HETATM    8  C   UNL     1      -4.419  -1.769 -33.238  1.00  0.00     0.001 A 
HETATM    9  C   UNL     1      -4.411  -0.442 -32.814  1.00  0.00     0.010 A 
ENDBRANCH   2   3
BRANCH   2  10
HETATM   10  N   UNL     1      -5.434   1.971 -31.320  1.00  0.00    -0.339 N 
HETATM   11  C   UNL     1      -6.630   1.925 -30.679  1.00  0.00     0.292 C 
HETATM   12  N   UNL     1      -6.489   2.002 -29.331  1.00  0.00    -0.254 NA
HETATM   13  O   UNL     1      -7.733   1.825 -31.192  1.00  0.00    -0.254 OA
HETATM   14  H   UNL     1      -5.696   1.523 -28.931  1.00  0.00     0.128 HD
HETATM   15  H   UNL     1      -7.359   1.855 -28.836  1.00  0.00     0.128 HD
HETATM   16  H   UNL     1      -4.672   2.347 -30.776  1.00  0.00     0.164 HD
ENDBRANCH   2  10
ENDBRANCH   1   2
BRANCH   1  17
HETATM   17  C   UNL     1      -3.168   3.249 -32.151  1.00  0.00     0.224 C 
HETATM   18  N   UNL     1      -2.910   4.602 -32.262  1.00  0.00    -0.327 N 
HETATM   19  H   UNL     1      -3.467   5.118 -32.933  1.00  0.00     0.169 HD
HETATM   20  O   UNL     1      -2.796   2.509 -31.244  1.00  0.00    -0.273 OA
BRANCH  18  21
HETATM   21  C   UNL     1      -1.990   5.360 -31.509  1.00  0.00     0.035 A 
HETATM   22  C   UNL     1      -2.358   6.206 -30.457  1.00  0.00     0.042 A 
HETATM   23  C   UNL     1      -1.390   6.892 -29.704  1.00  0.00    -0.021 A 
HETATM   24  C   UNL     1      -0.038   6.724 -30.025  1.00  0.00     0.012 A 
HETATM   25  C   UNL     1       0.339   5.885 -31.075  1.00  0.00     0.003 A 
HETATM   26  C   UNL     1      -0.632   5.204 -31.809  1.00  0.00     0.029 A 
BRANCH  23  27
HETATM   27  C   UNL     1      -1.773   7.746 -28.590  1.00  0.00     0.010 A 
HETATM   28  C   UNL     1      -2.918   7.728 -27.757  1.00  0.00     0.152 A 
HETATM   29  N   UNL     1      -2.900   8.688 -26.828  1.00  0.00    -0.187 NA
HETATM   30  N   UNL     1      -1.746   9.330 -27.066  1.00  0.00    -0.289 N 
HETATM   31  H   UNL     1      -1.505  10.121 -26.478  1.00  0.00     0.188 HD
HETATM   32  C   UNL     1      -1.033   8.804 -28.103  1.00  0.00     0.123 A 
ENDBRANCH  23  27
ENDBRANCH  18  21
ENDBRANCH   1  17
TORSDOF 6
ENDMDL
MODEL 10
REMARK VINA RESULT:      -8.0      6.112      9.182
REMARK  6 active torsions:
REMARK  status: ('A' for Active; 'I' for Inactive)
REMARK    1  A    between atoms: C_3  and  C_4 
REMARK    2  A    between atoms: C_4  and  N_5 
REMARK    3  A    between atoms: C_4  and  C_9 
REMARK       I    between atoms: N_5  and  C_6 
REMARK       I    between atoms: C_6  and  N_7 
REMARK    4  A    between atoms: C_9  and  C_10 
REMARK       I    between atoms: C_10  and  N_11 
REMARK    5  A    between atoms: N_11  and  C_12 
REMARK    6  A    between atoms: C_14  and  C_15 
ROOT
HETATM    1  C   UNL     1     -11.582   2.142 -34.176  1.00  0.00     0.133 C 
ENDROOT
BRANCH   1   2
HETATM    2  C   UNL     1     -12.922   2.331 -33.462  1.00  0.00     0.128 C 
BRANCH   2   3
HETATM    3  C   UNL     1     -13.162   3.714 -32.851  1.00  0.00    -0.029 A 
HETATM    4  C   UNL     1     -13.184   4.933 -33.567  1.00  0.00    -0.054 A 
HETATM    5  C   UNL     1     -12.911   5.049 -35.041  1.00  0.00     0.049 C 
HETATM    6  C   UNL     1     -13.446   6.133 -32.875  1.00  0.00     0.007 A 
HETATM    7  C   UNL     1     -13.716   6.141 -31.507  1.00  0.00     0.001 A 
HETATM    8  C   UNL     1     -13.713   4.949 -30.801  1.00  0.00     0.001 A 
HETATM    9  C   UNL     1     -13.438   3.753 -31.463  1.00  0.00     0.010 A 
ENDBRANCH   2   3
BRANCH   2  10
HETATM   10  N   UNL     1     -14.116   1.896 -34.190  1.00  0.00    -0.339 N 
HETATM   11  C   UNL     1     -14.684   0.663 -34.157  1.00  0.00     0.292 C 
HETATM   12  N   UNL     1     -15.771   0.581 -34.965  1.00  0.00    -0.254 NA
HETATM   13  O   UNL     1     -14.313  -0.297 -33.501  1.00  0.00    -0.254 OA
HETATM   14  H   UNL     1     -16.365   1.396 -35.009  1.00  0.00     0.128 HD
HETATM   15  H   UNL     1     -16.271  -0.294 -34.864  1.00  0.00     0.128 HD
HETATM   16  H   UNL     1     -14.364   2.459 -34.990  1.00  0.00     0.164 HD
ENDBRANCH   2  10
ENDBRANCH   1   2
BRANCH   1  17
HETATM   17  C   UNL     1     -10.717   1.133 -33.450  1.00  0.00     0.224 C 
HETATM   18  N   UNL     1      -9.446   1.601 -33.171  1.00  0.00    -0.327 N 
HETATM   19  H   UNL     1      -9.299   2.599 -33.262  1.00  0.00     0.169 HD
HETATM   20  O   UNL     1     -11.163   0.025 -33.163  1.00  0.00    -0.273 OA
BRANCH  18  21
HETATM   21  C   UNL     1      -8.340   0.851 -32.724  1.00  0.00     0.035 A 
HETATM   22  C   UNL     1      -7.719  -0.146 -33.485  1.00  0.00     0.042 A 
HETATM   23  C   UNL     1      -6.583  -0.822 -33.008  1.00  0.00    -0.021 A 
HETATM   24  C   UNL     1      -6.076  -0.488 -31.747  1.00  0.00     0.012 A 
HETATM   25  C   UNL     1      -6.690   0.503 -30.979  1.00  0.00     0.003 A 
HETATM   26  C   UNL     1      -7.813   1.170 -31.467  1.00  0.00     0.029 A 
BRANCH  23  27
HETATM   27  C   UNL     1      -5.920  -1.836 -33.814  1.00  0.00     0.010 A 
HETATM   28  C   UNL     1      -6.447  -2.813 -34.694  1.00  0.00     0.152 A 
HETATM   29  N   UNL     1      -5.500  -3.567 -35.261  1.00  0.00    -0.187 NA
HETATM   30  N   UNL     1      -4.362  -3.080 -34.741  1.00  0.00    -0.289 N 
HETATM   31  H   UNL     1      -3.485  -3.504 -35.023  1.00  0.00     0.188 HD
HETATM   32  C   UNL     1      -4.558  -2.043 -33.877  1.00  0.00     0.123 A 
ENDBRANCH  23  27
ENDBRANCH  18  21
ENDBRANCH   1  17
TORSDOF 6
ENDMDL
