MODEL 1
REMARK VINA RESULT:      -7.9      0.000      0.000
REMARK  6 active torsions:
REMARK  status: ('A' for Active; 'I' for Inactive)
REMARK    1  A    between atoms: O_2  and  C_3 
REMARK    2  A    between atoms: C_3  and  C_4 
REMARK    3  A    between atoms: C_4  and  N_5 
REMARK       I    between atoms: N_5  and  C_6 
REMARK    4  A    between atoms: C_6  and  C_7 
REMARK    5  A    between atoms: C_12  and  C_13 
REMARK    6  A    between atoms: C_20  and  C_21 
ROOT
HETATM    1  C   UNL     1      -4.024   3.265 -32.250  1.00  0.00     0.165 A 
HETATM    2  N   UNL     1      -2.876   3.496 -32.938  1.00  0.00    -0.163 NA
HETATM    3  N   UNL     1      -2.341   4.564 -32.324  1.00  0.00    -0.238 N 
HETATM    4  C   UNL     1      -3.051   5.005 -31.241  1.00  0.00     0.141 A 
HETATM    5  N   UNL     1      -2.605   6.036 -30.484  1.00  0.00    -0.365 N 
HETATM    6  C   UNL     1      -1.479   6.856 -30.925  1.00  0.00     0.118 C 
HETATM    7  C   UNL     1      -0.449   5.965 -31.642  1.00  0.00     0.066 C 
HETATM    8  C   UNL     1      -1.101   5.164 -32.784  1.00  0.00     0.221 C 
HETATM    9  C   UNL     1      -4.151   4.187 -31.179  1.00  0.00     0.092 A 
HETATM   10 BR   UNL     1      -5.533   4.282 -29.917  1.00  0.00    -0.044 Br
HETATM   11  H   UNL     1      -3.229   6.479 -29.807  1.00  0.00     0.162 HD
ENDROOT
BRANCH   1  12
HETATM   12  C   UNL     1      -4.931   2.175 -32.650  1.00  0.00     0.273 C 
HETATM   13  N   UNL     1      -4.512   0.936 -32.216  1.00  0.00    -0.353 N 
HETATM   14  H   UNL     1      -3.739   0.940 -31.553  1.00  0.00     0.162 HD
HETATM   15  O   UNL     1      -5.957   2.341 -33.302  1.00  0.00    -0.266 OA
BRANCH  13  16
HETATM   16  C   UNL     1      -5.331  -0.253 -32.321  1.00  0.00     0.149 C 
BRANCH  16  17
HETATM   17  C   UNL     1      -4.897  -1.127 -33.495  1.00  0.00     0.186 C 
BRANCH  17  18
HETATM   18  O   UNL     1      -6.058  -1.682 -34.123  1.00  0.00    -0.394 OA
HETATM   19  C   UNL     1      -6.722  -0.718 -34.932  1.00  0.00     0.201 C 
ENDBRANCH  17  18
ENDBRANCH  16  17
ENDBRANCH  13  16
ENDBRANCH   1  12
BRANCH   8  20
HETATM   20  C   UNL     1      -1.367   6.021 -34.002  1.00  0.00     0.409 C 
HETATM   21  F   UNL     1      -2.630   6.498 -34.049  1.00  0.00    -0.169 F 
HETATM   22  F   UNL     1      -0.546   7.104 -33.993  1.00  0.00    -0.169 F 
HETATM   23  F   UNL     1      -1.131   5.372 -35.162  1.00  0.00    -0.169 F 
ENDBRANCH   8  20
BRANCH   6  24
HETATM   24  C   UNL     1      -0.846   7.572 -29.746  1.00  0.00    -0.035 A 
HETATM   25  C   UNL     1       0.474   7.308 -29.344  1.00  0.00     0.009 A 
HETATM   26  C   UNL     1       1.043   7.996 -28.272  1.00  0.00     0.001 A 
HETATM   27  C   UNL     1       0.304   8.962 -27.590  1.00  0.00     0.000 A 
HETATM   28  C   UNL     1      -1.003   9.241 -27.983  1.00  0.00     0.001 A 
HETATM   29  C   UNL     1      -1.574   8.552 -29.054  1.00  0.00     0.009 A 
ENDBRANCH   6  24
TORSDOF 6
ENDMDL
MODEL 2
REMARK VINA RESULT:      -7.7      4.916      8.805
REMARK  6 active torsions:
REMARK  status: ('A' for Active; 'I' for Inactive)
REMARK    1  A    between atoms: O_2  and  C_3 
REMARK    2  A    between atoms: C_3  and  C_4 
REMARK    3  A    between atoms: C_4  and  N_5 
REMARK       I    between atoms: N_5  and  C_6 
REMARK    4  A    between atoms: C_6  and  C_7 
REMARK    5  A    between atoms: C_12  and  C_13 
REMARK    6  A    between atoms: C_20  and  C_21 
ROOT
HETATM    1  C   UNL     1      -6.062   3.419 -31.994  1.00  0.00     0.165 A 
HETATM    2  N   UNL     1      -7.135   2.690 -32.395  1.00  0.00    -0.163 NA
HETATM    3  N   UNL     1      -6.602   1.522 -32.790  1.00  0.00    -0.238 N 
HETATM    4  C   UNL     1      -5.248   1.434 -32.616  1.00  0.00     0.141 A 
HETATM    5  N   UNL     1      -4.577   0.294 -32.912  1.00  0.00    -0.365 N 
HETATM    6  C   UNL     1      -5.231  -0.792 -33.637  1.00  0.00     0.118 C 
HETATM    7  C   UNL     1      -6.700  -0.895 -33.187  1.00  0.00     0.066 C 
HETATM    8  C   UNL     1      -7.424   0.456 -33.334  1.00  0.00     0.221 C 
HETATM    9  C   UNL     1      -4.873   2.653 -32.112  1.00  0.00     0.092 A 
HETATM   10 BR   UNL     1      -3.131   3.181 -31.668  1.00  0.00    -0.044 Br
HETATM   11  H   UNL     1      -3.557   0.302 -32.965  1.00  0.00     0.162 HD
ENDROOT
BRANCH   1  12
HETATM   12  C   UNL     1      -6.232   4.802 -31.516  1.00  0.00     0.273 C 
HETATM   13  N   UNL     1      -7.200   4.922 -30.542  1.00  0.00    -0.353 N 
HETATM   14  H   UNL     1      -7.555   4.046 -30.164  1.00  0.00     0.162 HD
HETATM   15  O   UNL     1      -5.585   5.757 -31.934  1.00  0.00    -0.266 OA
BRANCH  13  16
HETATM   16  C   UNL     1      -7.411   6.141 -29.790  1.00  0.00     0.149 C 
BRANCH  16  17
HETATM   17  C   UNL     1      -7.573   5.855 -28.298  1.00  0.00     0.186 C 
BRANCH  17  18
HETATM   18  O   UNL     1      -6.592   6.598 -27.568  1.00  0.00    -0.394 OA
HETATM   19  C   UNL     1      -5.401   5.843 -27.381  1.00  0.00     0.201 C 
ENDBRANCH  17  18
ENDBRANCH  16  17
ENDBRANCH  13  16
ENDBRANCH   1  12
BRANCH   8  20
HETATM   20  C   UNL     1      -7.774   0.762 -34.774  1.00  0.00     0.409 C 
HETATM   21  F   UNL     1      -6.775   1.376 -35.443  1.00  0.00    -0.169 F 
HETATM   22  F   UNL     1      -8.034  -0.394 -35.441  1.00  0.00    -0.169 F 
HETATM   23  F   UNL     1      -8.880   1.528 -34.893  1.00  0.00    -0.169 F 
ENDBRANCH   8  20
BRANCH   6  24
HETATM   24  C   UNL     1      -4.503  -2.103 -33.404  1.00  0.00    -0.035 A 
HETATM   25  C   UNL     1      -3.685  -2.304 -32.279  1.00  0.00     0.009 A 
HETATM   26  C   UNL     1      -3.044  -3.527 -32.075  1.00  0.00     0.001 A 
HETATM   27  C   UNL     1      -3.216  -4.568 -32.986  1.00  0.00     0.000 A 
HETATM   28  C   UNL     1      -4.032  -4.387 -34.101  1.00  0.00     0.001 A 
HETATM   29  C   UNL     1      -4.672  -3.163 -34.309  1.00  0.00     0.009 A 
ENDBRANCH   6  24
TORSDOF 6
ENDMDL
MODEL 3
REMARK VINA RESULT:      -7.7      4.419      9.227
REMARK  6 active torsions:
REMARK  status: ('A' for Active; 'I' for Inactive)
REMARK    1  A    between atoms: O_2  and  C_3 
REMARK    2  A    between atoms: C_3  and  C_4 
REMARK    3  A    between atoms: C_4  and  N_5 
REMARK       I    between atoms: N_5  and  C_6 
REMARK    4  A    between atoms: C_6  and  C_7 
REMARK    5  A    between atoms: C_12  and  C_13 
REMARK    6  A    between atoms: C_20  and  C_21 
ROOT
HETATM    1  C   UNL     1      -4.985   2.328 -32.198  1.00  0.00     0.165 A 
HETATM    2  N   UNL     1      -4.992   1.454 -33.238  1.00  0.00    -0.163 NA
HETATM    3  N   UNL     1      -6.291   1.154 -33.397  1.00  0.00    -0.238 N 
HETATM    4  C   UNL     1      -7.132   1.826 -32.554  1.00  0.00     0.141 A 
HETATM    5  N   UNL     1      -8.477   1.673 -32.636  1.00  0.00    -0.365 N 
HETATM    6  C   UNL     1      -9.060   0.622 -33.466  1.00  0.00     0.118 C 
HETATM    7  C   UNL     1      -8.217   0.451 -34.742  1.00  0.00     0.066 C 
HETATM    8  C   UNL     1      -6.734   0.206 -34.404  1.00  0.00     0.221 C 
HETATM    9  C   UNL     1      -6.310   2.584 -31.760  1.00  0.00     0.092 A 
HETATM   10 BR   UNL     1      -6.850   3.731 -30.379  1.00  0.00    -0.044 Br
HETATM   11  H   UNL     1      -9.076   2.021 -31.886  1.00  0.00     0.162 HD
ENDROOT
BRANCH   1  12
HETATM   12  C   UNL     1      -3.715   2.872 -31.685  1.00  0.00     0.273 C 
HETATM   13  N   UNL     1      -3.545   4.209 -31.970  1.00  0.00    -0.353 N 
HETATM   14  H   UNL     1      -4.363   4.687 -32.345  1.00  0.00     0.162 HD
HETATM   15  O   UNL     1      -2.887   2.212 -31.066  1.00  0.00    -0.266 OA
BRANCH  13  16
HETATM   16  C   UNL     1      -2.474   5.003 -31.407  1.00  0.00     0.149 C 
BRANCH  16  17
HETATM   17  C   UNL     1      -1.290   5.103 -32.367  1.00  0.00     0.186 C 
BRANCH  17  18
HETATM   18  O   UNL     1      -1.696   4.648 -33.662  1.00  0.00    -0.394 OA
HETATM   19  C   UNL     1      -1.336   5.578 -34.677  1.00  0.00     0.201 C 
ENDBRANCH  17  18
ENDBRANCH  16  17
ENDBRANCH  13  16
ENDBRANCH   1  12
BRANCH   8  20
HETATM   20  C   UNL     1      -6.487  -1.207 -33.922  1.00  0.00     0.409 C 
HETATM   21  F   UNL     1      -7.425  -2.083 -34.342  1.00  0.00    -0.169 F 
HETATM   22  F   UNL     1      -5.297  -1.656 -34.400  1.00  0.00    -0.169 F 
HETATM   23  F   UNL     1      -6.415  -1.297 -32.576  1.00  0.00    -0.169 F 
ENDBRANCH   8  20
BRANCH   6  24
HETATM   24  C   UNL     1     -10.500   0.953 -33.811  1.00  0.00    -0.035 A 
HETATM   25  C   UNL     1     -11.566   0.143 -33.384  1.00  0.00     0.009 A 
HETATM   26  C   UNL     1     -12.885   0.480 -33.694  1.00  0.00     0.001 A 
HETATM   27  C   UNL     1     -13.157   1.633 -34.427  1.00  0.00     0.000 A 
HETATM   28  C   UNL     1     -12.112   2.452 -34.849  1.00  0.00     0.001 A 
HETATM   29  C   UNL     1     -10.792   2.115 -34.542  1.00  0.00     0.009 A 
ENDBRANCH   6  24
TORSDOF 6
ENDMDL
MODEL 4
REMARK VINA RESULT:      -7.6      5.926      8.119
REMARK  6 active torsions:
REMARK  status: ('A' for Active; 'I' for Inactive)
REMARK    1  A    between atoms: O_2  and  C_3 
REMARK    2  A    between atoms: C_3  and  C_4 
REMARK    3  A    between atoms: C_4  and  N_5 
REMARK       I    between atoms: N_5  and  C_6 
REMARK    4  A    between atoms: C_6  and  C_7 
REMARK    5  A    between atoms: C_12  and  C_13 
REMARK    6  A    between atoms: C_20  and  C_21 
ROOT
HETATM    1  C   UNL     1     -10.629   1.612 -34.127  1.00  0.00     0.165 A 
HETATM    2  N   UNL     1      -9.900   0.551 -33.692  1.00  0.00    -0.163 NA
HETATM    3  N   UNL     1      -8.650   1.034 -33.604  1.00  0.00    -0.238 N 
HETATM    4  C   UNL     1      -8.537   2.363 -33.905  1.00  0.00     0.141 A 
HETATM    5  N   UNL     1      -7.348   3.006 -33.803  1.00  0.00    -0.365 N 
HETATM    6  C   UNL     1      -6.110   2.260 -33.591  1.00  0.00     0.118 C 
HETATM    7  C   UNL     1      -6.387   1.064 -32.662  1.00  0.00     0.066 C 
HETATM    8  C   UNL     1      -7.537   0.193 -33.200  1.00  0.00     0.221 C 
HETATM    9  C   UNL     1      -9.802   2.758 -34.259  1.00  0.00     0.092 A 
HETATM   10 BR   UNL     1     -10.318   4.477 -34.797  1.00  0.00    -0.044 Br
HETATM   11  H   UNL     1      -7.234   3.935 -34.212  1.00  0.00     0.162 HD
ENDROOT
BRANCH   1  12
HETATM   12  C   UNL     1     -12.072   1.473 -34.389  1.00  0.00     0.273 C 
HETATM   13  N   UNL     1     -12.821   1.351 -33.238  1.00  0.00    -0.353 N 
HETATM   14  H   UNL     1     -12.323   1.531 -32.368  1.00  0.00     0.162 HD
HETATM   15  O   UNL     1     -12.568   1.465 -35.511  1.00  0.00    -0.266 OA
BRANCH  13  16
HETATM   16  C   UNL     1     -14.267   1.395 -33.233  1.00  0.00     0.149 C 
BRANCH  16  17
HETATM   17  C   UNL     1     -14.791   2.443 -32.254  1.00  0.00     0.186 C 
BRANCH  17  18
HETATM   18  O   UNL     1     -16.024   1.983 -31.688  1.00  0.00    -0.394 OA
HETATM   19  C   UNL     1     -17.137   2.687 -32.225  1.00  0.00     0.201 C 
ENDBRANCH  17  18
ENDBRANCH  16  17
ENDBRANCH  13  16
ENDBRANCH   1  12
BRANCH   8  20
HETATM   20  C   UNL     1      -7.101  -0.673 -34.361  1.00  0.00     0.409 C 
HETATM   21  F   UNL     1      -5.759  -0.730 -34.505  1.00  0.00    -0.169 F 
HETATM   22  F   UNL     1      -7.524  -1.950 -34.170  1.00  0.00    -0.169 F 
HETATM   23  F   UNL     1      -7.623  -0.270 -35.541  1.00  0.00    -0.169 F 
ENDBRANCH   8  20
BRANCH   6  24
HETATM   24  C   UNL     1      -5.038   3.161 -33.007  1.00  0.00    -0.035 A 
HETATM   25  C   UNL     1      -5.138   4.561 -33.064  1.00  0.00     0.009 A 
HETATM   26  C   UNL     1      -4.150   5.369 -32.498  1.00  0.00     0.001 A 
HETATM   27  C   UNL     1      -3.053   4.790 -31.862  1.00  0.00     0.000 A 
HETATM   28  C   UNL     1      -2.945   3.403 -31.789  1.00  0.00     0.001 A 
HETATM   29  C   UNL     1      -3.931   2.593 -32.356  1.00  0.00     0.009 A 
ENDBRANCH   6  24
TORSDOF 6
ENDMDL
MODEL 5
REMARK VINA RESULT:      -7.6      5.067      9.422
REMARK  6 active torsions:
REMARK  status: ('A' for Active; 'I' for Inactive)
REMARK    1  A    between atoms: O_2  and  C_3 
REMARK    2  A    between atoms: C_3  and  C_4 
REMARK    3  A    between atoms: C_4  and  N_5 
REMARK       I    between atoms: N_5  and  C_6 
REMARK    4  A    between atoms: C_6  and  C_7 
REMARK    5  A    between atoms: C_12  and  C_13 
REMARK    6  A    between atoms: C_20  and  C_21 
ROOT
HETATM    1  C   UNL     1      -6.191   3.094 -30.990  1.00  0.00     0.165 A 
HETATM    2  N   UNL     1      -7.451   2.686 -31.289  1.00  0.00    -0.163 NA
HETATM    3  N   UNL     1      -7.264   1.622 -32.087  1.00  0.00    -0.238 N 
HETATM    4  C   UNL     1      -5.952   1.285 -32.279  1.00  0.00     0.141 A 
HETATM    5  N   UNL     1      -5.607   0.197 -33.011  1.00  0.00    -0.365 N 
HETATM    6  C   UNL     1      -6.605  -0.515 -33.805  1.00  0.00     0.118 C 
HETATM    7  C   UNL     1      -7.947  -0.527 -33.051  1.00  0.00     0.066 C 
HETATM    8  C   UNL     1      -8.383   0.899 -32.666  1.00  0.00     0.221 C 
HETATM    9  C   UNL     1      -5.237   2.230 -31.588  1.00  0.00     0.092 A 
HETATM   10 BR   UNL     1      -3.370   2.337 -31.465  1.00  0.00    -0.044 Br
HETATM   11  H   UNL     1      -4.639   0.069 -33.308  1.00  0.00     0.162 HD
ENDROOT
BRANCH   1  12
HETATM   12  C   UNL     1      -5.968   4.283 -30.149  1.00  0.00     0.273 C 
HETATM   13  N   UNL     1      -6.845   4.366 -29.088  1.00  0.00    -0.353 N 
HETATM   14  H   UNL     1      -7.416   3.539 -28.923  1.00  0.00     0.162 HD
HETATM   15  O   UNL     1      -5.096   5.119 -30.360  1.00  0.00    -0.266 OA
BRANCH  13  16
HETATM   16  C   UNL     1      -6.700   5.335 -28.023  1.00  0.00     0.149 C 
BRANCH  16  17
HETATM   17  C   UNL     1      -7.696   6.483 -28.174  1.00  0.00     0.186 C 
BRANCH  17  18
HETATM   18  O   UNL     1      -7.184   7.641 -27.506  1.00  0.00    -0.394 OA
HETATM   19  C   UNL     1      -5.765   7.701 -27.584  1.00  0.00     0.201 C 
ENDBRANCH  17  18
ENDBRANCH  16  17
ENDBRANCH  13  16
ENDBRANCH   1  12
BRANCH   8  20
HETATM   20  C   UNL     1      -8.931   1.666 -33.849  1.00  0.00     0.409 C 
HETATM   21  F   UNL     1      -9.391   0.864 -34.833  1.00  0.00    -0.169 F 
HETATM   22  F   UNL     1      -9.980   2.435 -33.455  1.00  0.00    -0.169 F 
HETATM   23  F   UNL     1      -8.026   2.507 -34.395  1.00  0.00    -0.169 F 
ENDBRANCH   8  20
BRANCH   6  24
HETATM   24  C   UNL     1      -6.140  -1.929 -34.101  1.00  0.00    -0.035 A 
HETATM   25  C   UNL     1      -7.019  -2.908 -34.595  1.00  0.00     0.009 A 
HETATM   26  C   UNL     1      -6.563  -4.195 -34.882  1.00  0.00     0.001 A 
HETATM   27  C   UNL     1      -5.223  -4.521 -34.686  1.00  0.00     0.000 A 
HETATM   28  C   UNL     1      -4.336  -3.559 -34.206  1.00  0.00     0.001 A 
HETATM   29  C   UNL     1      -4.791  -2.272 -33.917  1.00  0.00     0.009 A 
ENDBRANCH   6  24
TORSDOF 6
ENDMDL
MODEL 6
REMARK VINA RESULT:      -7.6      3.903      8.748
REMARK  6 active torsions:
REMARK  status: ('A' for Active; 'I' for Inactive)
REMARK    1  A    between atoms: O_2  and  C_3 
REMARK    2  A    between atoms: C_3  and  C_4 
REMARK    3  A    between atoms: C_4  and  N_5 
REMARK       I    between atoms: N_5  and  C_6 
REMARK    4  A    between atoms: C_6  and  C_7 
REMARK    5  A    between atoms: C_12  and  C_13 
REMARK    6  A    between atoms: C_20  and  C_21 
ROOT
HETATM    1  C   UNL     1      -4.716   4.405 -31.035  1.00  0.00     0.165 A 
HETATM    2  N   UNL     1      -5.686   3.754 -30.341  1.00  0.00    -0.163 NA
HETATM    3  N   UNL     1      -5.948   2.672 -31.093  1.00  0.00    -0.238 N 
HETATM    4  C   UNL     1      -5.164   2.557 -32.207  1.00  0.00     0.141 A 
HETATM    5  N   UNL     1      -5.270   1.485 -33.031  1.00  0.00    -0.365 N 
HETATM    6  C   UNL     1      -6.372   0.538 -32.887  1.00  0.00     0.118 C 
HETATM    7  C   UNL     1      -6.700   0.358 -31.393  1.00  0.00     0.066 C 
HETATM    8  C   UNL     1      -6.970   1.713 -30.714  1.00  0.00     0.221 C 
HETATM    9  C   UNL     1      -4.366   3.672 -32.199  1.00  0.00     0.092 A 
HETATM   10 BR   UNL     1      -3.071   4.119 -33.477  1.00  0.00    -0.044 Br
HETATM   11  H   UNL     1      -4.828   1.504 -33.951  1.00  0.00     0.162 HD
ENDROOT
BRANCH   1  12
HETATM   12  C   UNL     1      -4.177   5.686 -30.546  1.00  0.00     0.273 C 
HETATM   13  N   UNL     1      -2.828   5.633 -30.268  1.00  0.00    -0.353 N 
HETATM   14  H   UNL     1      -2.347   4.791 -30.578  1.00  0.00     0.162 HD
HETATM   15  O   UNL     1      -4.849   6.702 -30.399  1.00  0.00    -0.266 OA
BRANCH  13  16
HETATM   16  C   UNL     1      -2.043   6.809 -29.960  1.00  0.00     0.149 C 
BRANCH  16  17
HETATM   17  C   UNL     1      -1.068   7.140 -31.088  1.00  0.00     0.186 C 
BRANCH  17  18
HETATM   18  O   UNL     1      -1.690   8.061 -31.991  1.00  0.00    -0.394 OA
HETATM   19  C   UNL     1      -1.728   7.546 -33.316  1.00  0.00     0.201 C 
ENDBRANCH  17  18
ENDBRANCH  16  17
ENDBRANCH  13  16
ENDBRANCH   1  12
BRANCH   8  20
HETATM   20  C   UNL     1      -8.338   2.259 -31.058  1.00  0.00     0.409 C 
HETATM   21  F   UNL     1      -8.878   3.000 -30.066  1.00  0.00    -0.169 F 
HETATM   22  F   UNL     1      -8.251   3.072 -32.144  1.00  0.00    -0.169 F 
HETATM   23  F   UNL     1      -9.225   1.291 -31.376  1.00  0.00    -0.169 F 
ENDBRANCH   8  20
BRANCH   6  24
HETATM   24  C   UNL     1      -6.019  -0.793 -33.526  1.00  0.00    -0.035 A 
HETATM   25  C   UNL     1      -4.697  -1.266 -33.564  1.00  0.00     0.009 A 
HETATM   26  C   UNL     1      -4.399  -2.504 -34.137  1.00  0.00     0.001 A 
HETATM   27  C   UNL     1      -5.419  -3.289 -34.671  1.00  0.00     0.000 A 
HETATM   28  C   UNL     1      -6.737  -2.838 -34.632  1.00  0.00     0.001 A 
HETATM   29  C   UNL     1      -7.035  -1.598 -34.063  1.00  0.00     0.009 A 
ENDBRANCH   6  24
TORSDOF 6
ENDMDL
MODEL 7
REMARK VINA RESULT:      -7.5      1.347      1.916
REMARK  6 active torsions:
REMARK  status: ('A' for Active; 'I' for Inactive)
REMARK    1  A    between atoms: O_2  and  C_3 
REMARK    2  A    between atoms: C_3  and  C_4 
REMARK    3  A    between atoms: C_4  and  N_5 
REMARK       I    between atoms: N_5  and  C_6 
REMARK    4  A    between atoms: C_6  and  C_7 
REMARK    5  A    between atoms: C_12  and  C_13 
REMARK    6  A    between atoms: C_20  and  C_21 
ROOT
HETATM    1  C   UNL     1      -4.054   3.273 -32.265  1.00  0.00     0.165 A 
HETATM    2  N   UNL     1      -2.903   3.496 -32.949  1.00  0.00    -0.163 NA
HETATM    3  N   UNL     1      -2.361   4.558 -32.331  1.00  0.00    -0.238 N 
HETATM    4  C   UNL     1      -3.071   5.003 -31.250  1.00  0.00     0.141 A 
HETATM    5  N   UNL     1      -2.618   6.029 -30.489  1.00  0.00    -0.365 N 
HETATM    6  C   UNL     1      -1.484   6.840 -30.925  1.00  0.00     0.118 C 
HETATM    7  C   UNL     1      -0.459   5.942 -31.641  1.00  0.00     0.066 C 
HETATM    8  C   UNL     1      -1.115   5.148 -32.786  1.00  0.00     0.221 C 
HETATM    9  C   UNL     1      -4.177   4.195 -31.193  1.00  0.00     0.092 A 
HETATM   10 BR   UNL     1      -5.562   4.298 -29.935  1.00  0.00    -0.044 Br
HETATM   11  H   UNL     1      -3.240   6.476 -29.814  1.00  0.00     0.162 HD
ENDROOT
BRANCH   1  12
HETATM   12  C   UNL     1      -4.969   2.192 -32.670  1.00  0.00     0.273 C 
HETATM   13  N   UNL     1      -5.927   2.604 -33.572  1.00  0.00    -0.353 N 
HETATM   14  H   UNL     1      -5.792   3.534 -33.963  1.00  0.00     0.162 HD
HETATM   15  O   UNL     1      -4.897   1.040 -32.255  1.00  0.00    -0.266 OA
BRANCH  13  16
HETATM   16  C   UNL     1      -6.811   1.683 -34.255  1.00  0.00     0.149 C 
BRANCH  16  17
HETATM   17  C   UNL     1      -8.274   1.958 -33.914  1.00  0.00     0.186 C 
BRANCH  17  18
HETATM   18  O   UNL     1      -8.366   2.387 -32.551  1.00  0.00    -0.394 OA
HETATM   19  C   UNL     1      -8.835   1.343 -31.707  1.00  0.00     0.201 C 
ENDBRANCH  17  18
ENDBRANCH  16  17
ENDBRANCH  13  16
ENDBRANCH   1  12
BRANCH   8  20
HETATM   20  C   UNL     1      -1.370   6.010 -34.003  1.00  0.00     0.409 C 
HETATM   21  F   UNL     1      -1.169   5.356 -35.168  1.00  0.00    -0.169 F 
HETATM   22  F   UNL     1      -2.663   6.427 -34.012  1.00  0.00    -0.169 F 
HETATM   23  F   UNL     1      -0.609   7.127 -34.024  1.00  0.00    -0.169 F 
ENDBRANCH   8  20
BRANCH   6  24
HETATM   24  C   UNL     1      -0.849   7.549 -29.743  1.00  0.00    -0.035 A 
HETATM   25  C   UNL     1       0.479   7.297 -29.358  1.00  0.00     0.009 A 
HETATM   26  C   UNL     1       1.049   7.979 -28.282  1.00  0.00     0.001 A 
HETATM   27  C   UNL     1       0.305   8.925 -27.581  1.00  0.00     0.000 A 
HETATM   28  C   UNL     1      -1.010   9.193 -27.957  1.00  0.00     0.001 A 
HETATM   29  C   UNL     1      -1.583   8.510 -29.031  1.00  0.00     0.009 A 
ENDBRANCH   6  24
TORSDOF 6
ENDMDL
MODEL 8
REMARK VINA RESULT:      -7.4      5.695      8.769
REMARK  6 active torsions:
REMARK  status: ('A' for Active; 'I' for Inactive)
REMARK    1  A    between atoms: O_2  and  C_3 
REMARK    2  A    between atoms: C_3  and  C_4 
REMARK    3  A    between atoms: C_4  and  N_5 
REMARK       I    between atoms: N_5  and  C_6 
REMARK    4  A    between atoms: C_6  and  C_7 
REMARK    5  A    between atoms: C_12  and  C_13 
REMARK    6  A    between atoms: C_20  and  C_21 
ROOT
HETATM    1  C   UNL     1      -7.379   2.745 -32.842  1.00  0.00     0.165 A 
HETATM    2  N   UNL     1      -6.027   2.775 -32.720  1.00  0.00    -0.163 NA
HETATM    3  N   UNL     1      -5.670   1.481 -32.783  1.00  0.00    -0.238 N 
HETATM    4  C   UNL     1      -6.710   0.619 -32.994  1.00  0.00     0.141 A 
HETATM    5  N   UNL     1      -6.499  -0.712 -33.141  1.00  0.00    -0.365 N 
HETATM    6  C   UNL     1      -5.192  -1.297 -32.853  1.00  0.00     0.118 C 
HETATM    7  C   UNL     1      -4.086  -0.320 -33.291  1.00  0.00     0.066 C 
HETATM    8  C   UNL     1      -4.283   1.069 -32.655  1.00  0.00     0.221 C 
HETATM    9  C   UNL     1      -7.829   1.412 -33.024  1.00  0.00     0.092 A 
HETATM   10 BR   UNL     1      -9.594   0.830 -33.267  1.00  0.00    -0.044 Br
HETATM   11  H   UNL     1      -7.286  -1.360 -33.101  1.00  0.00     0.162 HD
ENDROOT
BRANCH   1  12
HETATM   12  C   UNL     1      -8.165   3.990 -32.782  1.00  0.00     0.273 C 
HETATM   13  N   UNL     1      -8.471   4.496 -34.027  1.00  0.00    -0.353 N 
HETATM   14  H   UNL     1      -8.267   3.883 -34.814  1.00  0.00     0.162 HD
HETATM   15  O   UNL     1      -8.516   4.531 -31.739  1.00  0.00    -0.266 OA
BRANCH  13  16
HETATM   16  C   UNL     1      -9.389   5.598 -34.224  1.00  0.00     0.149 C 
BRANCH  16  17
HETATM   17  C   UNL     1     -10.477   5.243 -35.235  1.00  0.00     0.186 C 
BRANCH  17  18
HETATM   18  O   UNL     1     -10.724   3.834 -35.185  1.00  0.00    -0.394 OA
HETATM   19  C   UNL     1     -11.972   3.503 -35.782  1.00  0.00     0.201 C 
ENDBRANCH  17  18
ENDBRANCH  16  17
ENDBRANCH  13  16
ENDBRANCH   1  12
BRANCH   8  20
HETATM   20  C   UNL     1      -3.875   1.091 -31.198  1.00  0.00     0.409 C 
HETATM   21  F   UNL     1      -2.922   0.181 -30.901  1.00  0.00    -0.169 F 
HETATM   22  F   UNL     1      -3.358   2.308 -30.882  1.00  0.00    -0.169 F 
HETATM   23  F   UNL     1      -4.913   0.887 -30.359  1.00  0.00    -0.169 F 
ENDBRANCH   8  20
BRANCH   6  24
HETATM   24  C   UNL     1      -5.040  -2.634 -33.555  1.00  0.00    -0.035 A 
HETATM   25  C   UNL     1      -3.927  -3.462 -33.332  1.00  0.00     0.009 A 
HETATM   26  C   UNL     1      -3.820  -4.698 -33.971  1.00  0.00     0.001 A 
HETATM   27  C   UNL     1      -4.826  -5.127 -34.835  1.00  0.00     0.000 A 
HETATM   28  C   UNL     1      -5.941  -4.321 -35.058  1.00  0.00     0.001 A 
HETATM   29  C   UNL     1      -6.048  -3.083 -34.422  1.00  0.00     0.009 A 
ENDBRANCH   6  24
TORSDOF 6
ENDMDL
MODEL 9
REMARK VINA RESULT:      -7.3      3.995      8.514
REMARK  6 active torsions:
REMARK  status: ('A' for Active; 'I' for Inactive)
REMARK    1  A    between atoms: O_2  and  C_3 
REMARK    2  A    between atoms: C_3  and  C_4 
REMARK    3  A    between atoms: C_4  and  N_5 
REMARK       I    between atoms: N_5  and  C_6 
REMARK    4  A    between atoms: C_6  and  C_7 
REMARK    5  A    between atoms: C_12  and  C_13 
REMARK    6  A    between atoms: C_20  and  C_21 
ROOT
HETATM    1  C   UNL     1      -2.959   3.914 -31.977  1.00  0.00     0.165 A 
HETATM    2  N   UNL     1      -2.803   2.601 -32.290  1.00  0.00    -0.163 NA
HETATM    3  N   UNL     1      -4.060   2.128 -32.329  1.00  0.00    -0.238 N 
HETATM    4  C   UNL     1      -5.024   3.073 -32.111  1.00  0.00     0.141 A 
HETATM    5  N   UNL     1      -6.341   2.759 -32.179  1.00  0.00    -0.365 N 
HETATM    6  C   UNL     1      -6.774   1.367 -32.259  1.00  0.00     0.118 C 
HETATM    7  C   UNL     1      -5.778   0.570 -33.122  1.00  0.00     0.066 C 
HETATM    8  C   UNL     1      -4.337   0.730 -32.602  1.00  0.00     0.221 C 
HETATM    9  C   UNL     1      -4.337   4.235 -31.869  1.00  0.00     0.092 A 
HETATM   10 BR   UNL     1      -5.088   5.908 -31.483  1.00  0.00    -0.044 Br
HETATM   11  H   UNL     1      -7.040   3.414 -31.827  1.00  0.00     0.162 HD
ENDROOT
BRANCH   1  12
HETATM   12  C   UNL     1      -1.785   4.786 -31.801  1.00  0.00     0.273 C 
HETATM   13  N   UNL     1      -1.295   4.781 -30.512  1.00  0.00    -0.353 N 
HETATM   14  H   UNL     1      -1.689   4.073 -29.895  1.00  0.00     0.162 HD
HETATM   15  O   UNL     1      -1.285   5.454 -32.701  1.00  0.00    -0.266 OA
BRANCH  13  16
HETATM   16  C   UNL     1      -0.043   5.406 -30.145  1.00  0.00     0.149 C 
BRANCH  16  17
HETATM   17  C   UNL     1      -0.232   6.408 -29.008  1.00  0.00     0.186 C 
BRANCH  17  18
HETATM   18  O   UNL     1       0.278   5.844 -27.795  1.00  0.00    -0.394 OA
HETATM   19  C   UNL     1      -0.501   6.234 -26.671  1.00  0.00     0.201 C 
ENDBRANCH  17  18
ENDBRANCH  16  17
ENDBRANCH  13  16
ENDBRANCH   1  12
BRANCH   8  20
HETATM   20  C   UNL     1      -4.085  -0.095 -31.359  1.00  0.00     0.409 C 
HETATM   21  F   UNL     1      -4.544   0.491 -30.232  1.00  0.00    -0.169 F 
HETATM   22  F   UNL     1      -4.724  -1.290 -31.461  1.00  0.00    -0.169 F 
HETATM   23  F   UNL     1      -2.777  -0.376 -31.172  1.00  0.00    -0.169 F 
ENDBRANCH   8  20
BRANCH   6  24
HETATM   24  C   UNL     1      -8.177   1.276 -32.831  1.00  0.00    -0.035 A 
HETATM   25  C   UNL     1      -9.063   0.253 -32.454  1.00  0.00     0.009 A 
HETATM   26  C   UNL     1     -10.357   0.204 -32.976  1.00  0.00     0.001 A 
HETATM   27  C   UNL     1     -10.785   1.179 -33.876  1.00  0.00     0.000 A 
HETATM   28  C   UNL     1      -9.921   2.205 -34.251  1.00  0.00     0.001 A 
HETATM   29  C   UNL     1      -8.625   2.254 -33.732  1.00  0.00     0.009 A 
ENDBRANCH   6  24
TORSDOF 6
ENDMDL
MODEL 10
REMARK VINA RESULT:      -7.3      4.552      6.241
REMARK  6 active torsions:
REMARK  status: ('A' for Active; 'I' for Inactive)
REMARK    1  A    between atoms: O_2  and  C_3 
REMARK    2  A    between atoms: C_3  and  C_4 
REMARK    3  A    between atoms: C_4  and  N_5 
REMARK       I    between atoms: N_5  and  C_6 
REMARK    4  A    between atoms: C_6  and  C_7 
REMARK    5  A    between atoms: C_12  and  C_13 
REMARK    6  A    between atoms: C_20  and  C_21 
ROOT
HETATM    1  C   UNL     1      -8.723   2.527 -32.762  1.00  0.00     0.165 A 
HETATM    2  N   UNL     1      -7.972   1.505 -32.277  1.00  0.00    -0.163 NA
HETATM    3  N   UNL     1      -6.707   1.918 -32.461  1.00  0.00    -0.238 N 
HETATM    4  C   UNL     1      -6.597   3.175 -32.989  1.00  0.00     0.141 A 
HETATM    5  N   UNL     1      -5.385   3.752 -33.176  1.00  0.00    -0.365 N 
HETATM    6  C   UNL     1      -4.157   2.974 -33.038  1.00  0.00     0.118 C 
HETATM    7  C   UNL     1      -4.322   1.957 -31.895  1.00  0.00     0.066 C 
HETATM    8  C   UNL     1      -5.575   1.084 -32.101  1.00  0.00     0.221 C 
HETATM    9  C   UNL     1      -7.888   3.586 -33.203  1.00  0.00     0.092 A 
HETATM   10 BR   UNL     1      -8.423   5.229 -33.930  1.00  0.00    -0.044 Br
HETATM   11  H   UNL     1      -5.305   4.597 -33.744  1.00  0.00     0.162 HD
ENDROOT
BRANCH   1  12
HETATM   12  C   UNL     1     -10.194   2.437 -32.773  1.00  0.00     0.273 C 
HETATM   13  N   UNL     1     -10.671   1.496 -33.660  1.00  0.00    -0.353 N 
HETATM   14  H   UNL     1      -9.970   0.881 -34.068  1.00  0.00     0.162 HD
HETATM   15  O   UNL     1     -10.928   3.123 -32.070  1.00  0.00    -0.266 OA
BRANCH  13  16
HETATM   16  C   UNL     1     -12.061   1.096 -33.709  1.00  0.00     0.149 C 
BRANCH  16  17
HETATM   17  C   UNL     1     -12.755   1.641 -34.955  1.00  0.00     0.186 C 
BRANCH  17  18
HETATM   18  O   UNL     1     -14.132   1.248 -34.936  1.00  0.00    -0.394 OA
HETATM   19  C   UNL     1     -14.482   0.642 -33.698  1.00  0.00     0.201 C 
ENDBRANCH  17  18
ENDBRANCH  16  17
ENDBRANCH  13  16
ENDBRANCH   1  12
BRANCH   8  20
HETATM   20  C   UNL     1      -5.362   0.023 -33.158  1.00  0.00     0.409 C 
HETATM   21  F   UNL     1      -4.065  -0.321 -33.310  1.00  0.00    -0.169 F 
HETATM   22  F   UNL     1      -6.026  -1.112 -32.814  1.00  0.00    -0.169 F 
HETATM   23  F   UNL     1      -5.834   0.389 -34.370  1.00  0.00    -0.169 F 
ENDBRANCH   8  20
BRANCH   6  24
HETATM   24  C   UNL     1      -2.973   3.888 -32.780  1.00  0.00    -0.035 A 
HETATM   25  C   UNL     1      -2.353   4.604 -33.818  1.00  0.00     0.009 A 
HETATM   26  C   UNL     1      -1.280   5.456 -33.553  1.00  0.00     0.001 A 
HETATM   27  C   UNL     1      -0.817   5.611 -32.247  1.00  0.00     0.000 A 
HETATM   28  C   UNL     1      -1.427   4.915 -31.206  1.00  0.00     0.001 A 
HETATM   29  C   UNL     1      -2.499   4.060 -31.470  1.00  0.00     0.009 A 
ENDBRANCH   6  24
TORSDOF 6
ENDMDL
