MODEL 1
REMARK VINA RESULT:      -9.0      0.000      0.000
REMARK  9 active torsions:
REMARK  status: ('A' for Active; 'I' for Inactive)
REMARK       I    between atoms: C_2  and  N_3 
REMARK    1  A    between atoms: N_3  and  C_4 
REMARK    2  A    between atoms: C_4  and  C_5 
REMARK    3  A    between atoms: C_5  and  N_6 
REMARK       I    between atoms: N_6  and  C_7 
REMARK    4  A    between atoms: C_7  and  C_8 
REMARK    5  A    between atoms: C_8  and  C_9 
REMARK    6  A    between atoms: C_13  and  C_14 
REMARK    7  A    between atoms: C_14  and  O_15 
REMARK    8  A    between atoms: C_17  and  O_18 
REMARK    9  A    between atoms: C_25  and  C_26 
ROOT
HETATM    1  C   UNL     1      -6.924   3.820 -32.703  1.00  0.00     0.056 C 
HETATM    2  C   UNL     1      -8.060   4.649 -31.949  1.00  0.00    -0.030 C 
HETATM    3  C   UNL     1      -7.794   4.617 -30.407  1.00  0.00     0.016 C 
HETATM    4  C   UNL     1      -9.519   4.060 -32.172  1.00  0.00     0.012 C 
HETATM    5  C   UNL     1     -10.287   4.458 -33.504  1.00  0.00     0.008 C 
HETATM    6  C   UNL     1     -11.809   4.474 -33.152  1.00  0.00     0.020 C 
HETATM    7  C   UNL     1      -9.923   5.909 -33.957  1.00  0.00     0.128 C 
HETATM    8  C   UNL     1      -9.316   6.738 -32.830  1.00  0.00     0.033 C 
HETATM    9  C   UNL     1      -7.982   6.146 -32.384  1.00  0.00     0.013 C 
HETATM   10  C   UNL     1      -9.610   2.556 -31.797  1.00  0.00     0.054 C 
HETATM   11  C   UNL     1      -8.426   1.803 -32.278  1.00  0.00     0.010 A 
HETATM   12  C   UNL     1      -7.209   2.333 -32.648  1.00  0.00     0.054 A 
HETATM   13  N   UNL     1      -6.273   1.392 -33.055  1.00  0.00    -0.244 NA
HETATM   14  C   UNL     1      -6.822   0.186 -33.092  1.00  0.00     0.108 A 
HETATM   15  S   UNL     1      -8.423   0.114 -32.449  1.00  0.00    -0.072 SA
ENDROOT
BRANCH   1  16
HETATM   16  C   UNL     1      -5.516   4.173 -32.187  1.00  0.00     0.114 C 
BRANCH  16  17
HETATM   17  C   UNL     1      -4.765   5.185 -33.032  1.00  0.00     0.218 C 
HETATM   18  N   UNL     1      -4.352   4.696 -34.242  1.00  0.00    -0.359 N 
HETATM   19  H   UNL     1      -4.926   3.951 -34.642  1.00  0.00     0.162 HD
HETATM   20  O   UNL     1      -4.483   6.304 -32.615  1.00  0.00    -0.274 OA
BRANCH  18  21
HETATM   21  C   UNL     1      -3.433   5.403 -35.106  1.00  0.00     0.142 C 
BRANCH  21  22
HETATM   22  C   UNL     1      -1.964   5.041 -34.880  1.00  0.00     0.142 C 
BRANCH  22  23
HETATM   23  N   UNL     1      -1.487   5.497 -33.582  1.00  0.00    -0.360 N 
HETATM   24  C   UNL     1      -1.260   6.828 -33.323  1.00  0.00     0.213 C 
HETATM   25  C   UNL     1      -0.667   7.111 -31.969  1.00  0.00     0.117 C 
HETATM   26  O   UNL     1      -1.501   7.728 -34.122  1.00  0.00    -0.274 OA
HETATM   27  H   UNL     1      -1.172   4.797 -32.924  1.00  0.00     0.162 HD
ENDBRANCH  22  23
ENDBRANCH  21  22
ENDBRANCH  18  21
ENDBRANCH  16  17
ENDBRANCH   1  16
BRANCH   5  28
HETATM   28  C   UNL     1     -10.153   3.449 -34.674  1.00  0.00     0.176 C 
BRANCH  28  29
HETATM   29  O   UNL     1     -10.901   3.817 -35.816  1.00  0.00    -0.400 OA
HETATM   30  H   UNL     1     -11.538   3.082 -35.953  1.00  0.00     0.209 HD
ENDBRANCH  28  29
ENDBRANCH   5  28
BRANCH  14  31
HETATM   31  C   UNL     1      -6.158  -1.027 -33.604  1.00  0.00    -0.000 A 
HETATM   32  C   UNL     1      -6.879  -1.931 -34.399  1.00  0.00     0.014 A 
HETATM   33  C   UNL     1      -6.294  -3.112 -34.863  1.00  0.00     0.001 A 
HETATM   34  C   UNL     1      -4.971  -3.408 -34.544  1.00  0.00     0.000 A 
HETATM   35  C   UNL     1      -4.236  -2.527 -33.758  1.00  0.00     0.001 A 
HETATM   36  C   UNL     1      -4.826  -1.349 -33.288  1.00  0.00     0.014 A 
ENDBRANCH  14  31
BRANCH   7  37
HETATM   37  O   UNL     1      -9.004   5.898 -35.056  1.00  0.00    -0.395 OA
HETATM   38  H   UNL     1      -8.942   6.812 -35.393  1.00  0.00     0.210 HD
ENDBRANCH   7  37
TORSDOF 9
ENDMDL
MODEL 2
REMARK VINA RESULT:      -8.6      3.836      7.063
REMARK  9 active torsions:
REMARK  status: ('A' for Active; 'I' for Inactive)
REMARK       I    between atoms: C_2  and  N_3 
REMARK    1  A    between atoms: N_3  and  C_4 
REMARK    2  A    between atoms: C_4  and  C_5 
REMARK    3  A    between atoms: C_5  and  N_6 
REMARK       I    between atoms: N_6  and  C_7 
REMARK    4  A    between atoms: C_7  and  C_8 
REMARK    5  A    between atoms: C_8  and  C_9 
REMARK    6  A    between atoms: C_13  and  C_14 
REMARK    7  A    between atoms: C_14  and  O_15 
REMARK    8  A    between atoms: C_17  and  O_18 
REMARK    9  A    between atoms: C_25  and  C_26 
ROOT
HETATM    1  C   UNL     1      -9.926   2.832 -33.679  1.00  0.00     0.056 C 
HETATM    2  C   UNL     1      -9.956   4.392 -33.341  1.00  0.00    -0.030 C 
HETATM    3  C   UNL     1      -9.604   5.212 -34.627  1.00  0.00     0.016 C 
HETATM    4  C   UNL     1      -8.901   4.813 -32.230  1.00  0.00     0.012 C 
HETATM    5  C   UNL     1      -9.301   4.602 -30.707  1.00  0.00     0.008 C 
HETATM    6  C   UNL     1      -8.580   5.728 -29.898  1.00  0.00     0.020 C 
HETATM    7  C   UNL     1     -10.834   4.812 -30.487  1.00  0.00     0.128 C 
HETATM    8  C   UNL     1     -11.485   5.590 -31.626  1.00  0.00     0.033 C 
HETATM    9  C   UNL     1     -11.404   4.804 -32.932  1.00  0.00     0.013 C 
HETATM   10  C   UNL     1      -7.458   4.366 -32.588  1.00  0.00     0.054 C 
HETATM   11  C   UNL     1      -7.438   2.991 -33.146  1.00  0.00     0.010 A 
HETATM   12  C   UNL     1      -8.507   2.302 -33.674  1.00  0.00     0.054 A 
HETATM   13  N   UNL     1      -8.199   1.028 -34.131  1.00  0.00    -0.244 NA
HETATM   14  C   UNL     1      -6.939   0.731 -33.848  1.00  0.00     0.108 A 
HETATM   15  S   UNL     1      -6.027   2.048 -33.201  1.00  0.00    -0.072 SA
ENDROOT
BRANCH   1  16
HETATM   16  C   UNL     1     -10.673   2.513 -34.988  1.00  0.00     0.114 C 
BRANCH  16  17
HETATM   17  C   UNL     1     -11.931   1.684 -34.816  1.00  0.00     0.218 C 
HETATM   18  N   UNL     1     -11.868   0.793 -33.779  1.00  0.00    -0.359 N 
HETATM   19  H   UNL     1     -11.263   1.058 -32.999  1.00  0.00     0.162 HD
HETATM   20  O   UNL     1     -12.873   1.753 -35.600  1.00  0.00    -0.274 OA
BRANCH  18  21
HETATM   21  C   UNL     1     -12.850  -0.247 -33.571  1.00  0.00     0.142 C 
BRANCH  21  22
HETATM   22  C   UNL     1     -14.279   0.273 -33.402  1.00  0.00     0.142 C 
BRANCH  22  23
HETATM   23  N   UNL     1     -14.318   1.507 -32.630  1.00  0.00    -0.360 N 
HETATM   24  C   UNL     1     -15.467   2.255 -32.521  1.00  0.00     0.213 C 
HETATM   25  C   UNL     1     -15.302   3.553 -31.778  1.00  0.00     0.117 C 
HETATM   26  O   UNL     1     -16.547   1.917 -32.996  1.00  0.00    -0.274 OA
HETATM   27  H   UNL     1     -13.439   1.888 -32.307  1.00  0.00     0.162 HD
ENDBRANCH  22  23
ENDBRANCH  21  22
ENDBRANCH  18  21
ENDBRANCH  16  17
ENDBRANCH   1  16
BRANCH   5  28
HETATM   28  C   UNL     1      -8.815   3.273 -30.071  1.00  0.00     0.176 C 
BRANCH  28  29
HETATM   29  O   UNL     1      -9.569   2.150 -30.483  1.00  0.00    -0.400 OA
HETATM   30  H   UNL     1      -9.652   1.589 -29.681  1.00  0.00     0.209 HD
ENDBRANCH  28  29
ENDBRANCH   5  28
BRANCH  14  31
HETATM   31  C   UNL     1      -6.313  -0.585 -34.070  1.00  0.00    -0.000 A 
HETATM   32  C   UNL     1      -7.064  -1.626 -34.636  1.00  0.00     0.014 A 
HETATM   33  C   UNL     1      -6.515  -2.898 -34.818  1.00  0.00     0.001 A 
HETATM   34  C   UNL     1      -5.199  -3.152 -34.440  1.00  0.00     0.000 A 
HETATM   35  C   UNL     1      -4.434  -2.135 -33.877  1.00  0.00     0.001 A 
HETATM   36  C   UNL     1      -4.988  -0.865 -33.689  1.00  0.00     0.014 A 
ENDBRANCH  14  31
BRANCH   7  37
HETATM   37  O   UNL     1     -11.518   3.562 -30.345  1.00  0.00    -0.395 OA
HETATM   38  H   UNL     1     -10.963   2.876 -30.762  1.00  0.00     0.210 HD
ENDBRANCH   7  37
TORSDOF 9
ENDMDL
MODEL 3
REMARK VINA RESULT:      -8.3      3.418      6.966
REMARK  9 active torsions:
REMARK  status: ('A' for Active; 'I' for Inactive)
REMARK       I    between atoms: C_2  and  N_3 
REMARK    1  A    between atoms: N_3  and  C_4 
REMARK    2  A    between atoms: C_4  and  C_5 
REMARK    3  A    between atoms: C_5  and  N_6 
REMARK       I    between atoms: N_6  and  C_7 
REMARK    4  A    between atoms: C_7  and  C_8 
REMARK    5  A    between atoms: C_8  and  C_9 
REMARK    6  A    between atoms: C_13  and  C_14 
REMARK    7  A    between atoms: C_14  and  O_15 
REMARK    8  A    between atoms: C_17  and  O_18 
REMARK    9  A    between atoms: C_25  and  C_26 
ROOT
HETATM    1  C   UNL     1      -7.722   2.355 -33.199  1.00  0.00     0.056 C 
HETATM    2  C   UNL     1      -7.135   3.773 -32.761  1.00  0.00    -0.030 C 
HETATM    3  C   UNL     1      -6.564   4.512 -34.018  1.00  0.00     0.016 C 
HETATM    4  C   UNL     1      -5.941   3.661 -31.718  1.00  0.00     0.012 C 
HETATM    5  C   UNL     1      -6.309   3.480 -30.184  1.00  0.00     0.008 C 
HETATM    6  C   UNL     1      -5.170   4.172 -29.368  1.00  0.00     0.020 C 
HETATM    7  C   UNL     1      -7.630   4.233 -29.823  1.00  0.00     0.128 C 
HETATM    8  C   UNL     1      -7.994   5.299 -30.851  1.00  0.00     0.033 C 
HETATM    9  C   UNL     1      -8.290   4.662 -32.206  1.00  0.00     0.013 C 
HETATM   10  C   UNL     1      -4.801   2.737 -32.224  1.00  0.00     0.054 C 
HETATM   11  C   UNL     1      -5.338   1.514 -32.868  1.00  0.00     0.010 A 
HETATM   12  C   UNL     1      -6.617   1.330 -33.347  1.00  0.00     0.054 A 
HETATM   13  N   UNL     1      -6.845   0.081 -33.909  1.00  0.00    -0.244 NA
HETATM   14  C   UNL     1      -5.782  -0.694 -33.752  1.00  0.00     0.108 A 
HETATM   15  S   UNL     1      -4.402   0.116 -33.101  1.00  0.00    -0.072 SA
ENDROOT
BRANCH   1  16
HETATM   16  C   UNL     1      -8.603   2.462 -34.459  1.00  0.00     0.114 C 
BRANCH  16  17
HETATM   17  C   UNL     1     -10.097   2.457 -34.192  1.00  0.00     0.218 C 
HETATM   18  N   UNL     1     -10.762   1.422 -34.792  1.00  0.00    -0.359 N 
HETATM   19  H   UNL     1     -10.218   0.569 -34.940  1.00  0.00     0.162 HD
HETATM   20  O   UNL     1     -10.653   3.358 -33.570  1.00  0.00    -0.274 OA
BRANCH  18  21
HETATM   21  C   UNL     1     -12.204   1.346 -34.862  1.00  0.00     0.142 C 
BRANCH  21  22
HETATM   22  C   UNL     1     -12.831   0.451 -33.793  1.00  0.00     0.142 C 
BRANCH  22  23
HETATM   23  N   UNL     1     -13.740   1.192 -32.929  1.00  0.00    -0.360 N 
HETATM   24  C   UNL     1     -15.065   1.364 -33.254  1.00  0.00     0.213 C 
HETATM   25  C   UNL     1     -15.832   2.247 -32.306  1.00  0.00     0.117 C 
HETATM   26  O   UNL     1     -15.596   0.860 -34.238  1.00  0.00    -0.274 OA
HETATM   27  H   UNL     1     -13.338   1.717 -32.164  1.00  0.00     0.162 HD
ENDBRANCH  22  23
ENDBRANCH  21  22
ENDBRANCH  18  21
ENDBRANCH  16  17
ENDBRANCH   1  16
BRANCH   5  28
HETATM   28  C   UNL     1      -6.336   2.014 -29.677  1.00  0.00     0.176 C 
BRANCH  28  29
HETATM   29  O   UNL     1      -7.413   1.263 -30.202  1.00  0.00    -0.400 OA
HETATM   30  H   UNL     1      -7.847   0.856 -29.420  1.00  0.00     0.209 HD
ENDBRANCH  28  29
ENDBRANCH   5  28
BRANCH  14  31
HETATM   31  C   UNL     1      -5.720  -2.123 -34.108  1.00  0.00    -0.000 A 
HETATM   32  C   UNL     1      -4.506  -2.816 -33.994  1.00  0.00     0.014 A 
HETATM   33  C   UNL     1      -4.402  -4.159 -34.367  1.00  0.00     0.001 A 
HETATM   34  C   UNL     1      -5.516  -4.836 -34.856  1.00  0.00     0.000 A 
HETATM   35  C   UNL     1      -6.731  -4.171 -34.978  1.00  0.00     0.001 A 
HETATM   36  C   UNL     1      -6.831  -2.824 -34.612  1.00  0.00     0.014 A 
ENDBRANCH  14  31
BRANCH   7  37
HETATM   37  O   UNL     1      -8.733   3.326 -29.704  1.00  0.00    -0.395 OA
HETATM   38  H   UNL     1      -9.123   3.456 -28.819  1.00  0.00     0.210 HD
ENDBRANCH   7  37
TORSDOF 9
ENDMDL
MODEL 4
REMARK VINA RESULT:      -8.3      2.004      2.367
REMARK  9 active torsions:
REMARK  status: ('A' for Active; 'I' for Inactive)
REMARK       I    between atoms: C_2  and  N_3 
REMARK    1  A    between atoms: N_3  and  C_4 
REMARK    2  A    between atoms: C_4  and  C_5 
REMARK    3  A    between atoms: C_5  and  N_6 
REMARK       I    between atoms: N_6  and  C_7 
REMARK    4  A    between atoms: C_7  and  C_8 
REMARK    5  A    between atoms: C_8  and  C_9 
REMARK    6  A    between atoms: C_13  and  C_14 
REMARK    7  A    between atoms: C_14  and  O_15 
REMARK    8  A    between atoms: C_17  and  O_18 
REMARK    9  A    between atoms: C_25  and  C_26 
ROOT
HETATM    1  C   UNL     1      -6.105   3.375 -31.560  1.00  0.00     0.056 C 
HETATM    2  C   UNL     1      -7.159   4.263 -30.756  1.00  0.00    -0.030 C 
HETATM    3  C   UNL     1      -7.176   3.820 -29.254  1.00  0.00     0.016 C 
HETATM    4  C   UNL     1      -8.647   4.109 -31.292  1.00  0.00     0.012 C 
HETATM    5  C   UNL     1      -9.075   4.970 -32.556  1.00  0.00     0.008 C 
HETATM    6  C   UNL     1     -10.599   5.273 -32.393  1.00  0.00     0.020 C 
HETATM    7  C   UNL     1      -8.349   6.354 -32.573  1.00  0.00     0.128 C 
HETATM    8  C   UNL     1      -7.788   6.736 -31.207  1.00  0.00     0.033 C 
HETATM    9  C   UNL     1      -6.702   5.754 -30.776  1.00  0.00     0.013 C 
HETATM   10  C   UNL     1      -9.108   2.627 -31.333  1.00  0.00     0.054 C 
HETATM   11  C   UNL     1      -8.039   1.739 -31.851  1.00  0.00     0.010 A 
HETATM   12  C   UNL     1      -6.694   2.028 -31.925  1.00  0.00     0.054 A 
HETATM   13  N   UNL     1      -5.915   1.005 -32.450  1.00  0.00    -0.244 NA
HETATM   14  C   UNL     1      -6.684   0.008 -32.861  1.00  0.00     0.108 A 
HETATM   15  S   UNL     1      -8.353   0.182 -32.451  1.00  0.00    -0.072 SA
ENDROOT
BRANCH   1  16
HETATM   16  C   UNL     1      -4.765   3.252 -30.810  1.00  0.00     0.114 C 
BRANCH  16  17
HETATM   17  C   UNL     1      -3.548   3.677 -31.609  1.00  0.00     0.218 C 
HETATM   18  N   UNL     1      -2.773   4.613 -30.980  1.00  0.00    -0.359 N 
HETATM   19  H   UNL     1      -2.791   4.594 -29.958  1.00  0.00     0.162 HD
HETATM   20  O   UNL     1      -3.343   3.276 -32.751  1.00  0.00    -0.274 OA
BRANCH  18  21
HETATM   21  C   UNL     1      -1.700   5.323 -31.641  1.00  0.00     0.142 C 
BRANCH  21  22
HETATM   22  C   UNL     1      -0.315   5.035 -31.060  1.00  0.00     0.142 C 
BRANCH  22  23
HETATM   23  N   UNL     1      -0.285   5.209 -29.615  1.00  0.00    -0.360 N 
HETATM   24  C   UNL     1       0.217   6.351 -29.036  1.00  0.00     0.213 C 
HETATM   25  C   UNL     1       0.271   6.318 -27.532  1.00  0.00     0.117 C 
HETATM   26  O   UNL     1       0.609   7.323 -29.674  1.00  0.00    -0.274 OA
HETATM   27  H   UNL     1      -0.495   4.404 -29.039  1.00  0.00     0.162 HD
ENDBRANCH  22  23
ENDBRANCH  21  22
ENDBRANCH  18  21
ENDBRANCH  16  17
ENDBRANCH   1  16
BRANCH   5  28
HETATM   28  C   UNL     1      -8.950   4.249 -33.924  1.00  0.00     0.176 C 
BRANCH  28  29
HETATM   29  O   UNL     1     -10.200   3.898 -34.485  1.00  0.00    -0.400 OA
HETATM   30  H   UNL     1     -10.251   4.397 -35.329  1.00  0.00     0.209 HD
ENDBRANCH  28  29
ENDBRANCH   5  28
BRANCH  14  31
HETATM   31  C   UNL     1      -6.205  -1.182 -33.589  1.00  0.00    -0.000 A 
HETATM   32  C   UNL     1      -7.129  -2.031 -34.216  1.00  0.00     0.014 A 
HETATM   33  C   UNL     1      -6.712  -3.191 -34.875  1.00  0.00     0.001 A 
HETATM   34  C   UNL     1      -5.360  -3.520 -34.923  1.00  0.00     0.000 A 
HETATM   35  C   UNL     1      -4.426  -2.693 -34.309  1.00  0.00     0.001 A 
HETATM   36  C   UNL     1      -4.846  -1.536 -33.643  1.00  0.00     0.014 A 
ENDBRANCH  14  31
BRANCH   7  37
HETATM   37  O   UNL     1      -7.275   6.369 -33.522  1.00  0.00    -0.395 OA
HETATM   38  H   UNL     1      -6.647   7.060 -33.240  1.00  0.00     0.210 HD
ENDBRANCH   7  37
TORSDOF 9
ENDMDL
MODEL 5
REMARK VINA RESULT:      -8.0      3.274      6.695
REMARK  9 active torsions:
REMARK  status: ('A' for Active; 'I' for Inactive)
REMARK       I    between atoms: C_2  and  N_3 
REMARK    1  A    between atoms: N_3  and  C_4 
REMARK    2  A    between atoms: C_4  and  C_5 
REMARK    3  A    between atoms: C_5  and  N_6 
REMARK       I    between atoms: N_6  and  C_7 
REMARK    4  A    between atoms: C_7  and  C_8 
REMARK    5  A    between atoms: C_8  and  C_9 
REMARK    6  A    between atoms: C_13  and  C_14 
REMARK    7  A    between atoms: C_14  and  O_15 
REMARK    8  A    between atoms: C_17  and  O_18 
REMARK    9  A    between atoms: C_25  and  C_26 
ROOT
HETATM    1  C   UNL     1      -7.213   3.993 -32.948  1.00  0.00     0.056 C 
HETATM    2  C   UNL     1      -5.643   3.735 -33.079  1.00  0.00    -0.030 C 
HETATM    3  C   UNL     1      -5.185   4.043 -34.544  1.00  0.00     0.016 C 
HETATM    4  C   UNL     1      -5.228   2.230 -32.779  1.00  0.00     0.012 C 
HETATM    5  C   UNL     1      -5.046   1.798 -31.262  1.00  0.00     0.008 C 
HETATM    6  C   UNL     1      -3.948   0.686 -31.245  1.00  0.00     0.020 C 
HETATM    7  C   UNL     1      -4.493   2.977 -30.398  1.00  0.00     0.128 C 
HETATM    8  C   UNL     1      -3.844   4.068 -31.244  1.00  0.00     0.033 C 
HETATM    9  C   UNL     1      -4.876   4.729 -32.153  1.00  0.00     0.013 C 
HETATM   10  C   UNL     1      -6.018   1.217 -33.651  1.00  0.00     0.054 C 
HETATM   11  C   UNL     1      -7.451   1.584 -33.748  1.00  0.00     0.010 A 
HETATM   12  C   UNL     1      -8.004   2.818 -33.482  1.00  0.00     0.054 A 
HETATM   13  N   UNL     1      -9.379   2.881 -33.662  1.00  0.00    -0.244 NA
HETATM   14  C   UNL     1      -9.859   1.681 -33.954  1.00  0.00     0.108 A 
HETATM   15  S   UNL     1      -8.650   0.476 -34.215  1.00  0.00    -0.072 SA
ENDROOT
BRANCH   1  16
HETATM   16  C   UNL     1      -7.631   5.330 -33.589  1.00  0.00     0.114 C 
BRANCH  16  17
HETATM   17  C   UNL     1      -8.446   6.239 -32.689  1.00  0.00     0.218 C 
HETATM   18  N   UNL     1      -7.881   6.449 -31.459  1.00  0.00    -0.359 N 
HETATM   19  H   UNL     1      -6.862   6.394 -31.422  1.00  0.00     0.162 HD
HETATM   20  O   UNL     1      -9.551   6.664 -33.015  1.00  0.00    -0.274 OA
BRANCH  18  21
HETATM   21  C   UNL     1      -8.582   7.089 -30.369  1.00  0.00     0.142 C 
BRANCH  21  22
HETATM   22  C   UNL     1      -9.361   6.121 -29.477  1.00  0.00     0.142 C 
BRANCH  22  23
HETATM   23  N   UNL     1     -10.558   5.620 -30.138  1.00  0.00    -0.360 N 
HETATM   24  C   UNL     1     -10.663   4.312 -30.548  1.00  0.00     0.213 C 
HETATM   25  C   UNL     1     -11.923   3.993 -31.308  1.00  0.00     0.117 C 
HETATM   26  O   UNL     1      -9.806   3.460 -30.334  1.00  0.00    -0.274 OA
HETATM   27  H   UNL     1     -11.250   6.296 -30.434  1.00  0.00     0.162 HD
ENDBRANCH  22  23
ENDBRANCH  21  22
ENDBRANCH  18  21
ENDBRANCH  16  17
ENDBRANCH   1  16
BRANCH   5  28
HETATM   28  C   UNL     1      -6.290   1.148 -30.603  1.00  0.00     0.176 C 
BRANCH  28  29
HETATM   29  O   UNL     1      -6.134   0.925 -29.216  1.00  0.00    -0.400 OA
HETATM   30  H   UNL     1      -7.041   0.751 -28.880  1.00  0.00     0.209 HD
ENDBRANCH  28  29
ENDBRANCH   5  28
BRANCH  14  31
HETATM   31  C   UNL     1     -11.292   1.353 -34.079  1.00  0.00    -0.000 A 
HETATM   32  C   UNL     1     -12.151   2.240 -34.746  1.00  0.00     0.014 A 
HETATM   33  C   UNL     1     -13.521   1.981 -34.843  1.00  0.00     0.001 A 
HETATM   34  C   UNL     1     -14.057   0.827 -34.278  1.00  0.00     0.000 A 
HETATM   35  C   UNL     1     -13.224  -0.066 -33.613  1.00  0.00     0.001 A 
HETATM   36  C   UNL     1     -11.854   0.197 -33.510  1.00  0.00     0.014 A 
ENDBRANCH  14  31
BRANCH   7  37
HETATM   37  O   UNL     1      -5.527   3.574 -29.606  1.00  0.00    -0.395 OA
HETATM   38  H   UNL     1      -6.339   3.585 -30.147  1.00  0.00     0.210 HD
ENDBRANCH   7  37
TORSDOF 9
ENDMDL
MODEL 6
REMARK VINA RESULT:      -7.9     17.256     19.813
REMARK  9 active torsions:
REMARK  status: ('A' for Active; 'I' for Inactive)
REMARK       I    between atoms: C_2  and  N_3 
REMARK    1  A    between atoms: N_3  and  C_4 
REMARK    2  A    between atoms: C_4  and  C_5 
REMARK    3  A    between atoms: C_5  and  N_6 
REMARK       I    between atoms: N_6  and  C_7 
REMARK    4  A    between atoms: C_7  and  C_8 
REMARK    5  A    between atoms: C_8  and  C_9 
REMARK    6  A    between atoms: C_13  and  C_14 
REMARK    7  A    between atoms: C_14  and  O_15 
REMARK    8  A    between atoms: C_17  and  O_18 
REMARK    9  A    between atoms: C_25  and  C_26 
ROOT
HETATM    1  C   UNL     1      -3.980 -13.868 -37.733  1.00  0.00     0.056 C 
HETATM    2  C   UNL     1      -2.454 -13.789 -38.194  1.00  0.00    -0.030 C 
HETATM    3  C   UNL     1      -2.014 -12.289 -38.282  1.00  0.00     0.016 C 
HETATM    4  C   UNL     1      -2.199 -14.423 -39.629  1.00  0.00     0.012 C 
HETATM    5  C   UNL     1      -2.015 -15.998 -39.723  1.00  0.00     0.008 C 
HETATM    6  C   UNL     1      -1.048 -16.262 -40.922  1.00  0.00     0.020 C 
HETATM    7  C   UNL     1      -1.307 -16.565 -38.451  1.00  0.00     0.128 C 
HETATM    8  C   UNL     1      -0.569 -15.486 -37.663  1.00  0.00     0.033 C 
HETATM    9  C   UNL     1      -1.551 -14.456 -37.111  1.00  0.00     0.013 C 
HETATM   10  C   UNL     1      -3.125 -13.812 -40.715  1.00  0.00     0.054 C 
HETATM   11  C   UNL     1      -4.511 -13.644 -40.217  1.00  0.00     0.010 A 
HETATM   12  C   UNL     1      -4.914 -13.623 -38.900  1.00  0.00     0.054 A 
HETATM   13  N   UNL     1      -6.280 -13.444 -38.720  1.00  0.00    -0.244 NA
HETATM   14  C   UNL     1      -6.899 -13.439 -39.891  1.00  0.00     0.108 A 
HETATM   15  S   UNL     1      -5.840 -13.452 -41.256  1.00  0.00    -0.072 SA
ENDROOT
BRANCH   1  16
HETATM   16  C   UNL     1      -4.269 -12.940 -36.537  1.00  0.00     0.114 C 
BRANCH  16  17
HETATM   17  C   UNL     1      -5.088 -13.571 -35.427  1.00  0.00     0.218 C 
HETATM   18  N   UNL     1      -4.338 -14.258 -34.510  1.00  0.00    -0.359 N 
HETATM   19  H   UNL     1      -3.381 -13.927 -34.379  1.00  0.00     0.162 HD
HETATM   20  O   UNL     1      -6.315 -13.536 -35.418  1.00  0.00    -0.274 OA
BRANCH  18  21
HETATM   21  C   UNL     1      -4.918 -15.120 -33.505  1.00  0.00     0.142 C 
BRANCH  21  22
HETATM   22  C   UNL     1      -5.327 -14.392 -32.223  1.00  0.00     0.142 C 
BRANCH  22  23
HETATM   23  N   UNL     1      -5.938 -15.295 -31.258  1.00  0.00    -0.360 N 
HETATM   24  C   UNL     1      -5.195 -15.921 -30.285  1.00  0.00     0.213 C 
HETATM   25  C   UNL     1      -5.966 -16.901 -29.442  1.00  0.00     0.117 C 
HETATM   26  O   UNL     1      -3.997 -15.722 -30.109  1.00  0.00    -0.274 OA
HETATM   27  H   UNL     1      -6.895 -15.578 -31.418  1.00  0.00     0.162 HD
ENDBRANCH  22  23
ENDBRANCH  21  22
ENDBRANCH  18  21
ENDBRANCH  16  17
ENDBRANCH   1  16
BRANCH   5  28
HETATM   28  C   UNL     1      -3.302 -16.797 -40.058  1.00  0.00     0.176 C 
BRANCH  28  29
HETATM   29  O   UNL     1      -3.071 -18.183 -40.219  1.00  0.00    -0.400 OA
HETATM   30  H   UNL     1      -2.786 -18.500 -39.334  1.00  0.00     0.209 HD
ENDBRANCH  28  29
ENDBRANCH   5  28
BRANCH  14  31
HETATM   31  C   UNL     1      -8.362 -13.402 -40.071  1.00  0.00    -0.000 A 
HETATM   32  C   UNL     1      -9.061 -14.591 -40.333  1.00  0.00     0.014 A 
HETATM   33  C   UNL     1     -10.441 -14.584 -40.553  1.00  0.00     0.001 A 
HETATM   34  C   UNL     1     -11.150 -13.387 -40.509  1.00  0.00     0.000 A 
HETATM   35  C   UNL     1     -10.480 -12.196 -40.250  1.00  0.00     0.001 A 
HETATM   36  C   UNL     1      -9.097 -12.204 -40.038  1.00  0.00     0.014 A 
ENDBRANCH  14  31
BRANCH   7  37
HETATM   37  O   UNL     1      -2.241 -17.205 -37.574  1.00  0.00    -0.395 OA
HETATM   38  H   UNL     1      -1.925 -17.069 -36.661  1.00  0.00     0.210 HD
ENDBRANCH   7  37
TORSDOF 9
ENDMDL
MODEL 7
REMARK VINA RESULT:      -7.9     17.218     20.022
REMARK  9 active torsions:
REMARK  status: ('A' for Active; 'I' for Inactive)
REMARK       I    between atoms: C_2  and  N_3 
REMARK    1  A    between atoms: N_3  and  C_4 
REMARK    2  A    between atoms: C_4  and  C_5 
REMARK    3  A    between atoms: C_5  and  N_6 
REMARK       I    between atoms: N_6  and  C_7 
REMARK    4  A    between atoms: C_7  and  C_8 
REMARK    5  A    between atoms: C_8  and  C_9 
REMARK    6  A    between atoms: C_13  and  C_14 
REMARK    7  A    between atoms: C_14  and  O_15 
REMARK    8  A    between atoms: C_17  and  O_18 
REMARK    9  A    between atoms: C_25  and  C_26 
ROOT
HETATM    1  C   UNL     1      -3.837 -13.844 -37.740  1.00  0.00     0.056 C 
HETATM    2  C   UNL     1      -2.308 -13.778 -38.196  1.00  0.00    -0.030 C 
HETATM    3  C   UNL     1      -1.861 -12.282 -38.308  1.00  0.00     0.016 C 
HETATM    4  C   UNL     1      -2.049 -14.439 -39.618  1.00  0.00     0.012 C 
HETATM    5  C   UNL     1      -1.871 -16.016 -39.684  1.00  0.00     0.008 C 
HETATM    6  C   UNL     1      -0.900 -16.305 -40.873  1.00  0.00     0.020 C 
HETATM    7  C   UNL     1      -1.170 -16.563 -38.398  1.00  0.00     0.128 C 
HETATM    8  C   UNL     1      -0.432 -15.473 -37.626  1.00  0.00     0.033 C 
HETATM    9  C   UNL     1      -1.413 -14.430 -37.097  1.00  0.00     0.013 C 
HETATM   10  C   UNL     1      -2.967 -13.844 -40.719  1.00  0.00     0.054 C 
HETATM   11  C   UNL     1      -4.355 -13.662 -40.230  1.00  0.00     0.010 A 
HETATM   12  C   UNL     1      -4.764 -13.616 -38.916  1.00  0.00     0.054 A 
HETATM   13  N   UNL     1      -6.130 -13.428 -38.745  1.00  0.00    -0.244 NA
HETATM   14  C   UNL     1      -6.744 -13.442 -39.919  1.00  0.00     0.108 A 
HETATM   15  S   UNL     1      -5.679 -13.483 -41.278  1.00  0.00    -0.072 SA
ENDROOT
BRANCH   1  16
HETATM   16  C   UNL     1      -4.127 -12.893 -36.563  1.00  0.00     0.114 C 
BRANCH  16  17
HETATM   17  C   UNL     1      -4.857 -13.532 -35.396  1.00  0.00     0.218 C 
HETATM   18  N   UNL     1      -4.102 -14.438 -34.701  1.00  0.00    -0.359 N 
HETATM   19  H   UNL     1      -3.094 -14.275 -34.707  1.00  0.00     0.162 HD
HETATM   20  O   UNL     1      -6.044 -13.313 -35.169  1.00  0.00    -0.274 OA
BRANCH  18  21
HETATM   21  C   UNL     1      -4.656 -15.325 -33.703  1.00  0.00     0.142 C 
BRANCH  21  22
HETATM   22  C   UNL     1      -5.105 -16.679 -34.256  1.00  0.00     0.142 C 
BRANCH  22  23
HETATM   23  N   UNL     1      -6.277 -16.553 -35.111  1.00  0.00    -0.360 N 
HETATM   24  C   UNL     1      -6.193 -16.698 -36.476  1.00  0.00     0.213 C 
HETATM   25  C   UNL     1      -7.478 -16.430 -37.214  1.00  0.00     0.117 C 
HETATM   26  O   UNL     1      -5.163 -17.007 -37.067  1.00  0.00    -0.274 OA
HETATM   27  H   UNL     1      -7.127 -16.197 -34.695  1.00  0.00     0.162 HD
ENDBRANCH  22  23
ENDBRANCH  21  22
ENDBRANCH  18  21
ENDBRANCH  16  17
ENDBRANCH   1  16
BRANCH   5  28
HETATM   28  C   UNL     1      -3.159 -16.816 -40.010  1.00  0.00     0.176 C 
BRANCH  28  29
HETATM   29  O   UNL     1      -2.940 -18.209 -40.109  1.00  0.00    -0.400 OA
HETATM   30  H   UNL     1      -2.930 -18.400 -41.073  1.00  0.00     0.209 HD
ENDBRANCH  28  29
ENDBRANCH   5  28
BRANCH  14  31
HETATM   31  C   UNL     1      -8.206 -13.402 -40.106  1.00  0.00    -0.000 A 
HETATM   32  C   UNL     1      -8.876 -12.169 -40.091  1.00  0.00     0.014 A 
HETATM   33  C   UNL     1     -10.266 -12.100 -40.220  1.00  0.00     0.001 A 
HETATM   34  C   UNL     1     -11.012 -13.265 -40.371  1.00  0.00     0.000 A 
HETATM   35  C   UNL     1     -10.371 -14.499 -40.390  1.00  0.00     0.001 A 
HETATM   36  C   UNL     1      -8.980 -14.567 -40.254  1.00  0.00     0.014 A 
ENDBRANCH  14  31
BRANCH   7  37
HETATM   37  O   UNL     1      -2.111 -17.184 -37.514  1.00  0.00    -0.395 OA
HETATM   38  H   UNL     1      -1.864 -18.125 -37.439  1.00  0.00     0.210 HD
ENDBRANCH   7  37
TORSDOF 9
ENDMDL
MODEL 8
REMARK VINA RESULT:      -7.9      3.005      7.518
REMARK  9 active torsions:
REMARK  status: ('A' for Active; 'I' for Inactive)
REMARK       I    between atoms: C_2  and  N_3 
REMARK    1  A    between atoms: N_3  and  C_4 
REMARK    2  A    between atoms: C_4  and  C_5 
REMARK    3  A    between atoms: C_5  and  N_6 
REMARK       I    between atoms: N_6  and  C_7 
REMARK    4  A    between atoms: C_7  and  C_8 
REMARK    5  A    between atoms: C_8  and  C_9 
REMARK    6  A    between atoms: C_13  and  C_14 
REMARK    7  A    between atoms: C_14  and  O_15 
REMARK    8  A    between atoms: C_17  and  O_18 
REMARK    9  A    between atoms: C_25  and  C_26 
ROOT
HETATM    1  C   UNL     1      -7.135   2.386 -31.340  1.00  0.00     0.056 C 
HETATM    2  C   UNL     1      -7.399   0.812 -31.289  1.00  0.00    -0.030 C 
HETATM    3  C   UNL     1      -6.952   0.254 -29.896  1.00  0.00     0.016 C 
HETATM    4  C   UNL     1      -6.583   0.004 -32.386  1.00  0.00     0.012 C 
HETATM    5  C   UNL     1      -7.183  -0.070 -33.855  1.00  0.00     0.008 C 
HETATM    6  C   UNL     1      -6.731  -1.441 -34.452  1.00  0.00     0.020 C 
HETATM    7  C   UNL     1      -8.745  -0.093 -33.830  1.00  0.00     0.128 C 
HETATM    8  C   UNL     1      -9.302  -0.494 -32.467  1.00  0.00     0.033 C 
HETATM    9  C   UNL     1      -8.931   0.540 -31.408  1.00  0.00     0.013 C 
HETATM   10  C   UNL     1      -5.060   0.299 -32.323  1.00  0.00     0.054 C 
HETATM   11  C   UNL     1      -4.794   1.743 -32.118  1.00  0.00     0.010 A 
HETATM   12  C   UNL     1      -5.682   2.683 -31.645  1.00  0.00     0.054 A 
HETATM   13  N   UNL     1      -5.161   3.967 -31.547  1.00  0.00    -0.244 NA
HETATM   14  C   UNL     1      -3.933   4.002 -32.044  1.00  0.00     0.108 A 
HETATM   15  S   UNL     1      -3.291   2.454 -32.463  1.00  0.00    -0.072 SA
ENDROOT
BRANCH   1  16
HETATM   16  C   UNL     1      -7.631   3.094 -30.065  1.00  0.00     0.114 C 
BRANCH  16  17
HETATM   17  C   UNL     1      -8.799   4.038 -30.275  1.00  0.00     0.218 C 
HETATM   18  N   UNL     1     -10.013   3.410 -30.338  1.00  0.00    -0.359 N 
HETATM   19  H   UNL     1     -10.090   2.535 -29.816  1.00  0.00     0.162 HD
HETATM   20  O   UNL     1      -8.641   5.242 -30.463  1.00  0.00    -0.274 OA
BRANCH  18  21
HETATM   21  C   UNL     1     -11.226   4.077 -30.755  1.00  0.00     0.142 C 
BRANCH  21  22
HETATM   22  C   UNL     1     -11.571   3.873 -32.232  1.00  0.00     0.142 C 
BRANCH  22  23
HETATM   23  N   UNL     1     -11.751   2.465 -32.556  1.00  0.00    -0.360 N 
HETATM   24  C   UNL     1     -12.596   2.059 -33.562  1.00  0.00     0.213 C 
HETATM   25  C   UNL     1     -12.744   0.566 -33.690  1.00  0.00     0.117 C 
HETATM   26  O   UNL     1     -13.201   2.832 -34.298  1.00  0.00    -0.274 OA
HETATM   27  H   UNL     1     -11.363   1.782 -31.919  1.00  0.00     0.162 HD
ENDBRANCH  22  23
ENDBRANCH  21  22
ENDBRANCH  18  21
ENDBRANCH  16  17
ENDBRANCH   1  16
BRANCH   5  28
HETATM   28  C   UNL     1      -6.648   0.998 -34.845  1.00  0.00     0.176 C 
BRANCH  28  29
HETATM   29  O   UNL     1      -7.042   0.765 -36.183  1.00  0.00    -0.400 OA
HETATM   30  H   UNL     1      -6.243   0.406 -36.627  1.00  0.00     0.209 HD
ENDBRANCH  28  29
ENDBRANCH   5  28
BRANCH  14  31
HETATM   31  C   UNL     1      -3.130   5.226 -32.222  1.00  0.00    -0.000 A 
HETATM   32  C   UNL     1      -1.800   5.128 -32.657  1.00  0.00     0.014 A 
HETATM   33  C   UNL     1      -0.998   6.265 -32.792  1.00  0.00     0.001 A 
HETATM   34  C   UNL     1      -1.515   7.524 -32.500  1.00  0.00     0.000 A 
HETATM   35  C   UNL     1      -2.832   7.646 -32.067  1.00  0.00     0.001 A 
HETATM   36  C   UNL     1      -3.630   6.507 -31.925  1.00  0.00     0.014 A 
ENDBRANCH  14  31
BRANCH   7  37
HETATM   37  O   UNL     1      -9.293   1.183 -34.183  1.00  0.00    -0.395 OA
HETATM   38  H   UNL     1      -8.599   1.676 -34.660  1.00  0.00     0.210 HD
ENDBRANCH   7  37
TORSDOF 9
ENDMDL
MODEL 9
REMARK VINA RESULT:      -7.9      2.630      3.587
REMARK  9 active torsions:
REMARK  status: ('A' for Active; 'I' for Inactive)
REMARK       I    between atoms: C_2  and  N_3 
REMARK    1  A    between atoms: N_3  and  C_4 
REMARK    2  A    between atoms: C_4  and  C_5 
REMARK    3  A    between atoms: C_5  and  N_6 
REMARK       I    between atoms: N_6  and  C_7 
REMARK    4  A    between atoms: C_7  and  C_8 
REMARK    5  A    between atoms: C_8  and  C_9 
REMARK    6  A    between atoms: C_13  and  C_14 
REMARK    7  A    between atoms: C_14  and  O_15 
REMARK    8  A    between atoms: C_17  and  O_18 
REMARK    9  A    between atoms: C_25  and  C_26 
ROOT
HETATM    1  C   UNL     1      -9.785   4.361 -31.606  1.00  0.00     0.056 C 
HETATM    2  C   UNL     1     -11.228   5.016 -31.797  1.00  0.00    -0.030 C 
HETATM    3  C   UNL     1     -12.256   4.295 -30.862  1.00  0.00     0.016 C 
HETATM    4  C   UNL     1     -11.787   4.880 -33.278  1.00  0.00     0.012 C 
HETATM    5  C   UNL     1     -11.301   5.940 -34.357  1.00  0.00     0.008 C 
HETATM    6  C   UNL     1     -12.478   6.117 -35.369  1.00  0.00     0.020 C 
HETATM    7  C   UNL     1     -11.062   7.342 -33.708  1.00  0.00     0.128 C 
HETATM    8  C   UNL     1     -11.761   7.489 -32.360  1.00  0.00     0.033 C 
HETATM    9  C   UNL     1     -11.183   6.508 -31.343  1.00  0.00     0.013 C 
HETATM   10  C   UNL     1     -11.792   3.409 -33.773  1.00  0.00     0.054 C 
HETATM   11  C   UNL     1     -10.549   2.700 -33.383  1.00  0.00     0.010 A 
HETATM   12  C   UNL     1      -9.662   3.076 -32.399  1.00  0.00     0.054 A 
HETATM   13  N   UNL     1      -8.580   2.219 -32.242  1.00  0.00    -0.244 NA
HETATM   14  C   UNL     1      -8.605   1.275 -33.172  1.00  0.00     0.108 A 
HETATM   15  S   UNL     1     -10.035   1.270 -34.141  1.00  0.00    -0.072 SA
ENDROOT
BRANCH   1  16
HETATM   16  C   UNL     1      -9.430   4.176 -30.118  1.00  0.00     0.114 C 
BRANCH  16  17
HETATM   17  C   UNL     1      -8.219   4.962 -29.651  1.00  0.00     0.218 C 
HETATM   18  N   UNL     1      -7.025   4.437 -30.068  1.00  0.00    -0.359 N 
HETATM   19  H   UNL     1      -7.049   3.918 -30.948  1.00  0.00     0.162 HD
HETATM   20  O   UNL     1      -8.315   5.924 -28.894  1.00  0.00    -0.274 OA
BRANCH  18  21
HETATM   21  C   UNL     1      -5.747   4.883 -29.560  1.00  0.00     0.142 C 
BRANCH  21  22
HETATM   22  C   UNL     1      -4.703   5.141 -30.648  1.00  0.00     0.142 C 
BRANCH  22  23
HETATM   23  N   UNL     1      -3.916   3.950 -30.937  1.00  0.00    -0.360 N 
HETATM   24  C   UNL     1      -4.313   3.034 -31.883  1.00  0.00     0.213 C 
HETATM   25  C   UNL     1      -3.440   1.812 -31.976  1.00  0.00     0.117 C 
HETATM   26  O   UNL     1      -5.303   3.176 -32.595  1.00  0.00    -0.274 OA
HETATM   27  H   UNL     1      -3.153   3.727 -30.312  1.00  0.00     0.162 HD
ENDBRANCH  22  23
ENDBRANCH  21  22
ENDBRANCH  18  21
ENDBRANCH  16  17
ENDBRANCH   1  16
BRANCH   5  28
HETATM   28  C   UNL     1     -10.088   5.501 -35.219  1.00  0.00     0.176 C 
BRANCH  28  29
HETATM   29  O   UNL     1      -9.595   6.531 -36.053  1.00  0.00    -0.400 OA
HETATM   30  H   UNL     1      -9.983   7.359 -35.694  1.00  0.00     0.209 HD
ENDBRANCH  28  29
ENDBRANCH   5  28
BRANCH  14  31
HETATM   31  C   UNL     1      -7.542   0.276 -33.387  1.00  0.00    -0.000 A 
HETATM   32  C   UNL     1      -7.444  -0.378 -34.624  1.00  0.00     0.014 A 
HETATM   33  C   UNL     1      -6.477  -1.362 -34.846  1.00  0.00     0.001 A 
HETATM   34  C   UNL     1      -5.586  -1.707 -33.834  1.00  0.00     0.000 A 
HETATM   35  C   UNL     1      -5.663  -1.072 -32.599  1.00  0.00     0.001 A 
HETATM   36  C   UNL     1      -6.636  -0.092 -32.376  1.00  0.00     0.014 A 
ENDBRANCH  14  31
BRANCH   7  37
HETATM   37  O   UNL     1      -9.665   7.601 -33.523  1.00  0.00    -0.395 OA
HETATM   38  H   UNL     1      -9.174   6.865 -33.935  1.00  0.00     0.210 HD
ENDBRANCH   7  37
TORSDOF 9
ENDMDL
MODEL 10
REMARK VINA RESULT:      -7.8      2.571      6.282
REMARK  9 active torsions:
REMARK  status: ('A' for Active; 'I' for Inactive)
REMARK       I    between atoms: C_2  and  N_3 
REMARK    1  A    between atoms: N_3  and  C_4 
REMARK    2  A    between atoms: C_4  and  C_5 
REMARK    3  A    between atoms: C_5  and  N_6 
REMARK       I    between atoms: N_6  and  C_7 
REMARK    4  A    between atoms: C_7  and  C_8 
REMARK    5  A    between atoms: C_8  and  C_9 
REMARK    6  A    between atoms: C_13  and  C_14 
REMARK    7  A    between atoms: C_14  and  O_15 
REMARK    8  A    between atoms: C_17  and  O_18 
REMARK    9  A    between atoms: C_25  and  C_26 
ROOT
HETATM    1  C   UNL     1      -6.784   2.282 -31.415  1.00  0.00     0.056 C 
HETATM    2  C   UNL     1      -7.264   0.768 -31.254  1.00  0.00    -0.030 C 
HETATM    3  C   UNL     1      -6.824   0.228 -29.852  1.00  0.00     0.016 C 
HETATM    4  C   UNL     1      -6.633  -0.209 -32.337  1.00  0.00     0.012 C 
HETATM    5  C   UNL     1      -7.319  -0.275 -33.768  1.00  0.00     0.008 C 
HETATM    6  C   UNL     1      -7.099  -1.728 -34.299  1.00  0.00     0.020 C 
HETATM    7  C   UNL     1      -8.865  -0.071 -33.667  1.00  0.00     0.128 C 
HETATM    8  C   UNL     1      -9.395  -0.313 -32.257  1.00  0.00     0.033 C 
HETATM    9  C   UNL     1      -8.823   0.714 -31.283  1.00  0.00     0.013 C 
HETATM   10  C   UNL     1      -5.083  -0.133 -32.364  1.00  0.00     0.054 C 
HETATM   11  C   UNL     1      -4.604   1.267 -32.262  1.00  0.00     0.010 A 
HETATM   12  C   UNL     1      -5.323   2.350 -31.807  1.00  0.00     0.054 A 
HETATM   13  N   UNL     1      -4.621   3.548 -31.813  1.00  0.00    -0.244 NA
HETATM   14  C   UNL     1      -3.430   3.379 -32.369  1.00  0.00     0.108 A 
HETATM   15  S   UNL     1      -3.038   1.734 -32.722  1.00  0.00    -0.072 SA
ENDROOT
BRANCH   1  16
HETATM   16  C   UNL     1      -7.103   3.123 -30.164  1.00  0.00     0.114 C 
BRANCH  16  17
HETATM   17  C   UNL     1      -7.800   4.440 -30.444  1.00  0.00     0.218 C 
HETATM   18  N   UNL     1      -6.945   5.461 -30.763  1.00  0.00    -0.359 N 
HETATM   19  H   UNL     1      -6.070   5.185 -31.213  1.00  0.00     0.162 HD
HETATM   20  O   UNL     1      -9.011   4.583 -30.303  1.00  0.00    -0.274 OA
BRANCH  18  21
HETATM   21  C   UNL     1      -7.362   6.842 -30.846  1.00  0.00     0.142 C 
BRANCH  21  22
HETATM   22  C   UNL     1      -7.545   7.351 -32.277  1.00  0.00     0.142 C 
BRANCH  22  23
HETATM   23  N   UNL     1      -8.621   6.653 -32.967  1.00  0.00    -0.360 N 
HETATM   24  C   UNL     1      -8.372   5.598 -33.814  1.00  0.00     0.213 C 
HETATM   25  C   UNL     1      -9.587   5.065 -34.524  1.00  0.00     0.117 C 
HETATM   26  O   UNL     1      -7.256   5.125 -34.001  1.00  0.00    -0.274 OA
HETATM   27  H   UNL     1      -9.545   7.063 -32.935  1.00  0.00     0.162 HD
ENDBRANCH  22  23
ENDBRANCH  21  22
ENDBRANCH  18  21
ENDBRANCH  16  17
ENDBRANCH   1  16
BRANCH   5  28
HETATM   28  C   UNL     1      -6.695   0.649 -34.846  1.00  0.00     0.176 C 
BRANCH  28  29
HETATM   29  O   UNL     1      -7.281   0.490 -36.123  1.00  0.00    -0.400 OA
HETATM   30  H   UNL     1      -8.098  -0.033 -35.967  1.00  0.00     0.209 HD
ENDBRANCH  28  29
ENDBRANCH   5  28
BRANCH  14  31
HETATM   31  C   UNL     1      -2.475   4.463 -32.661  1.00  0.00    -0.000 A 
HETATM   32  C   UNL     1      -1.817   5.113 -31.605  1.00  0.00     0.014 A 
HETATM   33  C   UNL     1      -0.939   6.174 -31.845  1.00  0.00     0.001 A 
HETATM   34  C   UNL     1      -0.700   6.603 -33.147  1.00  0.00     0.000 A 
HETATM   35  C   UNL     1      -1.340   5.974 -34.210  1.00  0.00     0.001 A 
HETATM   36  C   UNL     1      -2.223   4.916 -33.968  1.00  0.00     0.014 A 
ENDBRANCH  14  31
BRANCH   7  37
HETATM   37  O   UNL     1      -9.246   1.249 -34.072  1.00  0.00    -0.395 OA
HETATM   38  H   UNL     1     -10.215   1.313 -33.987  1.00  0.00     0.210 HD
ENDBRANCH   7  37
TORSDOF 9
ENDMDL
