MODEL 1
REMARK VINA RESULT:      -9.9      0.000      0.000
REMARK  8 active torsions:
REMARK  status: ('A' for Active; 'I' for Inactive)
REMARK    1  A    between atoms: C_3  and  C_4 
REMARK       I    between atoms: C_4  and  N_5 
REMARK    2  A    between atoms: N_5  and  C_6 
REMARK    3  A    between atoms: C_14  and  N_15 
REMARK       I    between atoms: N_15  and  C_16 
REMARK    4  A    between atoms: C_16  and  C_17 
REMARK       I    between atoms: C_17  and  N_18 
REMARK    5  A    between atoms: N_18  and  N_19 
REMARK    6  A    between atoms: C_20  and  C_21 
REMARK    7  A    between atoms: C_22  and  O_23 
REMARK    8  A    between atoms: C_25  and  O_26 
ROOT
HETATM    1  N   UNL     1      -4.333  -1.240 -33.275  1.00  0.00    -0.318 N 
HETATM    2  C   UNL     1      -3.499  -1.246 -32.180  1.00  0.00     0.315 C 
HETATM    3  O   UNL     1      -3.025  -2.206 -31.584  1.00  0.00    -0.262 OA
HETATM    4  H   UNL     1      -4.552  -0.312 -33.659  1.00  0.00     0.169 HD
ENDROOT
BRANCH   1   5
HETATM    5  C   UNL     1      -4.938  -2.347 -33.915  1.00  0.00     0.051 A 
HETATM    6  C   UNL     1      -6.249  -2.231 -34.428  1.00  0.00     0.059 A 
HETATM    7  C   UNL     1      -6.889  -3.345 -35.002  1.00  0.00     0.019 A 
HETATM    8  C   UNL     1      -6.220  -4.562 -35.108  1.00  0.00     0.001 A 
HETATM    9  C   UNL     1      -4.914  -4.672 -34.639  1.00  0.00     0.002 A 
HETATM   10  C   UNL     1      -4.281  -3.577 -34.044  1.00  0.00     0.030 A 
BRANCH   6  11
HETATM   11  C   UNL     1      -6.962  -0.920 -34.393  1.00  0.00     0.258 C 
HETATM   12  N   UNL     1      -7.884  -0.787 -33.369  1.00  0.00    -0.323 N 
HETATM   13  H   UNL     1      -8.046  -1.601 -32.788  1.00  0.00     0.169 HD
HETATM   14  O   UNL     1      -6.731  -0.111 -35.283  1.00  0.00    -0.267 OA
BRANCH  12  15
HETATM   15  C   UNL     1      -8.710   0.324 -33.099  1.00  0.00     0.035 A 
HETATM   16  C   UNL     1      -9.804   0.696 -33.885  1.00  0.00     0.031 A 
HETATM   17  C   UNL     1     -10.576   1.812 -33.543  1.00  0.00     0.026 A 
HETATM   18  C   UNL     1     -10.254   2.564 -32.417  1.00  0.00     0.034 A 
HETATM   19 CL   UNL     1     -11.204   3.934 -31.998  1.00  0.00    -0.084 Cl
HETATM   20  C   UNL     1      -9.165   2.208 -31.627  1.00  0.00     0.026 A 
HETATM   21  C   UNL     1      -8.395   1.093 -31.969  1.00  0.00     0.031 A 
ENDBRANCH  12  15
ENDBRANCH   6  11
ENDBRANCH   1   5
BRANCH   2  22
HETATM   22  C   UNL     1      -3.086   0.164 -31.722  1.00  0.00     0.329 C 
HETATM   23  N   UNL     1      -3.789   1.146 -32.398  1.00  0.00    -0.239 N 
HETATM   24  H   UNL     1      -4.462   0.846 -33.102  1.00  0.00     0.192 HD
HETATM   25  O   UNL     1      -2.246   0.310 -30.846  1.00  0.00    -0.261 OA
BRANCH  23  26
HETATM   26  N   UNL     1      -3.554   2.464 -32.161  1.00  0.00    -0.183 NA
HETATM   27  C   UNL     1      -2.878   3.075 -33.084  1.00  0.00     0.153 C 
BRANCH  27  28
HETATM   28  C   UNL     1      -2.519   4.499 -32.950  1.00  0.00     0.016 A 
HETATM   29  C   UNL     1      -1.800   4.988 -31.851  1.00  0.00     0.080 A 
HETATM   30  C   UNL     1      -1.459   6.337 -31.776  1.00  0.00     0.074 A 
HETATM   31  C   UNL     1      -1.849   7.195 -32.800  1.00  0.00     0.068 A 
HETATM   32  C   UNL     1      -2.570   6.726 -33.893  1.00  0.00     0.037 A 
HETATM   33  C   UNL     1      -2.905   5.372 -33.974  1.00  0.00     0.018 A 
BRANCH  29  34
HETATM   34  O   UNL     1      -1.390   4.199 -30.811  1.00  0.00    -0.360 OA
HETATM   35  H   UNL     1      -1.662   3.272 -31.000  1.00  0.00     0.217 HD
ENDBRANCH  29  34
BRANCH  31  36
HETATM   36  O   UNL     1      -1.539   8.522 -32.770  1.00  0.00    -0.361 OA
HETATM   37  H   UNL     1      -2.267   9.020 -33.179  1.00  0.00     0.217 HD
ENDBRANCH  31  36
ENDBRANCH  27  28
ENDBRANCH  23  26
ENDBRANCH   2  22
TORSDOF 8
ENDMDL
MODEL 2
REMARK VINA RESULT:      -9.2      1.392      1.554
REMARK  8 active torsions:
REMARK  status: ('A' for Active; 'I' for Inactive)
REMARK    1  A    between atoms: C_3  and  C_4 
REMARK       I    between atoms: C_4  and  N_5 
REMARK    2  A    between atoms: N_5  and  C_6 
REMARK    3  A    between atoms: C_14  and  N_15 
REMARK       I    between atoms: N_15  and  C_16 
REMARK    4  A    between atoms: C_16  and  C_17 
REMARK       I    between atoms: C_17  and  N_18 
REMARK    5  A    between atoms: N_18  and  N_19 
REMARK    6  A    between atoms: C_20  and  C_21 
REMARK    7  A    between atoms: C_22  and  O_23 
REMARK    8  A    between atoms: C_25  and  O_26 
ROOT
HETATM    1  N   UNL     1      -4.690  -0.350 -33.198  1.00  0.00    -0.318 N 
HETATM    2  C   UNL     1      -3.835  -0.316 -32.120  1.00  0.00     0.315 C 
HETATM    3  O   UNL     1      -3.319  -1.254 -31.523  1.00  0.00    -0.262 OA
HETATM    4  H   UNL     1      -4.946   0.566 -33.588  1.00  0.00     0.169 HD
ENDROOT
BRANCH   1   5
HETATM    5  C   UNL     1      -5.272  -1.483 -33.813  1.00  0.00     0.051 A 
HETATM    6  C   UNL     1      -6.677  -1.617 -33.853  1.00  0.00     0.059 A 
HETATM    7  C   UNL     1      -7.267  -2.772 -34.397  1.00  0.00     0.019 A 
HETATM    8  C   UNL     1      -6.470  -3.778 -34.940  1.00  0.00     0.001 A 
HETATM    9  C   UNL     1      -5.085  -3.635 -34.939  1.00  0.00     0.002 A 
HETATM   10  C   UNL     1      -4.492  -2.501 -34.377  1.00  0.00     0.030 A 
BRANCH   6  11
HETATM   11  C   UNL     1      -7.556  -0.523 -33.344  1.00  0.00     0.258 C 
HETATM   12  N   UNL     1      -8.434  -0.001 -34.279  1.00  0.00    -0.323 N 
HETATM   13  H   UNL     1      -8.355  -0.347 -35.227  1.00  0.00     0.169 HD
HETATM   14  O   UNL     1      -7.396  -0.139 -32.193  1.00  0.00    -0.267 OA
BRANCH  12  15
HETATM   15  C   UNL     1      -9.365   1.042 -34.090  1.00  0.00     0.035 A 
HETATM   16  C   UNL     1      -9.080   2.394 -34.295  1.00  0.00     0.031 A 
HETATM   17  C   UNL     1     -10.065   3.366 -34.089  1.00  0.00     0.026 A 
HETATM   18  C   UNL     1     -11.338   2.991 -33.672  1.00  0.00     0.034 A 
HETATM   19 CL   UNL     1     -12.548   4.186 -33.420  1.00  0.00    -0.084 Cl
HETATM   20  C   UNL     1     -11.637   1.648 -33.460  1.00  0.00     0.026 A 
HETATM   21  C   UNL     1     -10.653   0.678 -33.668  1.00  0.00     0.031 A 
ENDBRANCH  12  15
ENDBRANCH   6  11
ENDBRANCH   1   5
BRANCH   2  22
HETATM   22  C   UNL     1      -3.459   1.112 -31.686  1.00  0.00     0.329 C 
HETATM   23  N   UNL     1      -4.277   2.057 -32.279  1.00  0.00    -0.239 N 
HETATM   24  H   UNL     1      -4.997   1.725 -32.920  1.00  0.00     0.192 HD
HETATM   25  O   UNL     1      -2.548   1.298 -30.894  1.00  0.00    -0.261 OA
BRANCH  23  26
HETATM   26  N   UNL     1      -4.093   3.384 -32.050  1.00  0.00    -0.183 NA
HETATM   27  C   UNL     1      -3.106   3.921 -32.696  1.00  0.00     0.153 C 
BRANCH  27  28
HETATM   28  C   UNL     1      -2.766   5.346 -32.523  1.00  0.00     0.016 A 
HETATM   29  C   UNL     1      -2.953   6.016 -31.307  1.00  0.00     0.080 A 
HETATM   30  C   UNL     1      -2.593   7.356 -31.178  1.00  0.00     0.074 A 
HETATM   31  C   UNL     1      -2.057   8.025 -32.275  1.00  0.00     0.068 A 
HETATM   32  C   UNL     1      -1.873   7.375 -33.491  1.00  0.00     0.037 A 
HETATM   33  C   UNL     1      -2.224   6.029 -33.618  1.00  0.00     0.018 A 
BRANCH  29  34
HETATM   34  O   UNL     1      -3.477   5.419 -30.193  1.00  0.00    -0.360 OA
HETATM   35  H   UNL     1      -4.025   4.654 -30.481  1.00  0.00     0.217 HD
ENDBRANCH  29  34
BRANCH  31  36
HETATM   36  O   UNL     1      -1.692   9.336 -32.197  1.00  0.00    -0.361 OA
HETATM   37  H   UNL     1      -1.661   9.594 -31.260  1.00  0.00     0.217 HD
ENDBRANCH  31  36
ENDBRANCH  27  28
ENDBRANCH  23  26
ENDBRANCH   2  22
TORSDOF 8
ENDMDL
MODEL 3
REMARK VINA RESULT:      -9.1      4.153      9.154
REMARK  8 active torsions:
REMARK  status: ('A' for Active; 'I' for Inactive)
REMARK    1  A    between atoms: C_3  and  C_4 
REMARK       I    between atoms: C_4  and  N_5 
REMARK    2  A    between atoms: N_5  and  C_6 
REMARK    3  A    between atoms: C_14  and  N_15 
REMARK       I    between atoms: N_15  and  C_16 
REMARK    4  A    between atoms: C_16  and  C_17 
REMARK       I    between atoms: C_17  and  N_18 
REMARK    5  A    between atoms: N_18  and  N_19 
REMARK    6  A    between atoms: C_20  and  C_21 
REMARK    7  A    between atoms: C_22  and  O_23 
REMARK    8  A    between atoms: C_25  and  O_26 
ROOT
HETATM    1  N   UNL     1      -6.791   2.897 -31.576  1.00  0.00    -0.318 N 
HETATM    2  C   UNL     1      -7.626   2.644 -32.641  1.00  0.00     0.315 C 
HETATM    3  O   UNL     1      -7.356   2.624 -33.836  1.00  0.00    -0.262 OA
HETATM    4  H   UNL     1      -7.216   2.790 -30.646  1.00  0.00     0.169 HD
ENDROOT
BRANCH   1   5
HETATM    5  C   UNL     1      -5.437   3.304 -31.608  1.00  0.00     0.051 A 
HETATM    6  C   UNL     1      -4.416   2.337 -31.743  1.00  0.00     0.059 A 
HETATM    7  C   UNL     1      -3.063   2.720 -31.703  1.00  0.00     0.019 A 
HETATM    8  C   UNL     1      -2.718   4.063 -31.571  1.00  0.00     0.001 A 
HETATM    9  C   UNL     1      -3.719   5.025 -31.476  1.00  0.00     0.002 A 
HETATM   10  C   UNL     1      -5.066   4.649 -31.490  1.00  0.00     0.030 A 
BRANCH   6  11
HETATM   11  C   UNL     1      -4.759   0.899 -31.957  1.00  0.00     0.258 C 
HETATM   12  N   UNL     1      -5.003   0.551 -33.275  1.00  0.00    -0.323 N 
HETATM   13  H   UNL     1      -5.002   1.300 -33.956  1.00  0.00     0.169 HD
HETATM   14  O   UNL     1      -4.856   0.175 -30.975  1.00  0.00    -0.267 OA
BRANCH  12  15
HETATM   15  C   UNL     1      -5.361  -0.719 -33.772  1.00  0.00     0.035 A 
HETATM   16  C   UNL     1      -6.656  -1.074 -34.157  1.00  0.00     0.031 A 
HETATM   17  C   UNL     1      -6.925  -2.358 -34.646  1.00  0.00     0.026 A 
HETATM   18  C   UNL     1      -5.900  -3.294 -34.746  1.00  0.00     0.034 A 
HETATM   19 CL   UNL     1      -6.232  -4.870 -35.346  1.00  0.00    -0.084 Cl
HETATM   20  C   UNL     1      -4.605  -2.957 -34.362  1.00  0.00     0.026 A 
HETATM   21  C   UNL     1      -4.338  -1.674 -33.875  1.00  0.00     0.031 A 
ENDBRANCH  12  15
ENDBRANCH   6  11
ENDBRANCH   1   5
BRANCH   2  22
HETATM   22  C   UNL     1      -9.061   2.283 -32.218  1.00  0.00     0.329 C 
HETATM   23  N   UNL     1      -9.874   2.055 -33.314  1.00  0.00    -0.239 N 
HETATM   24  H   UNL     1      -9.461   2.158 -34.240  1.00  0.00     0.192 HD
HETATM   25  O   UNL     1      -9.357   2.209 -31.034  1.00  0.00    -0.261 OA
BRANCH  23  26
HETATM   26  N   UNL     1     -11.190   1.749 -33.158  1.00  0.00    -0.183 NA
HETATM   27  C   UNL     1     -11.997   2.762 -33.207  1.00  0.00     0.153 C 
BRANCH  27  28
HETATM   28  C   UNL     1     -13.450   2.588 -33.022  1.00  0.00     0.016 A 
HETATM   29  C   UNL     1     -14.160   1.539 -33.621  1.00  0.00     0.080 A 
HETATM   30  C   UNL     1     -15.528   1.396 -33.399  1.00  0.00     0.074 A 
HETATM   31  C   UNL     1     -16.184   2.314 -32.584  1.00  0.00     0.068 A 
HETATM   32  C   UNL     1     -15.494   3.366 -31.989  1.00  0.00     0.037 A 
HETATM   33  C   UNL     1     -14.121   3.504 -32.203  1.00  0.00     0.018 A 
BRANCH  29  34
HETATM   34  O   UNL     1     -13.576   0.606 -34.434  1.00  0.00    -0.360 OA
HETATM   35  H   UNL     1     -12.897   1.058 -34.986  1.00  0.00     0.217 HD
ENDBRANCH  29  34
BRANCH  31  36
HETATM   36  O   UNL     1     -17.521   2.216 -32.339  1.00  0.00    -0.361 OA
HETATM   37  H   UNL     1     -17.889   1.514 -32.903  1.00  0.00     0.217 HD
ENDBRANCH  31  36
ENDBRANCH  27  28
ENDBRANCH  23  26
ENDBRANCH   2  22
TORSDOF 8
ENDMDL
MODEL 4
REMARK VINA RESULT:      -9.0      3.667      8.675
REMARK  8 active torsions:
REMARK  status: ('A' for Active; 'I' for Inactive)
REMARK    1  A    between atoms: C_3  and  C_4 
REMARK       I    between atoms: C_4  and  N_5 
REMARK    2  A    between atoms: N_5  and  C_6 
REMARK    3  A    between atoms: C_14  and  N_15 
REMARK       I    between atoms: N_15  and  C_16 
REMARK    4  A    between atoms: C_16  and  C_17 
REMARK       I    between atoms: C_17  and  N_18 
REMARK    5  A    between atoms: N_18  and  N_19 
REMARK    6  A    between atoms: C_20  and  C_21 
REMARK    7  A    between atoms: C_22  and  O_23 
REMARK    8  A    between atoms: C_25  and  O_26 
ROOT
HETATM    1  N   UNL     1      -6.460   3.657 -31.432  1.00  0.00    -0.318 N 
HETATM    2  C   UNL     1      -7.269   3.806 -30.328  1.00  0.00     0.315 C 
HETATM    3  O   UNL     1      -6.988   4.270 -29.229  1.00  0.00    -0.262 OA
HETATM    4  H   UNL     1      -6.927   3.308 -32.279  1.00  0.00     0.169 HD
ENDROOT
BRANCH   1   5
HETATM    5  C   UNL     1      -5.072   3.906 -31.533  1.00  0.00     0.051 A 
HETATM    6  C   UNL     1      -4.175   2.826 -31.692  1.00  0.00     0.059 A 
HETATM    7  C   UNL     1      -2.787   3.052 -31.721  1.00  0.00     0.019 A 
HETATM    8  C   UNL     1      -2.285   4.349 -31.636  1.00  0.00     0.001 A 
HETATM    9  C   UNL     1      -3.164   5.421 -31.518  1.00  0.00     0.002 A 
HETATM   10  C   UNL     1      -4.544   5.201 -31.463  1.00  0.00     0.030 A 
BRANCH   6  11
HETATM   11  C   UNL     1      -4.689   1.434 -31.858  1.00  0.00     0.258 C 
HETATM   12  N   UNL     1      -4.809   1.012 -33.171  1.00  0.00    -0.323 N 
HETATM   13  H   UNL     1      -4.613   1.694 -33.893  1.00  0.00     0.169 HD
HETATM   14  O   UNL     1      -5.014   0.813 -30.854  1.00  0.00    -0.267 OA
BRANCH  12  15
HETATM   15  C   UNL     1      -5.277  -0.237 -33.629  1.00  0.00     0.035 A 
HETATM   16  C   UNL     1      -6.583  -0.471 -34.068  1.00  0.00     0.031 A 
HETATM   17  C   UNL     1      -6.965  -1.743 -34.512  1.00  0.00     0.026 A 
HETATM   18  C   UNL     1      -6.044  -2.786 -34.515  1.00  0.00     0.034 A 
HETATM   19 CL   UNL     1      -6.515  -4.346 -35.061  1.00  0.00    -0.084 Cl
HETATM   20  C   UNL     1      -4.741  -2.569 -34.076  1.00  0.00     0.026 A 
HETATM   21  C   UNL     1      -4.361  -1.299 -33.634  1.00  0.00     0.031 A 
ENDBRANCH  12  15
ENDBRANCH   6  11
ENDBRANCH   1   5
BRANCH   2  22
HETATM   22  C   UNL     1      -8.725   3.374 -30.579  1.00  0.00     0.329 C 
HETATM   23  N   UNL     1      -8.792   2.232 -31.357  1.00  0.00    -0.239 N 
HETATM   24  H   UNL     1      -7.914   1.826 -31.678  1.00  0.00     0.192 HD
HETATM   25  O   UNL     1      -9.651   4.008 -30.094  1.00  0.00    -0.261 OA
BRANCH  23  26
HETATM   26  N   UNL     1      -9.990   1.701 -31.719  1.00  0.00    -0.183 NA
HETATM   27  C   UNL     1     -10.391   2.013 -32.911  1.00  0.00     0.153 C 
BRANCH  27  28
HETATM   28  C   UNL     1     -11.687   1.536 -33.430  1.00  0.00     0.016 A 
HETATM   29  C   UNL     1     -12.080   0.194 -33.339  1.00  0.00     0.080 A 
HETATM   30  C   UNL     1     -13.324  -0.210 -33.818  1.00  0.00     0.074 A 
HETATM   31  C   UNL     1     -14.168   0.733 -34.398  1.00  0.00     0.068 A 
HETATM   32  C   UNL     1     -13.789   2.067 -34.502  1.00  0.00     0.037 A 
HETATM   33  C   UNL     1     -12.546   2.475 -34.014  1.00  0.00     0.018 A 
BRANCH  29  34
HETATM   34  O   UNL     1     -11.297  -0.781 -32.784  1.00  0.00    -0.360 OA
HETATM   35  H   UNL     1     -10.472  -0.362 -32.447  1.00  0.00     0.217 HD
ENDBRANCH  29  34
BRANCH  31  36
HETATM   36  O   UNL     1     -15.394   0.385 -34.881  1.00  0.00    -0.361 OA
HETATM   37  H   UNL     1     -15.984   0.204 -34.129  1.00  0.00     0.217 HD
ENDBRANCH  31  36
ENDBRANCH  27  28
ENDBRANCH  23  26
ENDBRANCH   2  22
TORSDOF 8
ENDMDL
MODEL 5
REMARK VINA RESULT:      -8.9      3.691      8.229
REMARK  8 active torsions:
REMARK  status: ('A' for Active; 'I' for Inactive)
REMARK    1  A    between atoms: C_3  and  C_4 
REMARK       I    between atoms: C_4  and  N_5 
REMARK    2  A    between atoms: N_5  and  C_6 
REMARK    3  A    between atoms: C_14  and  N_15 
REMARK       I    between atoms: N_15  and  C_16 
REMARK    4  A    between atoms: C_16  and  C_17 
REMARK       I    between atoms: C_17  and  N_18 
REMARK    5  A    between atoms: N_18  and  N_19 
REMARK    6  A    between atoms: C_20  and  C_21 
REMARK    7  A    between atoms: C_22  and  O_23 
REMARK    8  A    between atoms: C_25  and  O_26 
ROOT
HETATM    1  N   UNL     1      -7.512  -0.867 -33.873  1.00  0.00    -0.318 N 
HETATM    2  C   UNL     1      -7.677   0.311 -34.566  1.00  0.00     0.315 C 
HETATM    3  O   UNL     1      -6.988   0.771 -35.469  1.00  0.00    -0.262 OA
HETATM    4  H   UNL     1      -8.255  -1.092 -33.199  1.00  0.00     0.169 HD
ENDROOT
BRANCH   1   5
HETATM    5  C   UNL     1      -6.440  -1.786 -33.961  1.00  0.00     0.051 A 
HETATM    6  C   UNL     1      -5.226  -1.514 -33.293  1.00  0.00     0.059 A 
HETATM    7  C   UNL     1      -4.128  -2.383 -33.430  1.00  0.00     0.019 A 
HETATM    8  C   UNL     1      -4.242  -3.543 -34.194  1.00  0.00     0.001 A 
HETATM    9  C   UNL     1      -5.447  -3.836 -34.824  1.00  0.00     0.002 A 
HETATM   10  C   UNL     1      -6.535  -2.964 -34.712  1.00  0.00     0.030 A 
BRANCH   6  11
HETATM   11  C   UNL     1      -5.099  -0.317 -32.410  1.00  0.00     0.258 C 
HETATM   12  N   UNL     1      -4.781   0.859 -33.068  1.00  0.00    -0.323 N 
HETATM   13  H   UNL     1      -4.593   0.794 -34.060  1.00  0.00     0.169 HD
HETATM   14  O   UNL     1      -5.219  -0.473 -31.201  1.00  0.00    -0.267 OA
BRANCH  12  15
HETATM   15  C   UNL     1      -4.584   2.133 -32.496  1.00  0.00     0.035 A 
HETATM   16  C   UNL     1      -5.604   3.065 -32.288  1.00  0.00     0.031 A 
HETATM   17  C   UNL     1      -5.323   4.308 -31.709  1.00  0.00     0.026 A 
HETATM   18  C   UNL     1      -4.019   4.626 -31.341  1.00  0.00     0.034 A 
HETATM   19 CL   UNL     1      -3.675   6.153 -30.630  1.00  0.00    -0.084 Cl
HETATM   20  C   UNL     1      -2.991   3.711 -31.547  1.00  0.00     0.026 A 
HETATM   21  C   UNL     1      -3.274   2.469 -32.124  1.00  0.00     0.031 A 
ENDBRANCH  12  15
ENDBRANCH   6  11
ENDBRANCH   1   5
BRANCH   2  22
HETATM   22  C   UNL     1      -8.943   1.085 -34.157  1.00  0.00     0.329 C 
HETATM   23  N   UNL     1      -9.842   0.274 -33.487  1.00  0.00    -0.239 N 
HETATM   24  H   UNL     1      -9.589  -0.705 -33.355  1.00  0.00     0.192 HD
HETATM   25  O   UNL     1      -9.051   2.275 -34.413  1.00  0.00    -0.261 OA
BRANCH  23  26
HETATM   26  N   UNL     1     -11.040   0.757 -33.064  1.00  0.00    -0.183 NA
HETATM   27  C   UNL     1     -12.013   0.628 -33.909  1.00  0.00     0.153 C 
BRANCH  27  28
HETATM   28  C   UNL     1     -13.364   1.135 -33.602  1.00  0.00     0.016 A 
HETATM   29  C   UNL     1     -13.575   2.228 -32.750  1.00  0.00     0.080 A 
HETATM   30  C   UNL     1     -14.867   2.691 -32.506  1.00  0.00     0.074 A 
HETATM   31  C   UNL     1     -15.945   2.051 -33.110  1.00  0.00     0.068 A 
HETATM   32  C   UNL     1     -15.751   0.960 -33.952  1.00  0.00     0.037 A 
HETATM   33  C   UNL     1     -14.456   0.500 -34.204  1.00  0.00     0.018 A 
BRANCH  29  34
HETATM   34  O   UNL     1     -12.561   2.899 -32.124  1.00  0.00    -0.360 OA
HETATM   35  H   UNL     1     -12.413   3.749 -32.598  1.00  0.00     0.217 HD
ENDBRANCH  29  34
BRANCH  31  36
HETATM   36  O   UNL     1     -17.225   2.468 -32.901  1.00  0.00    -0.361 OA
HETATM   37  H   UNL     1     -17.655   1.850 -32.284  1.00  0.00     0.217 HD
ENDBRANCH  31  36
ENDBRANCH  27  28
ENDBRANCH  23  26
ENDBRANCH   2  22
TORSDOF 8
ENDMDL
MODEL 6
REMARK VINA RESULT:      -8.8      3.228      5.724
REMARK  8 active torsions:
REMARK  status: ('A' for Active; 'I' for Inactive)
REMARK    1  A    between atoms: C_3  and  C_4 
REMARK       I    between atoms: C_4  and  N_5 
REMARK    2  A    between atoms: N_5  and  C_6 
REMARK    3  A    between atoms: C_14  and  N_15 
REMARK       I    between atoms: N_15  and  C_16 
REMARK    4  A    between atoms: C_16  and  C_17 
REMARK       I    between atoms: C_17  and  N_18 
REMARK    5  A    between atoms: N_18  and  N_19 
REMARK    6  A    between atoms: C_20  and  C_21 
REMARK    7  A    between atoms: C_22  and  O_23 
REMARK    8  A    between atoms: C_25  and  O_26 
ROOT
HETATM    1  N   UNL     1      -6.967   3.218 -32.833  1.00  0.00    -0.318 N 
HETATM    2  C   UNL     1      -5.905   3.814 -33.475  1.00  0.00     0.315 C 
HETATM    3  O   UNL     1      -5.868   4.304 -34.598  1.00  0.00    -0.262 OA
HETATM    4  H   UNL     1      -6.795   2.938 -31.859  1.00  0.00     0.169 HD
ENDROOT
BRANCH   1   5
HETATM    5  C   UNL     1      -8.249   2.926 -33.355  1.00  0.00     0.051 A 
HETATM    6  C   UNL     1      -8.614   1.587 -33.614  1.00  0.00     0.059 A 
HETATM    7  C   UNL     1      -9.857   1.288 -34.201  1.00  0.00     0.019 A 
HETATM    8  C   UNL     1     -10.758   2.310 -34.494  1.00  0.00     0.001 A 
HETATM    9  C   UNL     1     -10.421   3.629 -34.206  1.00  0.00     0.002 A 
HETATM   10  C   UNL     1      -9.176   3.935 -33.646  1.00  0.00     0.030 A 
BRANCH   6  11
HETATM   11  C   UNL     1      -7.698   0.467 -33.244  1.00  0.00     0.258 C 
HETATM   12  N   UNL     1      -7.195  -0.251 -34.316  1.00  0.00    -0.323 N 
HETATM   13  H   UNL     1      -7.544  -0.008 -35.235  1.00  0.00     0.169 HD
HETATM   14  O   UNL     1      -7.516   0.237 -32.056  1.00  0.00    -0.267 OA
BRANCH  12  15
HETATM   15  C   UNL     1      -6.327  -1.361 -34.271  1.00  0.00     0.035 A 
HETATM   16  C   UNL     1      -6.670  -2.642 -34.709  1.00  0.00     0.031 A 
HETATM   17  C   UNL     1      -5.745  -3.690 -34.633  1.00  0.00     0.026 A 
HETATM   18  C   UNL     1      -4.475  -3.461 -34.113  1.00  0.00     0.034 A 
HETATM   19 CL   UNL     1      -3.339  -4.749 -34.020  1.00  0.00    -0.084 Cl
HETATM   20  C   UNL     1      -4.119  -2.191 -33.668  1.00  0.00     0.026 A 
HETATM   21  C   UNL     1      -5.044  -1.146 -33.746  1.00  0.00     0.031 A 
ENDBRANCH  12  15
ENDBRANCH   6  11
ENDBRANCH   1   5
BRANCH   2  22
HETATM   22  C   UNL     1      -4.642   3.908 -32.602  1.00  0.00     0.329 C 
HETATM   23  N   UNL     1      -4.018   5.136 -32.738  1.00  0.00    -0.239 N 
HETATM   24  H   UNL     1      -4.434   5.809 -33.381  1.00  0.00     0.192 HD
HETATM   25  O   UNL     1      -4.311   2.973 -31.889  1.00  0.00    -0.261 OA
BRANCH  23  26
HETATM   26  N   UNL     1      -2.866   5.413 -32.072  1.00  0.00    -0.183 NA
HETATM   27  C   UNL     1      -2.996   6.213 -31.061  1.00  0.00     0.153 C 
BRANCH  27  28
HETATM   28  C   UNL     1      -1.828   6.630 -30.263  1.00  0.00     0.016 A 
HETATM   29  C   UNL     1      -0.731   5.786 -30.046  1.00  0.00     0.080 A 
HETATM   30  C   UNL     1       0.364   6.228 -29.307  1.00  0.00     0.074 A 
HETATM   31  C   UNL     1       0.352   7.515 -28.778  1.00  0.00     0.068 A 
HETATM   32  C   UNL     1      -0.733   8.363 -28.978  1.00  0.00     0.037 A 
HETATM   33  C   UNL     1      -1.828   7.923 -29.726  1.00  0.00     0.018 A 
BRANCH  29  34
HETATM   34  O   UNL     1      -0.658   4.510 -30.536  1.00  0.00    -0.360 OA
HETATM   35  H   UNL     1      -0.327   4.553 -31.462  1.00  0.00     0.217 HD
ENDBRANCH  29  34
BRANCH  31  36
HETATM   36  O   UNL     1       1.400   7.992 -28.048  1.00  0.00    -0.361 OA
HETATM   37  H   UNL     1       1.123   8.815 -27.609  1.00  0.00     0.217 HD
ENDBRANCH  31  36
ENDBRANCH  27  28
ENDBRANCH  23  26
ENDBRANCH   2  22
TORSDOF 8
ENDMDL
MODEL 7
REMARK VINA RESULT:      -8.7      3.289      6.005
REMARK  8 active torsions:
REMARK  status: ('A' for Active; 'I' for Inactive)
REMARK    1  A    between atoms: C_3  and  C_4 
REMARK       I    between atoms: C_4  and  N_5 
REMARK    2  A    between atoms: N_5  and  C_6 
REMARK    3  A    between atoms: C_14  and  N_15 
REMARK       I    between atoms: N_15  and  C_16 
REMARK    4  A    between atoms: C_16  and  C_17 
REMARK       I    between atoms: C_17  and  N_18 
REMARK    5  A    between atoms: N_18  and  N_19 
REMARK    6  A    between atoms: C_20  and  C_21 
REMARK    7  A    between atoms: C_22  and  O_23 
REMARK    8  A    between atoms: C_25  and  O_26 
ROOT
HETATM    1  N   UNL     1      -9.250   3.586 -32.772  1.00  0.00    -0.318 N 
HETATM    2  C   UNL     1      -8.527   4.498 -33.508  1.00  0.00     0.315 C 
HETATM    3  O   UNL     1      -8.796   4.985 -34.600  1.00  0.00    -0.262 OA
HETATM    4  H   UNL     1      -8.870   3.367 -31.842  1.00  0.00     0.169 HD
ENDROOT
BRANCH   1   5
HETATM    5  C   UNL     1     -10.430   2.904 -33.147  1.00  0.00     0.051 A 
HETATM    6  C   UNL     1     -10.415   1.498 -33.286  1.00  0.00     0.059 A 
HETATM    7  C   UNL     1     -11.562   0.814 -33.729  1.00  0.00     0.019 A 
HETATM    8  C   UNL     1     -12.737   1.513 -33.994  1.00  0.00     0.001 A 
HETATM    9  C   UNL     1     -12.771   2.894 -33.822  1.00  0.00     0.002 A 
HETATM   10  C   UNL     1     -11.627   3.583 -33.407  1.00  0.00     0.030 A 
BRANCH   6  11
HETATM   11  C   UNL     1      -9.191   0.717 -32.939  1.00  0.00     0.258 C 
HETATM   12  N   UNL     1      -8.507   0.197 -34.025  1.00  0.00    -0.323 N 
HETATM   13  H   UNL     1      -8.927   0.325 -34.937  1.00  0.00     0.169 HD
HETATM   14  O   UNL     1      -8.928   0.547 -31.756  1.00  0.00    -0.267 OA
BRANCH  12  15
HETATM   15  C   UNL     1      -7.336  -0.589 -34.002  1.00  0.00     0.035 A 
HETATM   16  C   UNL     1      -6.123  -0.172 -33.450  1.00  0.00     0.031 A 
HETATM   17  C   UNL     1      -5.008  -1.018 -33.464  1.00  0.00     0.026 A 
HETATM   18  C   UNL     1      -5.100  -2.283 -34.036  1.00  0.00     0.034 A 
HETATM   19 CL   UNL     1      -3.730  -3.321 -34.053  1.00  0.00    -0.084 Cl
HETATM   20  C   UNL     1      -6.301  -2.711 -34.595  1.00  0.00     0.026 A 
HETATM   21  C   UNL     1      -7.414  -1.866 -34.579  1.00  0.00     0.031 A 
ENDBRANCH  12  15
ENDBRANCH   6  11
ENDBRANCH   1   5
BRANCH   2  22
HETATM   22  C   UNL     1      -7.254   4.985 -32.793  1.00  0.00     0.329 C 
HETATM   23  N   UNL     1      -6.411   5.661 -33.657  1.00  0.00    -0.239 N 
HETATM   24  H   UNL     1      -6.701   5.748 -34.630  1.00  0.00     0.192 HD
HETATM   25  O   UNL     1      -7.096   4.775 -31.600  1.00  0.00    -0.261 OA
BRANCH  23  26
HETATM   26  N   UNL     1      -5.216   6.149 -33.230  1.00  0.00    -0.183 NA
HETATM   27  C   UNL     1      -4.254   5.282 -33.184  1.00  0.00     0.153 C 
BRANCH  27  28
HETATM   28  C   UNL     1      -2.909   5.658 -32.710  1.00  0.00     0.016 A 
HETATM   29  C   UNL     1      -2.081   6.531 -33.428  1.00  0.00     0.080 A 
HETATM   30  C   UNL     1      -0.827   6.882 -32.931  1.00  0.00     0.074 A 
HETATM   31  C   UNL     1      -0.402   6.346 -31.719  1.00  0.00     0.068 A 
HETATM   32  C   UNL     1      -1.210   5.472 -30.999  1.00  0.00     0.037 A 
HETATM   33  C   UNL     1      -2.470   5.127 -31.491  1.00  0.00     0.018 A 
BRANCH  29  34
HETATM   34  O   UNL     1      -2.438   7.090 -34.625  1.00  0.00    -0.360 OA
HETATM   35  H   UNL     1      -1.935   6.636 -35.340  1.00  0.00     0.217 HD
ENDBRANCH  29  34
BRANCH  31  36
HETATM   36  O   UNL     1       0.816   6.659 -31.194  1.00  0.00    -0.361 OA
HETATM   37  H   UNL     1       0.863   7.623 -31.072  1.00  0.00     0.217 HD
ENDBRANCH  31  36
ENDBRANCH  27  28
ENDBRANCH  23  26
ENDBRANCH   2  22
TORSDOF 8
ENDMDL
MODEL 8
REMARK VINA RESULT:      -8.7      2.548      8.002
REMARK  8 active torsions:
REMARK  status: ('A' for Active; 'I' for Inactive)
REMARK    1  A    between atoms: C_3  and  C_4 
REMARK       I    between atoms: C_4  and  N_5 
REMARK    2  A    between atoms: N_5  and  C_6 
REMARK    3  A    between atoms: C_14  and  N_15 
REMARK       I    between atoms: N_15  and  C_16 
REMARK    4  A    between atoms: C_16  and  C_17 
REMARK       I    between atoms: C_17  and  N_18 
REMARK    5  A    between atoms: N_18  and  N_19 
REMARK    6  A    between atoms: C_20  and  C_21 
REMARK    7  A    between atoms: C_22  and  O_23 
REMARK    8  A    between atoms: C_25  and  O_26 
ROOT
HETATM    1  N   UNL     1      -2.555   3.859 -32.140  1.00  0.00    -0.318 N 
HETATM    2  C   UNL     1      -3.573   3.355 -31.361  1.00  0.00     0.315 C 
HETATM    3  O   UNL     1      -4.301   3.950 -30.576  1.00  0.00    -0.262 OA
HETATM    4  H   UNL     1      -2.119   3.189 -32.786  1.00  0.00     0.169 HD
ENDROOT
BRANCH   1   5
HETATM    5  C   UNL     1      -2.028   5.171 -32.142  1.00  0.00     0.051 A 
HETATM    6  C   UNL     1      -2.714   6.202 -32.822  1.00  0.00     0.059 A 
HETATM    7  C   UNL     1      -2.165   7.495 -32.894  1.00  0.00     0.019 A 
HETATM    8  C   UNL     1      -0.958   7.782 -32.259  1.00  0.00     0.001 A 
HETATM    9  C   UNL     1      -0.296   6.780 -31.555  1.00  0.00     0.002 A 
HETATM   10  C   UNL     1      -0.824   5.486 -31.501  1.00  0.00     0.030 A 
BRANCH   6  11
HETATM   11  C   UNL     1      -4.043   5.941 -33.450  1.00  0.00     0.258 C 
HETATM   12  N   UNL     1      -5.126   6.083 -32.598  1.00  0.00    -0.323 N 
HETATM   13  H   UNL     1      -4.922   6.274 -31.625  1.00  0.00     0.169 HD
HETATM   14  O   UNL     1      -4.070   5.571 -34.616  1.00  0.00    -0.267 OA
BRANCH  12  15
HETATM   15  C   UNL     1      -6.488   5.887 -32.905  1.00  0.00     0.035 A 
HETATM   16  C   UNL     1      -6.976   4.813 -33.654  1.00  0.00     0.031 A 
HETATM   17  C   UNL     1      -8.346   4.691 -33.910  1.00  0.00     0.026 A 
HETATM   18  C   UNL     1      -9.234   5.644 -33.422  1.00  0.00     0.034 A 
HETATM   19 CL   UNL     1     -10.917   5.493 -33.737  1.00  0.00    -0.084 Cl
HETATM   20  C   UNL     1      -8.763   6.722 -32.678  1.00  0.00     0.026 A 
HETATM   21  C   UNL     1      -7.394   6.843 -32.422  1.00  0.00     0.031 A 
ENDBRANCH  12  15
ENDBRANCH   6  11
ENDBRANCH   1   5
BRANCH   2  22
HETATM   22  C   UNL     1      -3.830   1.855 -31.592  1.00  0.00     0.329 C 
HETATM   23  N   UNL     1      -5.053   1.635 -32.200  1.00  0.00    -0.239 N 
HETATM   24  H   UNL     1      -5.632   2.448 -32.408  1.00  0.00     0.192 HD
HETATM   25  O   UNL     1      -2.993   1.026 -31.267  1.00  0.00    -0.261 OA
BRANCH  23  26
HETATM   26  N   UNL     1      -5.485   0.374 -32.468  1.00  0.00    -0.183 NA
HETATM   27  C   UNL     1      -5.016  -0.147 -33.557  1.00  0.00     0.153 C 
BRANCH  27  28
HETATM   28  C   UNL     1      -5.421  -1.497 -33.993  1.00  0.00     0.016 A 
HETATM   29  C   UNL     1      -6.763  -1.844 -34.201  1.00  0.00     0.080 A 
HETATM   30  C   UNL     1      -7.100  -3.123 -34.639  1.00  0.00     0.074 A 
HETATM   31  C   UNL     1      -6.091  -4.056 -34.856  1.00  0.00     0.068 A 
HETATM   32  C   UNL     1      -4.755  -3.729 -34.646  1.00  0.00     0.037 A 
HETATM   33  C   UNL     1      -4.414  -2.444 -34.217  1.00  0.00     0.018 A 
BRANCH  29  34
HETATM   34  O   UNL     1      -7.802  -0.976 -34.003  1.00  0.00    -0.360 OA
HETATM   35  H   UNL     1      -7.452  -0.171 -33.557  1.00  0.00     0.217 HD
ENDBRANCH  29  34
BRANCH  31  36
HETATM   36  O   UNL     1      -6.373  -5.319 -35.283  1.00  0.00    -0.361 OA
HETATM   37  H   UNL     1      -7.060  -5.695 -34.706  1.00  0.00     0.217 HD
ENDBRANCH  31  36
ENDBRANCH  27  28
ENDBRANCH  23  26
ENDBRANCH   2  22
TORSDOF 8
ENDMDL
MODEL 9
REMARK VINA RESULT:      -8.5      3.096      5.717
REMARK  8 active torsions:
REMARK  status: ('A' for Active; 'I' for Inactive)
REMARK    1  A    between atoms: C_3  and  C_4 
REMARK       I    between atoms: C_4  and  N_5 
REMARK    2  A    between atoms: N_5  and  C_6 
REMARK    3  A    between atoms: C_14  and  N_15 
REMARK       I    between atoms: N_15  and  C_16 
REMARK    4  A    between atoms: C_16  and  C_17 
REMARK       I    between atoms: C_17  and  N_18 
REMARK    5  A    between atoms: N_18  and  N_19 
REMARK    6  A    between atoms: C_20  and  C_21 
REMARK    7  A    between atoms: C_22  and  O_23 
REMARK    8  A    between atoms: C_25  and  O_26 
ROOT
HETATM    1  N   UNL     1      -8.631   3.331 -32.344  1.00  0.00    -0.318 N 
HETATM    2  C   UNL     1      -8.580   3.503 -30.979  1.00  0.00     0.315 C 
HETATM    3  O   UNL     1      -9.449   3.272 -30.146  1.00  0.00    -0.262 OA
HETATM    4  H   UNL     1      -7.755   3.522 -32.847  1.00  0.00     0.169 HD
ENDROOT
BRANCH   1   5
HETATM    5  C   UNL     1      -9.740   2.947 -33.133  1.00  0.00     0.051 A 
HETATM    6  C   UNL     1      -9.823   1.628 -33.633  1.00  0.00     0.059 A 
HETATM    7  C   UNL     1     -10.884   1.253 -34.478  1.00  0.00     0.019 A 
HETATM    8  C   UNL     1     -11.885   2.168 -34.797  1.00  0.00     0.001 A 
HETATM    9  C   UNL     1     -11.829   3.458 -34.276  1.00  0.00     0.002 A 
HETATM   10  C   UNL     1     -10.765   3.845 -33.456  1.00  0.00     0.030 A 
BRANCH   6  11
HETATM   11  C   UNL     1      -8.804   0.608 -33.249  1.00  0.00     0.258 C 
HETATM   12  N   UNL     1      -7.953   0.224 -34.272  1.00  0.00    -0.323 N 
HETATM   13  H   UNL     1      -8.139   0.604 -35.191  1.00  0.00     0.169 HD
HETATM   14  O   UNL     1      -8.836   0.155 -32.112  1.00  0.00    -0.267 OA
BRANCH  12  15
HETATM   15  C   UNL     1      -6.912  -0.725 -34.208  1.00  0.00     0.035 A 
HETATM   16  C   UNL     1      -5.642  -0.461 -33.688  1.00  0.00     0.031 A 
HETATM   17  C   UNL     1      -4.665  -1.464 -33.658  1.00  0.00     0.026 A 
HETATM   18  C   UNL     1      -4.953  -2.732 -34.151  1.00  0.00     0.034 A 
HETATM   19 CL   UNL     1      -3.752  -3.962 -34.113  1.00  0.00    -0.084 Cl
HETATM   20  C   UNL     1      -6.212  -3.009 -34.676  1.00  0.00     0.026 A 
HETATM   21  C   UNL     1      -7.186  -2.008 -34.705  1.00  0.00     0.031 A 
ENDBRANCH  12  15
ENDBRANCH   6  11
ENDBRANCH   1   5
BRANCH   2  22
HETATM   22  C   UNL     1      -7.210   3.992 -30.478  1.00  0.00     0.329 C 
HETATM   23  N   UNL     1      -6.220   3.790 -31.423  1.00  0.00    -0.239 N 
HETATM   24  H   UNL     1      -6.487   3.347 -32.302  1.00  0.00     0.192 HD
HETATM   25  O   UNL     1      -7.101   4.504 -29.374  1.00  0.00    -0.261 OA
BRANCH  23  26
HETATM   26  N   UNL     1      -4.928   4.127 -31.167  1.00  0.00    -0.183 NA
HETATM   27  C   UNL     1      -4.475   5.126 -31.857  1.00  0.00     0.153 C 
BRANCH  27  28
HETATM   28  C   UNL     1      -3.080   5.586 -31.710  1.00  0.00     0.016 A 
HETATM   29  C   UNL     1      -2.038   4.712 -31.374  1.00  0.00     0.080 A 
HETATM   30  C   UNL     1      -0.730   5.182 -31.271  1.00  0.00     0.074 A 
HETATM   31  C   UNL     1      -0.473   6.532 -31.494  1.00  0.00     0.068 A 
HETATM   32  C   UNL     1      -1.500   7.413 -31.821  1.00  0.00     0.037 A 
HETATM   33  C   UNL     1      -2.809   6.941 -31.934  1.00  0.00     0.018 A 
BRANCH  29  34
HETATM   34  O   UNL     1      -2.223   3.377 -31.139  1.00  0.00    -0.360 OA
HETATM   35  H   UNL     1      -2.210   2.906 -32.003  1.00  0.00     0.217 HD
ENDBRANCH  29  34
BRANCH  31  36
HETATM   36  O   UNL     1       0.789   7.038 -31.404  1.00  0.00    -0.361 OA
HETATM   37  H   UNL     1       1.166   7.092 -32.299  1.00  0.00     0.217 HD
ENDBRANCH  31  36
ENDBRANCH  27  28
ENDBRANCH  23  26
ENDBRANCH   2  22
TORSDOF 8
ENDMDL
MODEL 10
REMARK VINA RESULT:      -8.3      3.867      7.618
REMARK  8 active torsions:
REMARK  status: ('A' for Active; 'I' for Inactive)
REMARK    1  A    between atoms: C_3  and  C_4 
REMARK       I    between atoms: C_4  and  N_5 
REMARK    2  A    between atoms: N_5  and  C_6 
REMARK    3  A    between atoms: C_14  and  N_15 
REMARK       I    between atoms: N_15  and  C_16 
REMARK    4  A    between atoms: C_16  and  C_17 
REMARK       I    between atoms: C_17  and  N_18 
REMARK    5  A    between atoms: N_18  and  N_19 
REMARK    6  A    between atoms: C_20  and  C_21 
REMARK    7  A    between atoms: C_22  and  O_23 
REMARK    8  A    between atoms: C_25  and  O_26 
ROOT
HETATM    1  N   UNL     1      -7.939  -1.129 -33.593  1.00  0.00    -0.318 N 
HETATM    2  C   UNL     1      -8.333   0.114 -34.036  1.00  0.00     0.315 C 
HETATM    3  O   UNL     1      -7.801   0.831 -34.876  1.00  0.00    -0.262 OA
HETATM    4  H   UNL     1      -8.578  -1.586 -32.930  1.00  0.00     0.169 HD
ENDROOT
BRANCH   1   5
HETATM    5  C   UNL     1      -6.759  -1.837 -33.922  1.00  0.00     0.051 A 
HETATM    6  C   UNL     1      -5.512  -1.385 -33.437  1.00  0.00     0.059 A 
HETATM    7  C   UNL     1      -4.323  -2.037 -33.815  1.00  0.00     0.019 A 
HETATM    8  C   UNL     1      -4.370  -3.160 -34.638  1.00  0.00     0.001 A 
HETATM    9  C   UNL     1      -5.599  -3.633 -35.088  1.00  0.00     0.002 A 
HETATM   10  C   UNL     1      -6.782  -2.975 -34.737  1.00  0.00     0.030 A 
BRANCH   6  11
HETATM   11  C   UNL     1      -5.439  -0.229 -32.496  1.00  0.00     0.258 C 
HETATM   12  N   UNL     1      -5.002   0.956 -33.064  1.00  0.00    -0.323 N 
HETATM   13  H   UNL     1      -4.705   0.919 -34.031  1.00  0.00     0.169 HD
HETATM   14  O   UNL     1      -5.702  -0.425 -31.316  1.00  0.00    -0.267 OA
BRANCH  12  15
HETATM   15  C   UNL     1      -4.821   2.198 -32.421  1.00  0.00     0.035 A 
HETATM   16  C   UNL     1      -5.867   3.039 -32.034  1.00  0.00     0.031 A 
HETATM   17  C   UNL     1      -5.600   4.256 -31.394  1.00  0.00     0.026 A 
HETATM   18  C   UNL     1      -4.285   4.638 -31.145  1.00  0.00     0.034 A 
HETATM   19 CL   UNL     1      -3.958   6.131 -30.359  1.00  0.00    -0.084 Cl
HETATM   20  C   UNL     1      -3.232   3.812 -31.529  1.00  0.00     0.026 A 
HETATM   21  C   UNL     1      -3.501   2.597 -32.166  1.00  0.00     0.031 A 
ENDBRANCH  12  15
ENDBRANCH   6  11
ENDBRANCH   1   5
BRANCH   2  22
HETATM   22  C   UNL     1      -9.654   0.592 -33.409  1.00  0.00     0.329 C 
HETATM   23  N   UNL     1     -10.179   1.677 -34.090  1.00  0.00    -0.239 N 
HETATM   24  H   UNL     1      -9.653   2.035 -34.887  1.00  0.00     0.192 HD
HETATM   25  O   UNL     1     -10.125   0.015 -32.440  1.00  0.00    -0.261 OA
BRANCH  23  26
HETATM   26  N   UNL     1     -11.331   2.271 -33.679  1.00  0.00    -0.183 NA
HETATM   27  C   UNL     1     -11.179   3.220 -32.810  1.00  0.00     0.153 C 
BRANCH  27  28
HETATM   28  C   UNL     1     -12.341   3.934 -32.249  1.00  0.00     0.016 A 
HETATM   29  C   UNL     1     -13.417   4.351 -33.044  1.00  0.00     0.080 A 
HETATM   30  C   UNL     1     -14.508   5.000 -32.469  1.00  0.00     0.074 A 
HETATM   31  C   UNL     1     -14.513   5.238 -31.098  1.00  0.00     0.068 A 
HETATM   32  C   UNL     1     -13.448   4.837 -30.297  1.00  0.00     0.037 A 
HETATM   33  C   UNL     1     -12.358   4.178 -30.870  1.00  0.00     0.018 A 
BRANCH  29  34
HETATM   34  O   UNL     1     -13.473   4.151 -34.396  1.00  0.00    -0.360 OA
HETATM   35  H   UNL     1     -13.762   3.224 -34.560  1.00  0.00     0.217 HD
ENDBRANCH  29  34
BRANCH  31  36
HETATM   36  O   UNL     1     -15.557   5.870 -30.491  1.00  0.00    -0.361 OA
HETATM   37  H   UNL     1     -15.373   5.926 -29.538  1.00  0.00     0.217 HD
ENDBRANCH  31  36
ENDBRANCH  27  28
ENDBRANCH  23  26
ENDBRANCH   2  22
TORSDOF 8
ENDMDL
