MODEL 1
REMARK VINA RESULT:      -8.7      0.000      0.000
REMARK  5 active torsions:
REMARK  status: ('A' for Active; 'I' for Inactive)
REMARK    1  A    between atoms: C_3  and  N_4 
REMARK    2  A    between atoms: N_5  and  C_6 
REMARK    3  A    between atoms: C_6  and  C_7 
REMARK    4  A    between atoms: C_7  and  C_8 
REMARK    5  A    between atoms: C_16  and  C_17 
ROOT
HETATM    1  C   UNL     1      -7.253   3.877 -30.688  1.00  0.00     0.175 C 
HETATM    2  N   UNL     1      -6.930   2.721 -31.511  1.00  0.00    -0.186 N 
HETATM    3  C   UNL     1      -7.739   1.677 -31.677  1.00  0.00     0.680 A 
HETATM    4  N   UNL     1      -7.258   0.903 -32.642  1.00  0.00    -0.184 N 
HETATM    5  C   UNL     1      -6.075   1.459 -33.096  1.00  0.00     0.140 A 
HETATM    6  C   UNL     1      -5.808   2.593 -32.357  1.00  0.00     0.077 A 
ENDROOT
BRANCH   4   7
HETATM    7  C   UNL     1      -7.802  -0.386 -33.113  1.00  0.00     0.231 C 
BRANCH   7   8
HETATM    8  C   UNL     1      -7.160  -0.853 -34.414  1.00  0.00     0.178 C 
HETATM    9  O   UNL     1      -7.311  -0.223 -35.464  1.00  0.00    -0.290 OA
BRANCH   8  10
HETATM   10  C   UNL     1      -6.323  -2.079 -34.406  1.00  0.00     0.011 A 
HETATM   11  C   UNL     1      -4.984  -2.059 -33.999  1.00  0.00     0.015 A 
HETATM   12  C   UNL     1      -4.234  -3.237 -34.024  1.00  0.00     0.001 A 
HETATM   13  C   UNL     1      -4.819  -4.431 -34.447  1.00  0.00     0.000 A 
HETATM   14  C   UNL     1      -6.157  -4.457 -34.835  1.00  0.00     0.001 A 
HETATM   15  C   UNL     1      -6.913  -3.284 -34.810  1.00  0.00     0.015 A 
ENDBRANCH   8  10
ENDBRANCH   7   8
ENDBRANCH   4   7
BRANCH   3  16
HETATM   16  N   UNL     1      -8.855   1.461 -30.990  1.00  0.00    -0.234 N 
HETATM   17  H   UNL     1      -9.114   0.556 -30.636  1.00  0.00     0.174 HD
HETATM   18  H   UNL     1      -9.377   2.264 -30.632  1.00  0.00     0.174 HD
ENDBRANCH   3  16
BRANCH   6  19
HETATM   19  C   UNL     1      -4.574   3.449 -32.499  1.00  0.00    -0.004 A 
HETATM   20  C   UNL     1      -4.541   4.449 -33.484  1.00  0.00     0.053 A 
HETATM   21  C   UNL     1      -3.399   5.217 -33.594  1.00  0.00     0.106 A 
HETATM   22  C   UNL     1      -2.312   5.023 -32.780  1.00  0.00     0.105 A 
HETATM   23  O   UNL     1      -3.208   6.225 -34.486  1.00  0.00    -0.323 OA
HETATM   24  O   UNL     1      -1.298   5.883 -33.054  1.00  0.00    -0.323 OA
HETATM   25  C   UNL     1      -2.303   4.042 -31.815  1.00  0.00     0.040 A 
HETATM   26  C   UNL     1      -1.869   6.646 -34.139  1.00  0.00     0.352 A 
HETATM   27  C   UNL     1      -3.447   3.243 -31.680  1.00  0.00     0.017 A 
ENDBRANCH   6  19
TORSDOF 5
ENDMDL
MODEL 2
REMARK VINA RESULT:      -8.7      0.692      1.452
REMARK  5 active torsions:
REMARK  status: ('A' for Active; 'I' for Inactive)
REMARK    1  A    between atoms: C_3  and  N_4 
REMARK    2  A    between atoms: N_5  and  C_6 
REMARK    3  A    between atoms: C_6  and  C_7 
REMARK    4  A    between atoms: C_7  and  C_8 
REMARK    5  A    between atoms: C_16  and  C_17 
ROOT
HETATM    1  C   UNL     1      -7.059   3.612 -30.570  1.00  0.00     0.175 C 
HETATM    2  N   UNL     1      -6.767   2.537 -31.506  1.00  0.00    -0.186 N 
HETATM    3  C   UNL     1      -7.549   1.476 -31.687  1.00  0.00     0.680 A 
HETATM    4  N   UNL     1      -7.126   0.799 -32.748  1.00  0.00    -0.184 N 
HETATM    5  C   UNL     1      -6.006   1.437 -33.252  1.00  0.00     0.140 A 
HETATM    6  C   UNL     1      -5.717   2.521 -32.449  1.00  0.00     0.077 A 
ENDROOT
BRANCH   4   7
HETATM    7  C   UNL     1      -7.663  -0.473 -33.274  1.00  0.00     0.231 C 
BRANCH   7   8
HETATM    8  C   UNL     1      -6.930  -0.946 -34.523  1.00  0.00     0.178 C 
HETATM    9  O   UNL     1      -6.943  -0.282 -35.563  1.00  0.00    -0.290 OA
BRANCH   8  10
HETATM   10  C   UNL     1      -6.172  -2.222 -34.474  1.00  0.00     0.011 A 
HETATM   11  C   UNL     1      -4.830  -2.271 -34.079  1.00  0.00     0.015 A 
HETATM   12  C   UNL     1      -4.157  -3.495 -34.065  1.00  0.00     0.001 A 
HETATM   13  C   UNL     1      -4.820  -4.664 -34.437  1.00  0.00     0.000 A 
HETATM   14  C   UNL     1      -6.161  -4.619 -34.813  1.00  0.00     0.001 A 
HETATM   15  C   UNL     1      -6.841  -3.401 -34.827  1.00  0.00     0.015 A 
ENDBRANCH   8  10
ENDBRANCH   7   8
ENDBRANCH   4   7
BRANCH   3  16
HETATM   16  N   UNL     1      -8.595   1.162 -30.930  1.00  0.00    -0.234 N 
HETATM   17  H   UNL     1      -9.291   0.493 -31.209  1.00  0.00     0.174 HD
HETATM   18  H   UNL     1      -8.599   1.452 -29.950  1.00  0.00     0.174 HD
ENDBRANCH   3  16
BRANCH   6  19
HETATM   19  C   UNL     1      -4.531   3.436 -32.624  1.00  0.00    -0.004 A 
HETATM   20  C   UNL     1      -3.449   3.337 -31.734  1.00  0.00     0.053 A 
HETATM   21  C   UNL     1      -2.378   4.187 -31.916  1.00  0.00     0.106 A 
HETATM   22  C   UNL     1      -2.348   5.115 -32.926  1.00  0.00     0.105 A 
HETATM   23  O   UNL     1      -1.254   4.217 -31.150  1.00  0.00    -0.323 OA
HETATM   24  O   UNL     1      -1.205   5.847 -32.926  1.00  0.00    -0.323 OA
HETATM   25  C   UNL     1      -3.397   5.250 -33.807  1.00  0.00     0.040 A 
HETATM   26  C   UNL     1      -0.511   5.274 -31.797  1.00  0.00     0.352 A 
HETATM   27  C   UNL     1      -4.503   4.404 -33.647  1.00  0.00     0.017 A 
ENDBRANCH   6  19
TORSDOF 5
ENDMDL
MODEL 3
REMARK VINA RESULT:      -8.7      3.332      6.506
REMARK  5 active torsions:
REMARK  status: ('A' for Active; 'I' for Inactive)
REMARK    1  A    between atoms: C_3  and  N_4 
REMARK    2  A    between atoms: N_5  and  C_6 
REMARK    3  A    between atoms: C_6  and  C_7 
REMARK    4  A    between atoms: C_7  and  C_8 
REMARK    5  A    between atoms: C_16  and  C_17 
ROOT
HETATM    1  C   UNL     1      -7.444   3.771 -33.540  1.00  0.00     0.175 C 
HETATM    2  N   UNL     1      -7.332   2.342 -33.283  1.00  0.00    -0.186 N 
HETATM    3  C   UNL     1      -6.216   1.746 -32.870  1.00  0.00     0.680 A 
HETATM    4  N   UNL     1      -6.494   0.496 -32.522  1.00  0.00    -0.184 N 
HETATM    5  C   UNL     1      -7.840   0.271 -32.749  1.00  0.00     0.140 A 
HETATM    6  C   UNL     1      -8.394   1.414 -33.286  1.00  0.00     0.077 A 
ENDROOT
BRANCH   4   7
HETATM    7  C   UNL     1      -5.545  -0.540 -32.064  1.00  0.00     0.231 C 
BRANCH   7   8
HETATM    8  C   UNL     1      -4.701  -1.104 -33.200  1.00  0.00     0.178 C 
HETATM    9  O   UNL     1      -3.683  -0.526 -33.589  1.00  0.00    -0.290 OA
BRANCH   8  10
HETATM   10  C   UNL     1      -5.106  -2.384 -33.833  1.00  0.00     0.011 A 
HETATM   11  C   UNL     1      -6.343  -2.536 -34.472  1.00  0.00     0.015 A 
HETATM   12  C   UNL     1      -6.683  -3.767 -35.039  1.00  0.00     0.001 A 
HETATM   13  C   UNL     1      -5.792  -4.839 -34.973  1.00  0.00     0.000 A 
HETATM   14  C   UNL     1      -4.554  -4.684 -34.353  1.00  0.00     0.001 A 
HETATM   15  C   UNL     1      -4.206  -3.457 -33.787  1.00  0.00     0.015 A 
ENDBRANCH   8  10
ENDBRANCH   7   8
ENDBRANCH   4   7
BRANCH   3  16
HETATM   16  N   UNL     1      -5.022   2.326 -32.806  1.00  0.00    -0.234 N 
HETATM   17  H   UNL     1      -4.612   2.821 -33.579  1.00  0.00     0.174 HD
HETATM   18  H   UNL     1      -4.583   2.449 -31.891  1.00  0.00     0.174 HD
ENDBRANCH   3  16
BRANCH   6  19
HETATM   19  C   UNL     1      -9.827   1.553 -33.735  1.00  0.00    -0.004 A 
HETATM   20  C   UNL     1     -10.763   0.575 -33.360  1.00  0.00     0.053 A 
HETATM   21  C   UNL     1     -12.067   0.726 -33.786  1.00  0.00     0.106 A 
HETATM   22  C   UNL     1     -12.462   1.787 -34.561  1.00  0.00     0.105 A 
HETATM   23  O   UNL     1     -13.092  -0.123 -33.506  1.00  0.00    -0.323 OA
HETATM   24  O   UNL     1     -13.784   1.743 -34.867  1.00  0.00    -0.323 OA
HETATM   25  C   UNL     1     -11.569   2.755 -34.960  1.00  0.00     0.040 A 
HETATM   26  C   UNL     1     -14.182   0.528 -34.197  1.00  0.00     0.352 A 
HETATM   27  C   UNL     1     -10.235   2.630 -34.547  1.00  0.00     0.017 A 
ENDBRANCH   6  19
TORSDOF 5
ENDMDL
MODEL 4
REMARK VINA RESULT:      -8.5      4.607      7.562
REMARK  5 active torsions:
REMARK  status: ('A' for Active; 'I' for Inactive)
REMARK    1  A    between atoms: C_3  and  N_4 
REMARK    2  A    between atoms: N_5  and  C_6 
REMARK    3  A    between atoms: C_6  and  C_7 
REMARK    4  A    between atoms: C_7  and  C_8 
REMARK    5  A    between atoms: C_16  and  C_17 
ROOT
HETATM    1  C   UNL     1     -10.108   3.914 -34.036  1.00  0.00     0.175 C 
HETATM    2  N   UNL     1      -9.786   2.514 -33.799  1.00  0.00    -0.186 N 
HETATM    3  C   UNL     1      -8.544   2.036 -33.740  1.00  0.00     0.680 A 
HETATM    4  N   UNL     1      -8.581   0.784 -33.300  1.00  0.00    -0.184 N 
HETATM    5  C   UNL     1      -9.903   0.434 -33.094  1.00  0.00     0.140 A 
HETATM    6  C   UNL     1     -10.703   1.499 -33.456  1.00  0.00     0.077 A 
ENDROOT
BRANCH   4   7
HETATM    7  C   UNL     1      -7.442  -0.143 -33.138  1.00  0.00     0.231 C 
BRANCH   7   8
HETATM    8  C   UNL     1      -6.985  -0.745 -34.461  1.00  0.00     0.178 C 
HETATM    9  O   UNL     1      -7.168  -0.156 -35.529  1.00  0.00    -0.290 OA
BRANCH   8  10
HETATM   10  C   UNL     1      -6.288  -2.055 -34.454  1.00  0.00     0.011 A 
HETATM   11  C   UNL     1      -4.931  -2.171 -34.130  1.00  0.00     0.015 A 
HETATM   12  C   UNL     1      -4.318  -3.426 -34.153  1.00  0.00     0.001 A 
HETATM   13  C   UNL     1      -5.056  -4.560 -34.492  1.00  0.00     0.000 A 
HETATM   14  C   UNL     1      -6.410  -4.449 -34.798  1.00  0.00     0.001 A 
HETATM   15  C   UNL     1      -7.030  -3.199 -34.774  1.00  0.00     0.015 A 
ENDBRANCH   8  10
ENDBRANCH   7   8
ENDBRANCH   4   7
BRANCH   3  16
HETATM   16  N   UNL     1      -7.450   2.718 -34.059  1.00  0.00    -0.234 N 
HETATM   17  H   UNL     1      -7.280   3.080 -34.982  1.00  0.00     0.174 HD
HETATM   18  H   UNL     1      -6.848   3.063 -33.309  1.00  0.00     0.174 HD
ENDBRANCH   3  16
BRANCH   6  19
HETATM   19  C   UNL     1     -12.211   1.492 -33.442  1.00  0.00    -0.004 A 
HETATM   20  C   UNL     1     -12.896   2.433 -32.655  1.00  0.00     0.053 A 
HETATM   21  C   UNL     1     -14.276   2.403 -32.661  1.00  0.00     0.106 A 
HETATM   22  C   UNL     1     -14.981   1.487 -33.399  1.00  0.00     0.105 A 
HETATM   23  O   UNL     1     -15.086   3.243 -31.963  1.00  0.00    -0.323 OA
HETATM   24  O   UNL     1     -16.324   1.632 -33.262  1.00  0.00    -0.323 OA
HETATM   25  C   UNL     1     -14.343   0.541 -34.169  1.00  0.00     0.040 A 
HETATM   26  C   UNL     1     -16.389   2.749 -32.349  1.00  0.00     0.352 A 
HETATM   27  C   UNL     1     -12.942   0.542 -34.183  1.00  0.00     0.017 A 
ENDBRANCH   6  19
TORSDOF 5
ENDMDL
MODEL 5
REMARK VINA RESULT:      -8.5      2.239      7.695
REMARK  5 active torsions:
REMARK  status: ('A' for Active; 'I' for Inactive)
REMARK    1  A    between atoms: C_3  and  N_4 
REMARK    2  A    between atoms: N_5  and  C_6 
REMARK    3  A    between atoms: C_6  and  C_7 
REMARK    4  A    between atoms: C_7  and  C_8 
REMARK    5  A    between atoms: C_16  and  C_17 
ROOT
HETATM    1  C   UNL     1      -7.749   1.030 -35.007  1.00  0.00     0.175 C 
HETATM    2  N   UNL     1      -6.661   1.224 -34.060  1.00  0.00    -0.186 N 
HETATM    3  C   UNL     1      -6.372   2.391 -33.489  1.00  0.00     0.680 A 
HETATM    4  N   UNL     1      -5.480   2.194 -32.525  1.00  0.00    -0.184 N 
HETATM    5  C   UNL     1      -5.162   0.848 -32.495  1.00  0.00     0.140 A 
HETATM    6  C   UNL     1      -5.859   0.208 -33.499  1.00  0.00     0.077 A 
ENDROOT
BRANCH   4   7
HETATM    7  C   UNL     1      -4.838   3.217 -31.675  1.00  0.00     0.231 C 
BRANCH   7   8
HETATM    8  C   UNL     1      -3.317   3.189 -31.773  1.00  0.00     0.178 C 
HETATM    9  O   UNL     1      -2.652   2.348 -31.160  1.00  0.00    -0.290 OA
BRANCH   8  10
HETATM   10  C   UNL     1      -2.631   4.180 -32.638  1.00  0.00     0.011 A 
HETATM   11  C   UNL     1      -2.982   4.359 -33.982  1.00  0.00     0.015 A 
HETATM   12  C   UNL     1      -2.295   5.295 -34.758  1.00  0.00     0.001 A 
HETATM   13  C   UNL     1      -1.268   6.053 -34.196  1.00  0.00     0.000 A 
HETATM   14  C   UNL     1      -0.929   5.889 -32.855  1.00  0.00     0.001 A 
HETATM   15  C   UNL     1      -1.613   4.958 -32.072  1.00  0.00     0.015 A 
ENDBRANCH   8  10
ENDBRANCH   7   8
ENDBRANCH   4   7
BRANCH   3  16
HETATM   16  N   UNL     1      -6.908   3.558 -33.827  1.00  0.00    -0.234 N 
HETATM   17  H   UNL     1      -6.385   4.417 -33.839  1.00  0.00     0.174 HD
HETATM   18  H   UNL     1      -7.823   3.568 -34.281  1.00  0.00     0.174 HD
ENDBRANCH   3  16
BRANCH   6  19
HETATM   19  C   UNL     1      -5.736  -1.256 -33.840  1.00  0.00    -0.004 A 
HETATM   20  C   UNL     1      -4.558  -1.944 -33.504  1.00  0.00     0.053 A 
HETATM   21  C   UNL     1      -4.472  -3.283 -33.829  1.00  0.00     0.106 A 
HETATM   22  C   UNL     1      -5.490  -3.943 -34.469  1.00  0.00     0.105 A 
HETATM   23  O   UNL     1      -3.410  -4.091 -33.570  1.00  0.00    -0.323 OA
HETATM   24  O   UNL     1      -5.201  -5.251 -34.693  1.00  0.00    -0.323 OA
HETATM   25  C   UNL     1      -6.651  -3.298 -34.827  1.00  0.00     0.040 A 
HETATM   26  C   UNL     1      -3.878  -5.342 -34.122  1.00  0.00     0.352 A 
HETATM   27  C   UNL     1      -6.770  -1.936 -34.514  1.00  0.00     0.017 A 
ENDBRANCH   6  19
TORSDOF 5
ENDMDL
MODEL 6
REMARK VINA RESULT:      -8.5      1.504      2.279
REMARK  5 active torsions:
REMARK  status: ('A' for Active; 'I' for Inactive)
REMARK    1  A    between atoms: C_3  and  N_4 
REMARK    2  A    between atoms: N_5  and  C_6 
REMARK    3  A    between atoms: C_6  and  C_7 
REMARK    4  A    between atoms: C_7  and  C_8 
REMARK    5  A    between atoms: C_16  and  C_17 
ROOT
HETATM    1  C   UNL     1      -6.332   4.533 -31.992  1.00  0.00     0.175 C 
HETATM    2  N   UNL     1      -5.651   3.250 -32.087  1.00  0.00    -0.186 N 
HETATM    3  C   UNL     1      -6.276   2.075 -32.078  1.00  0.00     0.680 A 
HETATM    4  N   UNL     1      -5.411   1.119 -32.395  1.00  0.00    -0.184 N 
HETATM    5  C   UNL     1      -4.171   1.703 -32.587  1.00  0.00     0.140 A 
HETATM    6  C   UNL     1      -4.278   3.056 -32.344  1.00  0.00     0.077 A 
ENDROOT
BRANCH   4   7
HETATM    7  C   UNL     1      -5.660  -0.336 -32.447  1.00  0.00     0.231 C 
BRANCH   7   8
HETATM    8  C   UNL     1      -5.926  -0.834 -33.862  1.00  0.00     0.178 C 
HETATM    9  O   UNL     1      -6.291  -0.064 -34.754  1.00  0.00    -0.290 OA
BRANCH   8  10
HETATM   10  C   UNL     1      -5.720  -2.271 -34.171  1.00  0.00     0.011 A 
HETATM   11  C   UNL     1      -6.738  -3.066 -34.712  1.00  0.00     0.015 A 
HETATM   12  C   UNL     1      -6.497  -4.417 -34.971  1.00  0.00     0.001 A 
HETATM   13  C   UNL     1      -5.247  -4.972 -34.698  1.00  0.00     0.000 A 
HETATM   14  C   UNL     1      -4.228  -4.178 -34.176  1.00  0.00     0.001 A 
HETATM   15  C   UNL     1      -4.459  -2.827 -33.917  1.00  0.00     0.015 A 
ENDBRANCH   8  10
ENDBRANCH   7   8
ENDBRANCH   4   7
BRANCH   3  16
HETATM   16  N   UNL     1      -7.565   1.899 -31.809  1.00  0.00    -0.234 N 
HETATM   17  H   UNL     1      -7.927   1.851 -30.872  1.00  0.00     0.174 HD
HETATM   18  H   UNL     1      -8.246   2.013 -32.562  1.00  0.00     0.174 HD
ENDBRANCH   3  16
BRANCH   6  19
HETATM   19  C   UNL     1      -3.132   4.036 -32.382  1.00  0.00    -0.004 A 
HETATM   20  C   UNL     1      -2.574   4.489 -31.175  1.00  0.00     0.053 A 
HETATM   21  C   UNL     1      -1.527   5.386 -31.238  1.00  0.00     0.106 A 
HETATM   22  C   UNL     1      -1.031   5.842 -32.433  1.00  0.00     0.105 A 
HETATM   23  O   UNL     1      -0.875   5.915 -30.168  1.00  0.00    -0.323 OA
HETATM   24  O   UNL     1      -0.005   6.715 -32.270  1.00  0.00    -0.323 OA
HETATM   25  C   UNL     1      -1.562   5.432 -33.634  1.00  0.00     0.040 A 
HETATM   26  C   UNL     1       0.093   6.760 -30.830  1.00  0.00     0.352 A 
HETATM   27  C   UNL     1      -2.629   4.523 -33.605  1.00  0.00     0.017 A 
ENDBRANCH   6  19
TORSDOF 5
ENDMDL
MODEL 7
REMARK VINA RESULT:      -8.3      3.617      5.788
REMARK  5 active torsions:
REMARK  status: ('A' for Active; 'I' for Inactive)
REMARK    1  A    between atoms: C_3  and  N_4 
REMARK    2  A    between atoms: N_5  and  C_6 
REMARK    3  A    between atoms: C_6  and  C_7 
REMARK    4  A    between atoms: C_7  and  C_8 
REMARK    5  A    between atoms: C_16  and  C_17 
ROOT
HETATM    1  C   UNL     1      -8.682   3.293 -30.398  1.00  0.00     0.175 C 
HETATM    2  N   UNL     1      -7.942   2.190 -30.994  1.00  0.00    -0.186 N 
HETATM    3  C   UNL     1      -6.785   1.730 -30.522  1.00  0.00     0.680 A 
HETATM    4  N   UNL     1      -6.481   0.598 -31.144  1.00  0.00    -0.184 N 
HETATM    5  C   UNL     1      -7.469   0.335 -32.076  1.00  0.00     0.140 A 
HETATM    6  C   UNL     1      -8.391   1.361 -32.043  1.00  0.00     0.077 A 
ENDROOT
BRANCH   4   7
HETATM    7  C   UNL     1      -5.261  -0.218 -30.976  1.00  0.00     0.231 C 
BRANCH   7   8
HETATM    8  C   UNL     1      -4.483  -0.384 -32.275  1.00  0.00     0.178 C 
HETATM    9  O   UNL     1      -4.037   0.593 -32.883  1.00  0.00    -0.290 OA
BRANCH   8  10
HETATM   10  C   UNL     1      -4.244  -1.750 -32.803  1.00  0.00     0.011 A 
HETATM   11  C   UNL     1      -3.420  -2.667 -32.140  1.00  0.00     0.015 A 
HETATM   12  C   UNL     1      -3.215  -3.936 -32.686  1.00  0.00     0.001 A 
HETATM   13  C   UNL     1      -3.833  -4.291 -33.886  1.00  0.00     0.000 A 
HETATM   14  C   UNL     1      -4.666  -3.385 -34.539  1.00  0.00     0.001 A 
HETATM   15  C   UNL     1      -4.879  -2.117 -33.997  1.00  0.00     0.015 A 
ENDBRANCH   8  10
ENDBRANCH   7   8
ENDBRANCH   4   7
BRANCH   3  16
HETATM   16  N   UNL     1      -6.066   2.312 -29.568  1.00  0.00    -0.234 N 
HETATM   17  H   UNL     1      -5.290   2.921 -29.763  1.00  0.00     0.174 HD
HETATM   18  H   UNL     1      -6.423   2.309 -28.610  1.00  0.00     0.174 HD
ENDBRANCH   3  16
BRANCH   6  19
HETATM   19  C   UNL     1      -9.585   1.481 -32.956  1.00  0.00    -0.004 A 
HETATM   20  C   UNL     1      -9.712   2.612 -33.779  1.00  0.00     0.053 A 
HETATM   21  C   UNL     1     -10.816   2.696 -34.603  1.00  0.00     0.106 A 
HETATM   22  C   UNL     1     -11.780   1.720 -34.630  1.00  0.00     0.105 A 
HETATM   23  O   UNL     1     -11.084   3.716 -35.461  1.00  0.00    -0.323 OA
HETATM   24  O   UNL     1     -12.777   1.999 -35.509  1.00  0.00    -0.323 OA
HETATM   25  C   UNL     1     -11.696   0.606 -33.827  1.00  0.00     0.040 A 
HETATM   26  C   UNL     1     -12.333   3.268 -36.035  1.00  0.00     0.352 A 
HETATM   27  C   UNL     1     -10.589   0.492 -32.976  1.00  0.00     0.017 A 
ENDBRANCH   6  19
TORSDOF 5
ENDMDL
MODEL 8
REMARK VINA RESULT:      -8.3      1.927      7.439
REMARK  5 active torsions:
REMARK  status: ('A' for Active; 'I' for Inactive)
REMARK    1  A    between atoms: C_3  and  N_4 
REMARK    2  A    between atoms: N_5  and  C_6 
REMARK    3  A    between atoms: C_6  and  C_7 
REMARK    4  A    between atoms: C_7  and  C_8 
REMARK    5  A    between atoms: C_16  and  C_17 
ROOT
HETATM    1  C   UNL     1      -8.449   0.780 -31.772  1.00  0.00     0.175 C 
HETATM    2  N   UNL     1      -7.278   1.542 -32.179  1.00  0.00    -0.186 N 
HETATM    3  C   UNL     1      -7.108   2.837 -31.922  1.00  0.00     0.680 A 
HETATM    4  N   UNL     1      -5.862   3.181 -32.227  1.00  0.00    -0.184 N 
HETATM    5  C   UNL     1      -5.214   2.066 -32.728  1.00  0.00     0.140 A 
HETATM    6  C   UNL     1      -6.106   1.015 -32.762  1.00  0.00     0.077 A 
ENDROOT
BRANCH   4   7
HETATM    7  C   UNL     1      -5.260   4.528 -32.155  1.00  0.00     0.231 C 
BRANCH   7   8
HETATM    8  C   UNL     1      -4.810   5.042 -33.517  1.00  0.00     0.178 C 
HETATM    9  O   UNL     1      -5.551   4.977 -34.502  1.00  0.00    -0.290 OA
BRANCH   8  10
HETATM   10  C   UNL     1      -3.462   5.649 -33.650  1.00  0.00     0.011 A 
HETATM   11  C   UNL     1      -2.505   5.141 -34.536  1.00  0.00     0.015 A 
HETATM   12  C   UNL     1      -1.245   5.740 -34.613  1.00  0.00     0.001 A 
HETATM   13  C   UNL     1      -0.944   6.843 -33.813  1.00  0.00     0.000 A 
HETATM   14  C   UNL     1      -1.901   7.360 -32.943  1.00  0.00     0.001 A 
HETATM   15  C   UNL     1      -3.163   6.770 -32.864  1.00  0.00     0.015 A 
ENDBRANCH   8  10
ENDBRANCH   7   8
ENDBRANCH   4   7
BRANCH   3  16
HETATM   16  N   UNL     1      -8.038   3.644 -31.425  1.00  0.00    -0.234 N 
HETATM   17  H   UNL     1      -9.023   3.489 -31.556  1.00  0.00     0.174 HD
HETATM   18  H   UNL     1      -7.768   4.334 -30.721  1.00  0.00     0.174 HD
ENDBRANCH   3  16
BRANCH   6  19
HETATM   19  C   UNL     1      -5.805  -0.359 -33.306  1.00  0.00    -0.004 A 
HETATM   20  C   UNL     1      -4.733  -1.092 -32.769  1.00  0.00     0.053 A 
HETATM   21  C   UNL     1      -4.479  -2.345 -33.287  1.00  0.00     0.106 A 
HETATM   22  C   UNL     1      -5.232  -2.880 -34.301  1.00  0.00     0.105 A 
HETATM   23  O   UNL     1      -3.489  -3.182 -32.878  1.00  0.00    -0.323 OA
HETATM   24  O   UNL     1      -4.814  -4.121 -34.660  1.00  0.00    -0.323 OA
HETATM   25  C   UNL     1      -6.279  -2.185 -34.861  1.00  0.00     0.040 A 
HETATM   26  C   UNL     1      -3.706  -4.311 -33.754  1.00  0.00     0.352 A 
HETATM   27  C   UNL     1      -6.562  -0.907 -34.360  1.00  0.00     0.017 A 
ENDBRANCH   6  19
TORSDOF 5
ENDMDL
MODEL 9
REMARK VINA RESULT:      -8.2      1.949      7.151
REMARK  5 active torsions:
REMARK  status: ('A' for Active; 'I' for Inactive)
REMARK    1  A    between atoms: C_3  and  N_4 
REMARK    2  A    between atoms: N_5  and  C_6 
REMARK    3  A    between atoms: C_6  and  C_7 
REMARK    4  A    between atoms: C_7  and  C_8 
REMARK    5  A    between atoms: C_16  and  C_17 
ROOT
HETATM    1  C   UNL     1      -8.573   0.277 -31.825  1.00  0.00     0.175 C 
HETATM    2  N   UNL     1      -7.477   1.136 -32.249  1.00  0.00    -0.186 N 
HETATM    3  C   UNL     1      -7.431   2.447 -32.024  1.00  0.00     0.680 A 
HETATM    4  N   UNL     1      -6.222   2.899 -32.336  1.00  0.00    -0.184 N 
HETATM    5  C   UNL     1      -5.470   1.838 -32.809  1.00  0.00     0.140 A 
HETATM    6  C   UNL     1      -6.260   0.707 -32.818  1.00  0.00     0.077 A 
ENDROOT
BRANCH   4   7
HETATM    7  C   UNL     1      -5.750   4.298 -32.297  1.00  0.00     0.231 C 
BRANCH   7   8
HETATM    8  C   UNL     1      -5.023   4.707 -33.572  1.00  0.00     0.178 C 
HETATM    9  O   UNL     1      -5.628   4.842 -34.638  1.00  0.00    -0.290 OA
BRANCH   8  10
HETATM   10  C   UNL     1      -3.562   4.965 -33.518  1.00  0.00     0.011 A 
HETATM   11  C   UNL     1      -2.815   4.756 -32.352  1.00  0.00     0.015 A 
HETATM   12  C   UNL     1      -1.445   5.028 -32.350  1.00  0.00     0.001 A 
HETATM   13  C   UNL     1      -0.822   5.501 -33.505  1.00  0.00     0.000 A 
HETATM   14  C   UNL     1      -1.560   5.693 -34.671  1.00  0.00     0.001 A 
HETATM   15  C   UNL     1      -2.929   5.420 -34.682  1.00  0.00     0.015 A 
ENDBRANCH   8  10
ENDBRANCH   7   8
ENDBRANCH   4   7
BRANCH   3  16
HETATM   16  N   UNL     1      -8.435   3.175 -31.548  1.00  0.00    -0.234 N 
HETATM   17  H   UNL     1      -8.914   2.952 -30.692  1.00  0.00     0.174 HD
HETATM   18  H   UNL     1      -8.606   4.100 -31.947  1.00  0.00     0.174 HD
ENDBRANCH   3  16
BRANCH   6  19
HETATM   19  C   UNL     1      -5.829  -0.645 -33.328  1.00  0.00    -0.004 A 
HETATM   20  C   UNL     1      -4.760  -1.308 -32.702  1.00  0.00     0.053 A 
HETATM   21  C   UNL     1      -4.386  -2.543 -33.190  1.00  0.00     0.106 A 
HETATM   22  C   UNL     1      -5.019  -3.126 -34.259  1.00  0.00     0.105 A 
HETATM   23  O   UNL     1      -3.381  -3.316 -32.697  1.00  0.00    -0.323 OA
HETATM   24  O   UNL     1      -4.495  -4.338 -34.575  1.00  0.00    -0.323 OA
HETATM   25  C   UNL     1      -6.059  -2.499 -34.906  1.00  0.00     0.040 A 
HETATM   26  C   UNL     1      -3.454  -4.457 -33.581  1.00  0.00     0.352 A 
HETATM   27  C   UNL     1      -6.462  -1.241 -34.437  1.00  0.00     0.017 A 
ENDBRANCH   6  19
TORSDOF 5
ENDMDL
MODEL 10
REMARK VINA RESULT:      -7.9      2.231      7.369
REMARK  5 active torsions:
REMARK  status: ('A' for Active; 'I' for Inactive)
REMARK    1  A    between atoms: C_3  and  N_4 
REMARK    2  A    between atoms: N_5  and  C_6 
REMARK    3  A    between atoms: C_6  and  C_7 
REMARK    4  A    between atoms: C_7  and  C_8 
REMARK    5  A    between atoms: C_16  and  C_17 
ROOT
HETATM    1  C   UNL     1      -9.150   0.344 -32.439  1.00  0.00     0.175 C 
HETATM    2  N   UNL     1      -8.235   1.273 -33.086  1.00  0.00    -0.186 N 
HETATM    3  C   UNL     1      -8.434   2.588 -33.151  1.00  0.00     0.680 A 
HETATM    4  N   UNL     1      -7.332   3.172 -33.605  1.00  0.00    -0.184 N 
HETATM    5  C   UNL     1      -6.395   2.189 -33.869  1.00  0.00     0.140 A 
HETATM    6  C   UNL     1      -6.960   0.959 -33.600  1.00  0.00     0.077 A 
ENDROOT
BRANCH   4   7
HETATM    7  C   UNL     1      -7.130   4.608 -33.889  1.00  0.00     0.231 C 
BRANCH   7   8
HETATM    8  C   UNL     1      -6.134   5.259 -32.936  1.00  0.00     0.178 C 
HETATM    9  O   UNL     1      -6.438   5.510 -31.767  1.00  0.00    -0.290 OA
BRANCH   8  10
HETATM   10  C   UNL     1      -4.769   5.576 -33.425  1.00  0.00     0.011 A 
HETATM   11  C   UNL     1      -4.279   5.067 -34.634  1.00  0.00     0.015 A 
HETATM   12  C   UNL     1      -2.981   5.384 -35.042  1.00  0.00     0.001 A 
HETATM   13  C   UNL     1      -2.178   6.207 -34.252  1.00  0.00     0.000 A 
HETATM   14  C   UNL     1      -2.671   6.728 -33.057  1.00  0.00     0.001 A 
HETATM   15  C   UNL     1      -3.968   6.419 -32.645  1.00  0.00     0.015 A 
ENDBRANCH   8  10
ENDBRANCH   7   8
ENDBRANCH   4   7
BRANCH   3  16
HETATM   16  N   UNL     1      -9.556   3.207 -32.801  1.00  0.00    -0.234 N 
HETATM   17  H   UNL     1     -10.434   2.729 -32.696  1.00  0.00     0.174 HD
HETATM   18  H   UNL     1      -9.499   4.158 -32.431  1.00  0.00     0.174 HD
ENDBRANCH   3  16
BRANCH   6  19
HETATM   19  C   UNL     1      -6.284  -0.371 -33.824  1.00  0.00    -0.004 A 
HETATM   20  C   UNL     1      -7.020  -1.432 -34.377  1.00  0.00     0.053 A 
HETATM   21  C   UNL     1      -6.378  -2.638 -34.570  1.00  0.00     0.106 A 
HETATM   22  C   UNL     1      -5.061  -2.823 -34.233  1.00  0.00     0.105 A 
HETATM   23  O   UNL     1      -6.942  -3.757 -35.098  1.00  0.00    -0.323 OA
HETATM   24  O   UNL     1      -4.627  -4.080 -34.506  1.00  0.00    -0.323 OA
HETATM   25  C   UNL     1      -4.314  -1.811 -33.676  1.00  0.00     0.040 A 
HETATM   26  C   UNL     1      -5.824  -4.672 -35.055  1.00  0.00     0.352 A 
HETATM   27  C   UNL     1      -4.937  -0.574 -33.463  1.00  0.00     0.017 A 
ENDBRANCH   6  19
TORSDOF 5
ENDMDL
