MODEL 1
REMARK VINA RESULT:      -8.6      0.000      0.000
REMARK  8 active torsions:
REMARK  status: ('A' for Active; 'I' for Inactive)
REMARK    1  A    between atoms: C_2  and  O_3 
REMARK    2  A    between atoms: O_3  and  C_4 
REMARK    3  A    between atoms: C_5  and  O_6 
REMARK    4  A    between atoms: O_6  and  C_7 
REMARK    5  A    between atoms: C_7  and  C_8 
REMARK       I    between atoms: C_8  and  N_9 
REMARK    6  A    between atoms: C_13  and  C_14 
REMARK    7  A    between atoms: C_21  and  C_22 
REMARK       I    between atoms: C_22  and  N_23 
REMARK    8  A    between atoms: N_23  and  C_24 
ROOT
HETATM    1  C   UNL     1      -7.367   1.765 -31.347  1.00  0.00     0.160 C 
HETATM    2  N   UNL     1      -8.296   2.415 -30.442  1.00  0.00    -0.330 N 
HETATM    3  C   UNL     1      -9.534   2.854 -30.783  1.00  0.00     0.321 C 
HETATM    4  O   UNL     1     -10.210   3.528 -30.014  1.00  0.00    -0.247 OA
HETATM    5  N   UNL     1      -9.993   2.486 -32.014  1.00  0.00    -0.312 N 
HETATM    6  C   UNL     1      -9.304   1.716 -32.922  1.00  0.00     0.024 C 
HETATM    7  C   UNL     1     -10.036   1.377 -34.188  1.00  0.00     0.069 C 
HETATM    8  C   UNL     1      -8.054   1.338 -32.609  1.00  0.00     0.059 C 
HETATM    9  H   UNL     1      -7.959   2.749 -29.550  1.00  0.00     0.165 HD
HETATM   10  H   UNL     1     -10.928   2.813 -32.229  1.00  0.00     0.170 HD
ENDROOT
BRANCH   1  11
HETATM   11  C   UNL     1      -6.146   2.638 -31.594  1.00  0.00    -0.028 A 
HETATM   12  C   UNL     1      -4.866   2.239 -31.181  1.00  0.00     0.012 A 
HETATM   13  C   UNL     1      -3.770   3.080 -31.364  1.00  0.00     0.040 A 
HETATM   14  C   UNL     1      -3.948   4.342 -31.935  1.00  0.00     0.102 A 
HETATM   15  C   UNL     1      -5.215   4.762 -32.370  1.00  0.00     0.102 A 
HETATM   16  C   UNL     1      -6.305   3.905 -32.193  1.00  0.00     0.049 A 
BRANCH  14  17
HETATM   17  O   UNL     1      -2.887   5.189 -32.142  1.00  0.00    -0.339 OA
BRANCH  17  18
HETATM   18  C   UNL     1      -2.005   4.735 -33.172  1.00  0.00     0.278 C 
BRANCH  18  19
HETATM   19  C   UNL     1      -2.022   5.733 -34.325  1.00  0.00     0.239 C 
HETATM   20  N   UNL     1      -3.075   5.609 -35.188  1.00  0.00    -0.368 N 
HETATM   21  H   UNL     1      -3.635   4.762 -35.162  1.00  0.00     0.159 HD
HETATM   22  H   UNL     1      -3.093   6.193 -36.011  1.00  0.00     0.159 HD
HETATM   23  O   UNL     1      -1.196   6.632 -34.456  1.00  0.00    -0.271 OA
ENDBRANCH  18  19
ENDBRANCH  17  18
ENDBRANCH  14  17
BRANCH  15  24
HETATM   24  O   UNL     1      -5.274   6.020 -32.911  1.00  0.00    -0.349 OA
BRANCH  24  25
HETATM   25  C   UNL     1      -6.183   6.974 -32.365  1.00  0.00     0.171 C 
HETATM   26  C   UNL     1      -5.665   7.538 -31.053  1.00  0.00     0.034 C 
ENDBRANCH  24  25
ENDBRANCH  15  24
ENDBRANCH   1  11
BRANCH   8  27
HETATM   27  C   UNL     1      -7.255   0.518 -33.551  1.00  0.00     0.256 C 
HETATM   28  N   UNL     1      -7.150  -0.790 -33.128  1.00  0.00    -0.323 N 
HETATM   29  H   UNL     1      -7.689  -1.046 -32.312  1.00  0.00     0.169 HD
HETATM   30  O   UNL     1      -6.805   1.026 -34.567  1.00  0.00    -0.267 OA
BRANCH  28  31
HETATM   31  C   UNL     1      -6.412  -1.834 -33.737  1.00  0.00     0.041 A 
HETATM   32  C   UNL     1      -5.011  -1.876 -33.554  1.00  0.00    -0.035 A 
HETATM   33  C   UNL     1      -4.272  -0.861 -32.724  1.00  0.00     0.050 C 
HETATM   34  C   UNL     1      -4.267  -2.906 -34.160  1.00  0.00     0.009 A 
HETATM   35  C   UNL     1      -4.890  -3.877 -34.938  1.00  0.00     0.001 A 
HETATM   36  C   UNL     1      -6.265  -3.831 -35.123  1.00  0.00     0.002 A 
HETATM   37  C   UNL     1      -7.019  -2.817 -34.528  1.00  0.00     0.030 A 
ENDBRANCH  28  31
ENDBRANCH   8  27
TORSDOF 8
ENDMDL
MODEL 2
REMARK VINA RESULT:      -8.5      2.508      6.282
REMARK  8 active torsions:
REMARK  status: ('A' for Active; 'I' for Inactive)
REMARK    1  A    between atoms: C_2  and  O_3 
REMARK    2  A    between atoms: O_3  and  C_4 
REMARK    3  A    between atoms: C_5  and  O_6 
REMARK    4  A    between atoms: O_6  and  C_7 
REMARK    5  A    between atoms: C_7  and  C_8 
REMARK       I    between atoms: C_8  and  N_9 
REMARK    6  A    between atoms: C_13  and  C_14 
REMARK    7  A    between atoms: C_21  and  C_22 
REMARK       I    between atoms: C_22  and  N_23 
REMARK    8  A    between atoms: N_23  and  C_24 
ROOT
HETATM    1  C   UNL     1      -6.393   2.066 -34.060  1.00  0.00     0.160 C 
HETATM    2  N   UNL     1      -6.039   3.461 -34.243  1.00  0.00    -0.330 N 
HETATM    3  C   UNL     1      -5.264   4.183 -33.394  1.00  0.00     0.321 C 
HETATM    4  O   UNL     1      -5.127   5.395 -33.526  1.00  0.00    -0.247 OA
HETATM    5  N   UNL     1      -4.630   3.489 -32.406  1.00  0.00    -0.312 N 
HETATM    6  C   UNL     1      -4.719   2.131 -32.207  1.00  0.00     0.024 C 
HETATM    7  C   UNL     1      -3.877   1.571 -31.097  1.00  0.00     0.069 C 
HETATM    8  C   UNL     1      -5.537   1.427 -33.007  1.00  0.00     0.059 C 
HETATM    9  H   UNL     1      -6.540   4.008 -34.928  1.00  0.00     0.165 HD
HETATM   10  H   UNL     1      -4.044   4.054 -31.803  1.00  0.00     0.170 HD
ENDROOT
BRANCH   1  11
HETATM   11  C   UNL     1      -7.883   1.913 -33.797  1.00  0.00    -0.028 A 
HETATM   12  C   UNL     1      -8.690   1.107 -34.615  1.00  0.00     0.012 A 
HETATM   13  C   UNL     1     -10.064   1.027 -34.393  1.00  0.00     0.040 A 
HETATM   14  C   UNL     1     -10.649   1.774 -33.368  1.00  0.00     0.102 A 
HETATM   15  C   UNL     1      -9.863   2.576 -32.525  1.00  0.00     0.102 A 
HETATM   16  C   UNL     1      -8.485   2.640 -32.750  1.00  0.00     0.049 A 
BRANCH  14  17
HETATM   17  O   UNL     1     -11.996   1.706 -33.114  1.00  0.00    -0.339 OA
BRANCH  17  18
HETATM   18  C   UNL     1     -12.761   1.336 -34.264  1.00  0.00     0.278 C 
BRANCH  18  19
HETATM   19  C   UNL     1     -13.636   0.134 -33.922  1.00  0.00     0.239 C 
HETATM   20  N   UNL     1     -14.935   0.222 -34.339  1.00  0.00    -0.368 N 
HETATM   21  H   UNL     1     -15.299   1.124 -34.629  1.00  0.00     0.159 HD
HETATM   22  H   UNL     1     -15.575  -0.511 -34.071  1.00  0.00     0.159 HD
HETATM   23  O   UNL     1     -13.213  -0.876 -33.368  1.00  0.00    -0.271 OA
ENDBRANCH  18  19
ENDBRANCH  17  18
ENDBRANCH  14  17
BRANCH  15  24
HETATM   24  O   UNL     1     -10.543   3.269 -31.557  1.00  0.00    -0.349 OA
BRANCH  24  25
HETATM   25  C   UNL     1      -9.819   3.843 -30.469  1.00  0.00     0.171 C 
HETATM   26  C   UNL     1      -9.803   5.359 -30.559  1.00  0.00     0.034 C 
ENDBRANCH  24  25
ENDBRANCH  15  24
ENDBRANCH   1  11
BRANCH   8  27
HETATM   27  C   UNL     1      -5.686  -0.038 -32.835  1.00  0.00     0.256 C 
HETATM   28  N   UNL     1      -4.875  -0.739 -33.702  1.00  0.00    -0.323 N 
HETATM   29  H   UNL     1      -4.232  -0.194 -34.260  1.00  0.00     0.169 HD
HETATM   30  O   UNL     1      -6.444  -0.475 -31.982  1.00  0.00    -0.267 OA
BRANCH  28  31
HETATM   31  C   UNL     1      -4.803  -2.144 -33.865  1.00  0.00     0.041 A 
HETATM   32  C   UNL     1      -3.886  -2.876 -33.079  1.00  0.00    -0.035 A 
HETATM   33  C   UNL     1      -2.987  -2.222 -32.064  1.00  0.00     0.050 C 
HETATM   34  C   UNL     1      -3.802  -4.272 -33.237  1.00  0.00     0.009 A 
HETATM   35  C   UNL     1      -4.605  -4.938 -34.158  1.00  0.00     0.001 A 
HETATM   36  C   UNL     1      -5.503  -4.218 -34.934  1.00  0.00     0.002 A 
HETATM   37  C   UNL     1      -5.600  -2.831 -34.789  1.00  0.00     0.030 A 
ENDBRANCH  28  31
ENDBRANCH   8  27
TORSDOF 8
ENDMDL
MODEL 3
REMARK VINA RESULT:      -8.4      1.831      2.360
REMARK  8 active torsions:
REMARK  status: ('A' for Active; 'I' for Inactive)
REMARK    1  A    between atoms: C_2  and  O_3 
REMARK    2  A    between atoms: O_3  and  C_4 
REMARK    3  A    between atoms: C_5  and  O_6 
REMARK    4  A    between atoms: O_6  and  C_7 
REMARK    5  A    between atoms: C_7  and  C_8 
REMARK       I    between atoms: C_8  and  N_9 
REMARK    6  A    between atoms: C_13  and  C_14 
REMARK    7  A    between atoms: C_21  and  C_22 
REMARK       I    between atoms: C_22  and  N_23 
REMARK    8  A    between atoms: N_23  and  C_24 
ROOT
HETATM    1  C   UNL     1      -6.846   2.815 -30.530  1.00  0.00     0.160 C 
HETATM    2  N   UNL     1      -7.705   3.913 -30.129  1.00  0.00    -0.330 N 
HETATM    3  C   UNL     1      -9.003   4.058 -30.498  1.00  0.00     0.321 C 
HETATM    4  O   UNL     1      -9.629   5.083 -30.250  1.00  0.00    -0.247 OA
HETATM    5  N   UNL     1      -9.577   2.998 -31.136  1.00  0.00    -0.312 N 
HETATM    6  C   UNL     1      -8.948   1.811 -31.431  1.00  0.00     0.024 C 
HETATM    7  C   UNL     1      -9.798   0.757 -32.077  1.00  0.00     0.069 C 
HETATM    8  C   UNL     1      -7.645   1.694 -31.123  1.00  0.00     0.059 C 
HETATM    9  H   UNL     1      -7.290   4.733 -29.709  1.00  0.00     0.165 HD
HETATM   10  H   UNL     1     -10.552   3.131 -31.380  1.00  0.00     0.170 HD
ENDROOT
BRANCH   1  11
HETATM   11  C   UNL     1      -5.729   3.303 -31.439  1.00  0.00    -0.028 A 
HETATM   12  C   UNL     1      -5.977   3.670 -32.770  1.00  0.00     0.012 A 
HETATM   13  C   UNL     1      -4.930   4.058 -33.605  1.00  0.00     0.040 A 
HETATM   14  C   UNL     1      -3.619   4.055 -33.124  1.00  0.00     0.102 A 
HETATM   15  C   UNL     1      -3.343   3.706 -31.793  1.00  0.00     0.102 A 
HETATM   16  C   UNL     1      -4.402   3.330 -30.962  1.00  0.00     0.049 A 
BRANCH  14  17
HETATM   17  O   UNL     1      -2.567   4.444 -33.916  1.00  0.00    -0.339 OA
BRANCH  17  18
HETATM   18  C   UNL     1      -2.814   5.673 -34.605  1.00  0.00     0.278 C 
BRANCH  18  19
HETATM   19  C   UNL     1      -1.998   6.786 -33.956  1.00  0.00     0.239 C 
HETATM   20  N   UNL     1      -2.630   7.461 -32.949  1.00  0.00    -0.368 N 
HETATM   21  H   UNL     1      -3.635   7.358 -32.842  1.00  0.00     0.159 HD
HETATM   22  H   UNL     1      -2.165   8.257 -32.539  1.00  0.00     0.159 HD
HETATM   23  O   UNL     1      -0.835   7.037 -34.256  1.00  0.00    -0.271 OA
ENDBRANCH  18  19
ENDBRANCH  17  18
ENDBRANCH  14  17
BRANCH  15  24
HETATM   24  O   UNL     1      -2.020   3.732 -31.431  1.00  0.00    -0.349 OA
BRANCH  24  25
HETATM   25  C   UNL     1      -1.487   4.903 -30.814  1.00  0.00     0.171 C 
HETATM   26  C   UNL     1      -0.070   5.177 -31.288  1.00  0.00     0.034 C 
ENDBRANCH  24  25
ENDBRANCH  15  24
ENDBRANCH   1  11
BRANCH   8  27
HETATM   27  C   UNL     1      -6.907   0.445 -31.427  1.00  0.00     0.256 C 
HETATM   28  N   UNL     1      -6.769   0.250 -32.785  1.00  0.00    -0.323 N 
HETATM   29  H   UNL     1      -7.088   1.000 -33.383  1.00  0.00     0.169 HD
HETATM   30  O   UNL     1      -6.489  -0.251 -30.513  1.00  0.00    -0.267 OA
BRANCH  28  31
HETATM   31  C   UNL     1      -6.183  -0.861 -33.438  1.00  0.00     0.041 A 
HETATM   32  C   UNL     1      -4.774  -0.967 -33.473  1.00  0.00    -0.035 A 
HETATM   33  C   UNL     1      -3.869   0.050 -32.830  1.00  0.00     0.050 C 
HETATM   34  C   UNL     1      -4.181  -2.064 -34.125  1.00  0.00     0.009 A 
HETATM   35  C   UNL     1      -4.960  -3.040 -34.738  1.00  0.00     0.001 A 
HETATM   36  C   UNL     1      -6.345  -2.932 -34.709  1.00  0.00     0.002 A 
HETATM   37  C   UNL     1      -6.950  -1.850 -34.065  1.00  0.00     0.030 A 
ENDBRANCH  28  31
ENDBRANCH   8  27
TORSDOF 8
ENDMDL
MODEL 4
REMARK VINA RESULT:      -7.7      3.947      7.873
REMARK  8 active torsions:
REMARK  status: ('A' for Active; 'I' for Inactive)
REMARK    1  A    between atoms: C_2  and  O_3 
REMARK    2  A    between atoms: O_3  and  C_4 
REMARK    3  A    between atoms: C_5  and  O_6 
REMARK    4  A    between atoms: O_6  and  C_7 
REMARK    5  A    between atoms: C_7  and  C_8 
REMARK       I    between atoms: C_8  and  N_9 
REMARK    6  A    between atoms: C_13  and  C_14 
REMARK    7  A    between atoms: C_21  and  C_22 
REMARK       I    between atoms: C_22  and  N_23 
REMARK    8  A    between atoms: N_23  and  C_24 
ROOT
HETATM    1  C   UNL     1     -10.258   3.584 -34.944  1.00  0.00     0.160 C 
HETATM    2  N   UNL     1     -10.563   4.891 -35.493  1.00  0.00    -0.330 N 
HETATM    3  C   UNL     1     -10.054   6.063 -35.035  1.00  0.00     0.321 C 
HETATM    4  O   UNL     1     -10.466   7.144 -35.444  1.00  0.00    -0.247 OA
HETATM    5  N   UNL     1      -9.049   5.975 -34.117  1.00  0.00    -0.312 N 
HETATM    6  C   UNL     1      -8.522   4.803 -33.626  1.00  0.00     0.024 C 
HETATM    7  C   UNL     1      -7.371   4.946 -32.673  1.00  0.00     0.069 C 
HETATM    8  C   UNL     1      -9.070   3.645 -34.032  1.00  0.00     0.059 C 
HETATM    9  H   UNL     1     -11.342   4.987 -36.129  1.00  0.00     0.165 HD
HETATM   10  H   UNL     1      -8.679   6.867 -33.811  1.00  0.00     0.170 HD
ENDROOT
BRANCH   1  11
HETATM   11  C   UNL     1     -11.486   2.970 -34.289  1.00  0.00    -0.028 A 
HETATM   12  C   UNL     1     -12.148   1.872 -34.859  1.00  0.00     0.012 A 
HETATM   13  C   UNL     1     -13.306   1.362 -34.275  1.00  0.00     0.040 A 
HETATM   14  C   UNL     1     -13.830   1.964 -33.128  1.00  0.00     0.102 A 
HETATM   15  C   UNL     1     -13.181   3.054 -32.528  1.00  0.00     0.102 A 
HETATM   16  C   UNL     1     -12.014   3.549 -33.116  1.00  0.00     0.049 A 
BRANCH  14  17
HETATM   17  O   UNL     1     -14.961   1.477 -32.520  1.00  0.00    -0.339 OA
BRANCH  17  18
HETATM   18  C   UNL     1     -16.161   1.826 -33.215  1.00  0.00     0.278 C 
BRANCH  18  19
HETATM   19  C   UNL     1     -17.013   2.728 -32.328  1.00  0.00     0.239 C 
HETATM   20  N   UNL     1     -16.669   4.051 -32.342  1.00  0.00    -0.368 N 
HETATM   21  H   UNL     1     -15.770   4.322 -32.732  1.00  0.00     0.159 HD
HETATM   22  H   UNL     1     -17.149   4.678 -31.714  1.00  0.00     0.159 HD
HETATM   23  O   UNL     1     -17.980   2.330 -31.686  1.00  0.00    -0.271 OA
ENDBRANCH  18  19
ENDBRANCH  17  18
ENDBRANCH  14  17
BRANCH  15  24
HETATM   24  O   UNL     1     -13.787   3.568 -31.410  1.00  0.00    -0.349 OA
BRANCH  24  25
HETATM   25  C   UNL     1     -13.008   4.300 -30.466  1.00  0.00     0.171 C 
HETATM   26  C   UNL     1     -13.748   5.537 -29.985  1.00  0.00     0.034 C 
ENDBRANCH  24  25
ENDBRANCH  15  24
ENDBRANCH   1  11
BRANCH   8  27
HETATM   27  C   UNL     1      -8.555   2.349 -33.530  1.00  0.00     0.256 C 
HETATM   28  N   UNL     1      -7.597   1.820 -34.369  1.00  0.00    -0.323 N 
HETATM   29  H   UNL     1      -7.303   2.402 -35.142  1.00  0.00     0.169 HD
HETATM   30  O   UNL     1      -8.974   1.897 -32.474  1.00  0.00    -0.267 OA
BRANCH  28  31
HETATM   31  C   UNL     1      -6.938   0.573 -34.242  1.00  0.00     0.041 A 
HETATM   32  C   UNL     1      -5.756   0.501 -33.471  1.00  0.00    -0.035 A 
HETATM   33  C   UNL     1      -5.174   1.697 -32.767  1.00  0.00     0.050 C 
HETATM   34  C   UNL     1      -5.090  -0.732 -33.344  1.00  0.00     0.009 A 
HETATM   35  C   UNL     1      -5.576  -1.877 -33.969  1.00  0.00     0.001 A 
HETATM   36  C   UNL     1      -6.734  -1.804 -34.732  1.00  0.00     0.002 A 
HETATM   37  C   UNL     1      -7.409  -0.588 -34.867  1.00  0.00     0.030 A 
ENDBRANCH  28  31
ENDBRANCH   8  27
TORSDOF 8
ENDMDL
MODEL 5
REMARK VINA RESULT:      -7.7      2.074      2.863
REMARK  8 active torsions:
REMARK  status: ('A' for Active; 'I' for Inactive)
REMARK    1  A    between atoms: C_2  and  O_3 
REMARK    2  A    between atoms: O_3  and  C_4 
REMARK    3  A    between atoms: C_5  and  O_6 
REMARK    4  A    between atoms: O_6  and  C_7 
REMARK    5  A    between atoms: C_7  and  C_8 
REMARK       I    between atoms: C_8  and  N_9 
REMARK    6  A    between atoms: C_13  and  C_14 
REMARK    7  A    between atoms: C_21  and  C_22 
REMARK       I    between atoms: C_22  and  N_23 
REMARK    8  A    between atoms: N_23  and  C_24 
ROOT
HETATM    1  C   UNL     1      -6.166   3.603 -30.117  1.00  0.00     0.160 C 
HETATM    2  N   UNL     1      -6.635   4.377 -28.983  1.00  0.00    -0.330 N 
HETATM    3  C   UNL     1      -7.759   5.138 -28.973  1.00  0.00     0.321 C 
HETATM    4  O   UNL     1      -8.019   5.885 -28.037  1.00  0.00    -0.247 OA
HETATM    5  N   UNL     1      -8.591   5.009 -30.046  1.00  0.00    -0.312 N 
HETATM    6  C   UNL     1      -8.378   4.179 -31.123  1.00  0.00     0.024 C 
HETATM    7  C   UNL     1      -9.466   4.149 -32.157  1.00  0.00     0.069 C 
HETATM    8  C   UNL     1      -7.234   3.476 -31.161  1.00  0.00     0.059 C 
HETATM    9  H   UNL     1      -6.010   4.534 -28.204  1.00  0.00     0.165 HD
HETATM   10  H   UNL     1      -9.430   5.575 -29.998  1.00  0.00     0.170 HD
ENDROOT
BRANCH   1  11
HETATM   11  C   UNL     1      -4.861   4.166 -30.658  1.00  0.00    -0.028 A 
HETATM   12  C   UNL     1      -3.886   3.334 -31.227  1.00  0.00     0.012 A 
HETATM   13  C   UNL     1      -2.672   3.863 -31.663  1.00  0.00     0.040 A 
HETATM   14  C   UNL     1      -2.410   5.226 -31.508  1.00  0.00     0.102 A 
HETATM   15  C   UNL     1      -3.373   6.084 -30.955  1.00  0.00     0.102 A 
HETATM   16  C   UNL     1      -4.592   5.545 -30.532  1.00  0.00     0.049 A 
BRANCH  14  17
HETATM   17  O   UNL     1      -1.230   5.780 -31.940  1.00  0.00    -0.339 OA
BRANCH  17  18
HETATM   18  C   UNL     1      -0.976   5.537 -33.325  1.00  0.00     0.278 C 
BRANCH  18  19
HETATM   19  C   UNL     1      -1.799   6.508 -34.166  1.00  0.00     0.239 C 
HETATM   20  N   UNL     1      -2.760   5.929 -34.949  1.00  0.00    -0.368 N 
HETATM   21  H   UNL     1      -2.727   4.926 -35.108  1.00  0.00     0.159 HD
HETATM   22  H   UNL     1      -3.280   6.517 -35.583  1.00  0.00     0.159 HD
HETATM   23  O   UNL     1      -1.671   7.727 -34.115  1.00  0.00    -0.271 OA
ENDBRANCH  18  19
ENDBRANCH  17  18
ENDBRANCH  14  17
BRANCH  15  24
HETATM   24  O   UNL     1      -3.007   7.401 -30.846  1.00  0.00    -0.349 OA
BRANCH  24  25
HETATM   25  C   UNL     1      -2.805   7.966 -29.552  1.00  0.00     0.171 C 
HETATM   26  C   UNL     1      -1.327   8.037 -29.208  1.00  0.00     0.034 C 
ENDBRANCH  24  25
ENDBRANCH  15  24
ENDBRANCH   1  11
BRANCH   8  27
HETATM   27  C   UNL     1      -6.940   2.574 -32.300  1.00  0.00     0.256 C 
HETATM   28  N   UNL     1      -6.835   1.259 -31.898  1.00  0.00    -0.323 N 
HETATM   29  H   UNL     1      -7.059   1.064 -30.931  1.00  0.00     0.169 HD
HETATM   30  O   UNL     1      -6.845   3.033 -33.429  1.00  0.00    -0.267 OA
BRANCH  28  31
HETATM   31  C   UNL     1      -6.500   0.140 -32.697  1.00  0.00     0.041 A 
HETATM   32  C   UNL     1      -7.534  -0.568 -33.349  1.00  0.00    -0.035 A 
HETATM   33  C   UNL     1      -8.982  -0.172 -33.237  1.00  0.00     0.050 C 
HETATM   34  C   UNL     1      -7.212  -1.686 -34.141  1.00  0.00     0.009 A 
HETATM   35  C   UNL     1      -5.893  -2.104 -34.287  1.00  0.00     0.001 A 
HETATM   36  C   UNL     1      -4.877  -1.411 -33.642  1.00  0.00     0.002 A 
HETATM   37  C   UNL     1      -5.179  -0.299 -32.852  1.00  0.00     0.030 A 
ENDBRANCH  28  31
ENDBRANCH   8  27
TORSDOF 8
ENDMDL
MODEL 6
REMARK VINA RESULT:      -7.7     16.041     18.349
REMARK  8 active torsions:
REMARK  status: ('A' for Active; 'I' for Inactive)
REMARK    1  A    between atoms: C_2  and  O_3 
REMARK    2  A    between atoms: O_3  and  C_4 
REMARK    3  A    between atoms: C_5  and  O_6 
REMARK    4  A    between atoms: O_6  and  C_7 
REMARK    5  A    between atoms: C_7  and  C_8 
REMARK       I    between atoms: C_8  and  N_9 
REMARK    6  A    between atoms: C_13  and  C_14 
REMARK    7  A    between atoms: C_21  and  C_22 
REMARK       I    between atoms: C_22  and  N_23 
REMARK    8  A    between atoms: N_23  and  C_24 
ROOT
HETATM    1  C   UNL     1      -6.215 -13.066 -36.254  1.00  0.00     0.160 C 
HETATM    2  N   UNL     1      -6.485 -13.234 -34.838  1.00  0.00    -0.330 N 
HETATM    3  C   UNL     1      -5.697 -13.922 -33.974  1.00  0.00     0.321 C 
HETATM    4  O   UNL     1      -6.057 -14.154 -32.825  1.00  0.00    -0.247 OA
HETATM    5  N   UNL     1      -4.479 -14.319 -34.443  1.00  0.00    -0.312 N 
HETATM    6  C   UNL     1      -3.998 -14.080 -35.709  1.00  0.00     0.024 C 
HETATM    7  C   UNL     1      -2.599 -14.551 -35.983  1.00  0.00     0.069 C 
HETATM    8  C   UNL     1      -4.805 -13.456 -36.583  1.00  0.00     0.059 C 
HETATM    9  H   UNL     1      -7.402 -13.002 -34.483  1.00  0.00     0.165 HD
HETATM   10  H   UNL     1      -3.908 -14.813 -33.766  1.00  0.00     0.170 HD
ENDROOT
BRANCH   1  11
HETATM   11  C   UNL     1      -7.251 -13.794 -37.095  1.00  0.00    -0.028 A 
HETATM   12  C   UNL     1      -7.236 -15.191 -37.227  1.00  0.00     0.012 A 
HETATM   13  C   UNL     1      -8.159 -15.835 -38.050  1.00  0.00     0.040 A 
HETATM   14  C   UNL     1      -9.088 -15.084 -38.774  1.00  0.00     0.102 A 
HETATM   15  C   UNL     1      -9.135 -13.686 -38.651  1.00  0.00     0.102 A 
HETATM   16  C   UNL     1      -8.213 -13.053 -37.813  1.00  0.00     0.049 A 
BRANCH  14  17
HETATM   17  O   UNL     1     -10.019 -15.688 -39.583  1.00  0.00    -0.339 OA
BRANCH  17  18
HETATM   18  C   UNL     1      -9.554 -15.877 -40.921  1.00  0.00     0.278 C 
BRANCH  18  19
HETATM   19  C   UNL     1     -10.667 -15.510 -41.897  1.00  0.00     0.239 C 
HETATM   20  N   UNL     1     -11.591 -14.621 -41.420  1.00  0.00    -0.368 N 
HETATM   21  H   UNL     1     -11.628 -14.438 -40.422  1.00  0.00     0.159 HD
HETATM   22  H   UNL     1     -12.390 -14.405 -41.997  1.00  0.00     0.159 HD
HETATM   23  O   UNL     1     -10.720 -15.922 -43.052  1.00  0.00    -0.271 OA
ENDBRANCH  18  19
ENDBRANCH  17  18
ENDBRANCH  14  17
BRANCH  15  24
HETATM   24  O   UNL     1     -10.084 -13.052 -39.411  1.00  0.00    -0.349 OA
BRANCH  24  25
HETATM   25  C   UNL     1      -9.702 -11.944 -40.224  1.00  0.00     0.171 C 
HETATM   26  C   UNL     1     -10.907 -11.099 -40.602  1.00  0.00     0.034 C 
ENDBRANCH  24  25
ENDBRANCH  15  24
ENDBRANCH   1  11
BRANCH   8  27
HETATM   27  C   UNL     1      -4.349 -13.180 -37.967  1.00  0.00     0.256 C 
HETATM   28  N   UNL     1      -4.447 -14.297 -38.769  1.00  0.00    -0.323 N 
HETATM   29  H   UNL     1      -4.891 -15.109 -38.361  1.00  0.00     0.169 HD
HETATM   30  O   UNL     1      -3.972 -12.058 -38.270  1.00  0.00    -0.267 OA
BRANCH  28  31
HETATM   31  C   UNL     1      -4.043 -14.423 -40.120  1.00  0.00     0.041 A 
HETATM   32  C   UNL     1      -4.919 -13.984 -41.138  1.00  0.00    -0.035 A 
HETATM   33  C   UNL     1      -6.264 -13.376 -40.843  1.00  0.00     0.050 C 
HETATM   34  C   UNL     1      -4.530 -14.110 -42.485  1.00  0.00     0.009 A 
HETATM   35  C   UNL     1      -3.299 -14.662 -42.826  1.00  0.00     0.001 A 
HETATM   36  C   UNL     1      -2.441 -15.099 -41.826  1.00  0.00     0.002 A 
HETATM   37  C   UNL     1      -2.811 -14.981 -40.484  1.00  0.00     0.030 A 
ENDBRANCH  28  31
ENDBRANCH   8  27
TORSDOF 8
ENDMDL
MODEL 7
REMARK VINA RESULT:      -7.5      3.297      7.045
REMARK  8 active torsions:
REMARK  status: ('A' for Active; 'I' for Inactive)
REMARK    1  A    between atoms: C_2  and  O_3 
REMARK    2  A    between atoms: O_3  and  C_4 
REMARK    3  A    between atoms: C_5  and  O_6 
REMARK    4  A    between atoms: O_6  and  C_7 
REMARK    5  A    between atoms: C_7  and  C_8 
REMARK       I    between atoms: C_8  and  N_9 
REMARK    6  A    between atoms: C_13  and  C_14 
REMARK    7  A    between atoms: C_21  and  C_22 
REMARK       I    between atoms: C_22  and  N_23 
REMARK    8  A    between atoms: N_23  and  C_24 
ROOT
HETATM    1  C   UNL     1      -8.812   2.266 -31.172  1.00  0.00     0.160 C 
HETATM    2  N   UNL     1      -7.958   2.804 -30.130  1.00  0.00    -0.330 N 
HETATM    3  C   UNL     1      -7.533   4.091 -30.062  1.00  0.00     0.321 C 
HETATM    4  O   UNL     1      -6.693   4.446 -29.242  1.00  0.00    -0.247 OA
HETATM    5  N   UNL     1      -8.104   4.969 -30.936  1.00  0.00    -0.312 N 
HETATM    6  C   UNL     1      -9.063   4.652 -31.869  1.00  0.00     0.024 C 
HETATM    7  C   UNL     1      -9.599   5.796 -32.679  1.00  0.00     0.069 C 
HETATM    8  C   UNL     1      -9.436   3.366 -31.978  1.00  0.00     0.059 C 
HETATM    9  H   UNL     1      -7.479   2.166 -29.511  1.00  0.00     0.165 HD
HETATM   10  H   UNL     1      -7.779   5.925 -30.845  1.00  0.00     0.170 HD
ENDROOT
BRANCH   1  11
HETATM   11  C   UNL     1      -8.061   1.252 -32.021  1.00  0.00    -0.028 A 
HETATM   12  C   UNL     1      -8.724   0.179 -32.636  1.00  0.00     0.012 A 
HETATM   13  C   UNL     1      -8.009  -0.773 -33.361  1.00  0.00     0.040 A 
HETATM   14  C   UNL     1      -6.619  -0.677 -33.453  1.00  0.00     0.102 A 
HETATM   15  C   UNL     1      -5.931   0.393 -32.860  1.00  0.00     0.102 A 
HETATM   16  C   UNL     1      -6.660   1.348 -32.145  1.00  0.00     0.049 A 
BRANCH  14  17
HETATM   17  O   UNL     1      -5.887  -1.591 -34.171  1.00  0.00    -0.339 OA
BRANCH  17  18
HETATM   18  C   UNL     1      -6.677  -2.677 -34.659  1.00  0.00     0.278 C 
BRANCH  18  19
HETATM   19  C   UNL     1      -5.799  -3.917 -34.795  1.00  0.00     0.239 C 
HETATM   20  N   UNL     1      -4.497  -3.754 -34.409  1.00  0.00    -0.368 N 
HETATM   21  H   UNL     1      -4.135  -2.814 -34.281  1.00  0.00     0.159 HD
HETATM   22  H   UNL     1      -3.855  -4.520 -34.551  1.00  0.00     0.159 HD
HETATM   23  O   UNL     1      -6.220  -5.010 -35.163  1.00  0.00    -0.271 OA
ENDBRANCH  18  19
ENDBRANCH  17  18
ENDBRANCH  14  17
BRANCH  15  24
HETATM   24  O   UNL     1      -4.568   0.383 -33.010  1.00  0.00    -0.349 OA
BRANCH  24  25
HETATM   25  C   UNL     1      -3.740   0.181 -31.866  1.00  0.00     0.171 C 
HETATM   26  C   UNL     1      -3.210  -1.243 -31.816  1.00  0.00     0.034 C 
ENDBRANCH  24  25
ENDBRANCH  15  24
ENDBRANCH   1  11
BRANCH   8  27
HETATM   27  C   UNL     1     -10.457   2.958 -32.973  1.00  0.00     0.256 C 
HETATM   28  N   UNL     1     -11.591   2.459 -32.367  1.00  0.00    -0.323 N 
HETATM   29  H   UNL     1     -11.627   2.520 -31.359  1.00  0.00     0.169 HD
HETATM   30  O   UNL     1     -10.236   3.108 -34.166  1.00  0.00    -0.267 OA
BRANCH  28  31
HETATM   31  C   UNL     1     -12.735   1.917 -33.000  1.00  0.00     0.041 A 
HETATM   32  C   UNL     1     -14.013   2.380 -32.613  1.00  0.00    -0.035 A 
HETATM   33  C   UNL     1     -14.206   3.438 -31.559  1.00  0.00     0.050 C 
HETATM   34  C   UNL     1     -15.158   1.843 -33.231  1.00  0.00     0.009 A 
HETATM   35  C   UNL     1     -15.048   0.863 -34.213  1.00  0.00     0.001 A 
HETATM   36  C   UNL     1     -13.793   0.404 -34.589  1.00  0.00     0.002 A 
HETATM   37  C   UNL     1     -12.646   0.927 -33.986  1.00  0.00     0.030 A 
ENDBRANCH  28  31
ENDBRANCH   8  27
TORSDOF 8
ENDMDL
MODEL 8
REMARK VINA RESULT:      -7.4     16.091     17.879
REMARK  8 active torsions:
REMARK  status: ('A' for Active; 'I' for Inactive)
REMARK    1  A    between atoms: C_2  and  O_3 
REMARK    2  A    between atoms: O_3  and  C_4 
REMARK    3  A    between atoms: C_5  and  O_6 
REMARK    4  A    between atoms: O_6  and  C_7 
REMARK    5  A    between atoms: C_7  and  C_8 
REMARK       I    between atoms: C_8  and  N_9 
REMARK    6  A    between atoms: C_13  and  C_14 
REMARK    7  A    between atoms: C_21  and  C_22 
REMARK       I    between atoms: C_22  and  N_23 
REMARK    8  A    between atoms: N_23  and  C_24 
ROOT
HETATM    1  C   UNL     1      -4.589 -13.251 -35.566  1.00  0.00     0.160 C 
HETATM    2  N   UNL     1      -5.093 -12.874 -34.259  1.00  0.00    -0.330 N 
HETATM    3  C   UNL     1      -5.248 -13.725 -33.212  1.00  0.00     0.321 C 
HETATM    4  O   UNL     1      -5.818 -13.378 -32.184  1.00  0.00    -0.247 OA
HETATM    5  N   UNL     1      -4.716 -14.972 -33.357  1.00  0.00    -0.312 N 
HETATM    6  C   UNL     1      -4.046 -15.428 -34.469  1.00  0.00     0.024 C 
HETATM    7  C   UNL     1      -3.485 -16.817 -34.378  1.00  0.00     0.069 C 
HETATM    8  C   UNL     1      -3.951 -14.606 -35.528  1.00  0.00     0.059 C 
HETATM    9  H   UNL     1      -5.545 -11.978 -34.147  1.00  0.00     0.165 HD
HETATM   10  H   UNL     1      -4.831 -15.575 -32.550  1.00  0.00     0.170 HD
ENDROOT
BRANCH   1  11
HETATM   11  C   UNL     1      -5.675 -13.128 -36.624  1.00  0.00    -0.028 A 
HETATM   12  C   UNL     1      -6.985 -13.568 -36.381  1.00  0.00     0.012 A 
HETATM   13  C   UNL     1      -7.952 -13.501 -37.383  1.00  0.00     0.040 A 
HETATM   14  C   UNL     1      -7.609 -13.019 -38.649  1.00  0.00     0.102 A 
HETATM   15  C   UNL     1      -6.310 -12.559 -38.916  1.00  0.00     0.102 A 
HETATM   16  C   UNL     1      -5.353 -12.620 -37.899  1.00  0.00     0.049 A 
BRANCH  14  17
HETATM   17  O   UNL     1      -8.541 -12.927 -39.654  1.00  0.00    -0.339 OA
BRANCH  17  18
HETATM   18  C   UNL     1      -9.730 -13.673 -39.381  1.00  0.00     0.278 C 
BRANCH  18  19
HETATM   19  C   UNL     1     -10.876 -13.118 -40.220  1.00  0.00     0.239 C 
HETATM   20  N   UNL     1     -10.743 -11.810 -40.595  1.00  0.00    -0.368 N 
HETATM   21  H   UNL     1     -10.049 -11.232 -40.130  1.00  0.00     0.159 HD
HETATM   22  H   UNL     1     -11.509 -11.371 -41.085  1.00  0.00     0.159 HD
HETATM   23  O   UNL     1     -11.829 -13.793 -40.596  1.00  0.00    -0.271 OA
ENDBRANCH  18  19
ENDBRANCH  17  18
ENDBRANCH  14  17
BRANCH  15  24
HETATM   24  O   UNL     1      -6.085 -12.113 -40.193  1.00  0.00    -0.349 OA
BRANCH  24  25
HETATM   25  C   UNL     1      -5.141 -12.795 -41.016  1.00  0.00     0.171 C 
HETATM   26  C   UNL     1      -5.822 -13.843 -41.880  1.00  0.00     0.034 C 
ENDBRANCH  24  25
ENDBRANCH  15  24
ENDBRANCH   1  11
BRANCH   8  27
HETATM   27  C   UNL     1      -3.253 -15.043 -36.761  1.00  0.00     0.256 C 
HETATM   28  N   UNL     1      -2.080 -14.346 -36.958  1.00  0.00    -0.323 N 
HETATM   29  H   UNL     1      -1.799 -13.716 -36.218  1.00  0.00     0.169 HD
HETATM   30  O   UNL     1      -3.727 -15.939 -37.442  1.00  0.00    -0.267 OA
BRANCH  28  31
HETATM   31  C   UNL     1      -1.193 -14.448 -38.057  1.00  0.00     0.041 A 
HETATM   32  C   UNL     1       0.024 -15.145 -37.890  1.00  0.00    -0.035 A 
HETATM   33  C   UNL     1       0.413 -15.795 -36.588  1.00  0.00     0.050 C 
HETATM   34  C   UNL     1       0.915 -15.248 -38.974  1.00  0.00     0.009 A 
HETATM   35  C   UNL     1       0.616 -14.671 -40.204  1.00  0.00     0.001 A 
HETATM   36  C   UNL     1      -0.578 -13.981 -40.367  1.00  0.00     0.002 A 
HETATM   37  C   UNL     1      -1.475 -13.870 -39.301  1.00  0.00     0.030 A 
ENDBRANCH  28  31
ENDBRANCH   8  27
TORSDOF 8
ENDMDL
MODEL 9
REMARK VINA RESULT:      -7.4      2.634      6.231
REMARK  8 active torsions:
REMARK  status: ('A' for Active; 'I' for Inactive)
REMARK    1  A    between atoms: C_2  and  O_3 
REMARK    2  A    between atoms: O_3  and  C_4 
REMARK    3  A    between atoms: C_5  and  O_6 
REMARK    4  A    between atoms: O_6  and  C_7 
REMARK    5  A    between atoms: C_7  and  C_8 
REMARK       I    between atoms: C_8  and  N_9 
REMARK    6  A    between atoms: C_13  and  C_14 
REMARK    7  A    between atoms: C_21  and  C_22 
REMARK       I    between atoms: C_22  and  N_23 
REMARK    8  A    between atoms: N_23  and  C_24 
ROOT
HETATM    1  C   UNL     1      -7.313   3.926 -31.562  1.00  0.00     0.160 C 
HETATM    2  N   UNL     1      -6.212   4.858 -31.720  1.00  0.00    -0.330 N 
HETATM    3  C   UNL     1      -6.069   5.723 -32.756  1.00  0.00     0.321 C 
HETATM    4  O   UNL     1      -5.043   6.376 -32.909  1.00  0.00    -0.247 OA
HETATM    5  N   UNL     1      -7.133   5.843 -33.601  1.00  0.00    -0.312 N 
HETATM    6  C   UNL     1      -8.322   5.162 -33.484  1.00  0.00     0.024 C 
HETATM    7  C   UNL     1      -9.381   5.505 -34.491  1.00  0.00     0.069 C 
HETATM    8  C   UNL     1      -8.437   4.258 -32.496  1.00  0.00     0.059 C 
HETATM    9  H   UNL     1      -5.389   4.747 -31.144  1.00  0.00     0.165 HD
HETATM   10  H   UNL     1      -7.002   6.511 -34.351  1.00  0.00     0.170 HD
ENDROOT
BRANCH   1  11
HETATM   11  C   UNL     1      -6.832   2.489 -31.689  1.00  0.00    -0.028 A 
HETATM   12  C   UNL     1      -6.611   1.689 -30.558  1.00  0.00     0.012 A 
HETATM   13  C   UNL     1      -6.114   0.394 -30.693  1.00  0.00     0.040 A 
HETATM   14  C   UNL     1      -5.804  -0.104 -31.960  1.00  0.00     0.102 A 
HETATM   15  C   UNL     1      -6.028   0.668 -33.111  1.00  0.00     0.102 A 
HETATM   16  C   UNL     1      -6.539   1.962 -32.963  1.00  0.00     0.049 A 
BRANCH  14  17
HETATM   17  O   UNL     1      -5.326  -1.380 -32.128  1.00  0.00    -0.339 OA
BRANCH  17  18
HETATM   18  C   UNL     1      -3.926  -1.490 -31.861  1.00  0.00     0.278 C 
BRANCH  18  19
HETATM   19  C   UNL     1      -3.449  -2.889 -32.237  1.00  0.00     0.239 C 
HETATM   20  N   UNL     1      -3.894  -3.351 -33.444  1.00  0.00    -0.368 N 
HETATM   21  H   UNL     1      -4.664  -2.872 -33.902  1.00  0.00     0.159 HD
HETATM   22  H   UNL     1      -3.673  -4.301 -33.706  1.00  0.00     0.159 HD
HETATM   23  O   UNL     1      -2.674  -3.548 -31.551  1.00  0.00    -0.271 OA
ENDBRANCH  18  19
ENDBRANCH  17  18
ENDBRANCH  14  17
BRANCH  15  24
HETATM   24  O   UNL     1      -5.684   0.081 -34.301  1.00  0.00    -0.349 OA
BRANCH  24  25
HETATM   25  C   UNL     1      -6.624  -0.764 -34.962  1.00  0.00     0.171 C 
HETATM   26  C   UNL     1      -7.822   0.028 -35.456  1.00  0.00     0.034 C 
ENDBRANCH  24  25
ENDBRANCH  15  24
ENDBRANCH   1  11
BRANCH   8  27
HETATM   27  C   UNL     1      -9.689   3.482 -32.325  1.00  0.00     0.256 C 
HETATM   28  N   UNL     1      -9.992   2.747 -33.452  1.00  0.00    -0.323 N 
HETATM   29  H   UNL     1      -9.303   2.749 -34.191  1.00  0.00     0.169 HD
HETATM   30  O   UNL     1     -10.296   3.534 -31.266  1.00  0.00    -0.267 OA
BRANCH  28  31
HETATM   31  C   UNL     1     -11.139   1.946 -33.672  1.00  0.00     0.041 A 
HETATM   32  C   UNL     1     -11.108   0.588 -33.280  1.00  0.00    -0.035 A 
HETATM   33  C   UNL     1      -9.906  -0.039 -32.626  1.00  0.00     0.050 C 
HETATM   34  C   UNL     1     -12.240  -0.219 -33.500  1.00  0.00     0.009 A 
HETATM   35  C   UNL     1     -13.384   0.300 -34.100  1.00  0.00     0.001 A 
HETATM   36  C   UNL     1     -13.411   1.632 -34.490  1.00  0.00     0.002 A 
HETATM   37  C   UNL     1     -12.297   2.448 -34.278  1.00  0.00     0.030 A 
ENDBRANCH  28  31
ENDBRANCH   8  27
TORSDOF 8
ENDMDL
MODEL 10
REMARK VINA RESULT:      -7.4      2.976      6.492
REMARK  8 active torsions:
REMARK  status: ('A' for Active; 'I' for Inactive)
REMARK    1  A    between atoms: C_2  and  O_3 
REMARK    2  A    between atoms: O_3  and  C_4 
REMARK    3  A    between atoms: C_5  and  O_6 
REMARK    4  A    between atoms: O_6  and  C_7 
REMARK    5  A    between atoms: C_7  and  C_8 
REMARK       I    between atoms: C_8  and  N_9 
REMARK    6  A    between atoms: C_13  and  C_14 
REMARK    7  A    between atoms: C_21  and  C_22 
REMARK       I    between atoms: C_22  and  N_23 
REMARK    8  A    between atoms: N_23  and  C_24 
ROOT
HETATM    1  C   UNL     1      -7.414   3.407 -33.707  1.00  0.00     0.160 C 
HETATM    2  N   UNL     1      -7.148   4.833 -33.677  1.00  0.00    -0.330 N 
HETATM    3  C   UNL     1      -6.635   5.504 -32.615  1.00  0.00     0.321 C 
HETATM    4  O   UNL     1      -6.575   6.729 -32.601  1.00  0.00    -0.247 OA
HETATM    5  N   UNL     1      -6.170   4.747 -31.581  1.00  0.00    -0.312 N 
HETATM    6  C   UNL     1      -6.185   3.372 -31.533  1.00  0.00     0.024 C 
HETATM    7  C   UNL     1      -5.555   2.748 -30.322  1.00  0.00     0.069 C 
HETATM    8  C   UNL     1      -6.752   2.711 -32.556  1.00  0.00     0.059 C 
HETATM    9  H   UNL     1      -7.536   5.419 -34.403  1.00  0.00     0.165 HD
HETATM   10  H   UNL     1      -5.775   5.278 -30.814  1.00  0.00     0.170 HD
ENDROOT
BRANCH   1  11
HETATM   11  C   UNL     1      -8.908   3.134 -33.794  1.00  0.00    -0.028 A 
HETATM   12  C   UNL     1      -9.401   1.927 -34.313  1.00  0.00     0.012 A 
HETATM   13  C   UNL     1     -10.774   1.720 -34.439  1.00  0.00     0.040 A 
HETATM   14  C   UNL     1     -11.667   2.731 -34.075  1.00  0.00     0.102 A 
HETATM   15  C   UNL     1     -11.202   3.942 -33.540  1.00  0.00     0.102 A 
HETATM   16  C   UNL     1      -9.823   4.133 -33.407  1.00  0.00     0.049 A 
BRANCH  14  17
HETATM   17  O   UNL     1     -13.025   2.553 -34.174  1.00  0.00    -0.339 OA
BRANCH  17  18
HETATM   18  C   UNL     1     -13.551   1.702 -33.153  1.00  0.00     0.278 C 
BRANCH  18  19
HETATM   19  C   UNL     1     -14.707   2.411 -32.453  1.00  0.00     0.239 C 
HETATM   20  N   UNL     1     -14.837   3.741 -32.745  1.00  0.00    -0.368 N 
HETATM   21  H   UNL     1     -14.067   4.223 -33.199  1.00  0.00     0.159 HD
HETATM   22  H   UNL     1     -15.536   4.274 -32.250  1.00  0.00     0.159 HD
HETATM   23  O   UNL     1     -15.512   1.839 -31.725  1.00  0.00    -0.271 OA
ENDBRANCH  18  19
ENDBRANCH  17  18
ENDBRANCH  14  17
BRANCH  15  24
HETATM   24  O   UNL     1     -12.166   4.864 -33.222  1.00  0.00    -0.349 OA
BRANCH  24  25
HETATM   25  C   UNL     1     -12.306   6.035 -34.025  1.00  0.00     0.171 C 
HETATM   26  C   UNL     1     -12.449   7.278 -33.163  1.00  0.00     0.034 C 
ENDBRANCH  24  25
ENDBRANCH  15  24
ENDBRANCH   1  11
BRANCH   8  27
HETATM   27  C   UNL     1      -6.810   1.229 -32.557  1.00  0.00     0.256 C 
HETATM   28  N   UNL     1      -6.014   0.687 -33.544  1.00  0.00    -0.323 N 
HETATM   29  H   UNL     1      -5.434   1.334 -34.062  1.00  0.00     0.169 HD
HETATM   30  O   UNL     1      -7.493   0.648 -31.727  1.00  0.00    -0.267 OA
BRANCH  28  31
HETATM   31  C   UNL     1      -5.875  -0.681 -33.881  1.00  0.00     0.041 A 
HETATM   32  C   UNL     1      -4.631  -1.315 -33.662  1.00  0.00    -0.035 A 
HETATM   33  C   UNL     1      -3.448  -0.595 -33.072  1.00  0.00     0.050 C 
HETATM   34  C   UNL     1      -4.480  -2.673 -34.000  1.00  0.00     0.009 A 
HETATM   35  C   UNL     1      -5.535  -3.396 -34.548  1.00  0.00     0.001 A 
HETATM   36  C   UNL     1      -6.756  -2.771 -34.768  1.00  0.00     0.002 A 
HETATM   37  C   UNL     1      -6.923  -1.424 -34.438  1.00  0.00     0.030 A 
ENDBRANCH  28  31
ENDBRANCH   8  27
TORSDOF 8
ENDMDL
