MODEL 1
REMARK VINA RESULT:      -9.5      0.000      0.000
REMARK  6 active torsions:
REMARK  status: ('A' for Active; 'I' for Inactive)
REMARK    1  A    between atoms: C_5  and  N_6 
REMARK    2  A    between atoms: N_6  and  C_7 
REMARK    3  A    between atoms: C_7  and  N_8 
REMARK    4  A    between atoms: C_11  and  C_12 
REMARK    5  A    between atoms: N_14  and  C_15 
REMARK    6  A    between atoms: C_21  and  O_22 
ROOT
HETATM    1  N   UNL     1      -3.223   4.281 -32.596  1.00  0.00    -0.358 N 
HETATM    2  C   UNL     1      -3.093   2.913 -32.073  1.00  0.00     0.126 C 
HETATM    3  C   UNL     1      -4.265   2.527 -31.172  1.00  0.00     0.031 C 
HETATM    4  C   UNL     1      -5.631   2.783 -31.834  1.00  0.00     0.043 C 
HETATM    5  C   UNL     1      -5.671   4.232 -32.353  1.00  0.00     0.031 C 
HETATM    6  C   UNL     1      -4.495   4.535 -33.276  1.00  0.00     0.126 C 
ENDROOT
BRANCH   4   7
HETATM    7  C   UNL     1      -6.014   1.781 -32.898  1.00  0.00     0.063 C 
HETATM    8  N   UNL     1      -5.778   0.473 -32.748  1.00  0.00    -0.169 NA
HETATM    9  N   UNL     1      -6.203  -0.105 -33.907  1.00  0.00    -0.211 N 
HETATM   10  C   UNL     1      -6.892   0.815 -34.697  1.00  0.00     0.165 C 
HETATM   11  C   UNL     1      -6.713   2.038 -34.098  1.00  0.00     0.087 C 
BRANCH   9  12
HETATM   12  C   UNL     1      -5.925  -1.478 -34.164  1.00  0.00     0.061 A 
HETATM   13  C   UNL     1      -4.602  -1.937 -34.080  1.00  0.00     0.031 A 
HETATM   14  C   UNL     1      -4.309  -3.283 -34.309  1.00  0.00     0.002 A 
HETATM   15  C   UNL     1      -5.327  -4.173 -34.643  1.00  0.00     0.000 A 
HETATM   16  C   UNL     1      -6.639  -3.717 -34.764  1.00  0.00     0.002 A 
HETATM   17  C   UNL     1      -6.941  -2.373 -34.529  1.00  0.00     0.031 A 
ENDBRANCH   9  12
BRANCH  10  18
HETATM   18  O   UNL     1      -7.616   0.528 -35.779  1.00  0.00    -0.345 OA
HETATM   19  H   UNL     1      -8.291   1.221 -35.894  1.00  0.00     0.219 HD
ENDBRANCH  10  18
ENDBRANCH   4   7
BRANCH   1  20
HETATM   20  C   UNL     1      -2.061   4.908 -33.024  1.00  0.00     0.174 C 
HETATM   21  S   UNL     1      -1.890   5.736 -34.477  1.00  0.00    -0.041 SA
BRANCH  20  22
HETATM   22  N   UNL     1      -0.939   4.805 -32.245  1.00  0.00    -0.333 N 
HETATM   23  H   UNL     1      -0.247   4.176 -32.637  1.00  0.00     0.168 HD
BRANCH  22  24
HETATM   24  C   UNL     1      -0.491   5.590 -31.161  1.00  0.00     0.034 A 
HETATM   25  C   UNL     1      -0.559   6.982 -31.124  1.00  0.00     0.030 A 
HETATM   26  C   UNL     1      -0.075   7.693 -30.020  1.00  0.00     0.009 A 
HETATM   27  C   UNL     1       0.515   7.020 -28.946  1.00  0.00    -0.062 A 
HETATM   28  C   UNL     1       1.006   7.774 -27.747  1.00  0.00     0.048 C 
HETATM   29  C   UNL     1       0.602   5.626 -28.988  1.00  0.00     0.009 A 
HETATM   30  C   UNL     1       0.112   4.918 -30.092  1.00  0.00     0.030 A 
ENDBRANCH  22  24
ENDBRANCH  20  22
ENDBRANCH   1  20
TORSDOF 6
ENDMDL
MODEL 2
REMARK VINA RESULT:      -9.3      2.879      9.814
REMARK  6 active torsions:
REMARK  status: ('A' for Active; 'I' for Inactive)
REMARK    1  A    between atoms: C_5  and  N_6 
REMARK    2  A    between atoms: N_6  and  C_7 
REMARK    3  A    between atoms: C_7  and  N_8 
REMARK    4  A    between atoms: C_11  and  C_12 
REMARK    5  A    between atoms: N_14  and  C_15 
REMARK    6  A    between atoms: C_21  and  O_22 
ROOT
HETATM    1  N   UNL     1      -4.580   3.588 -32.027  1.00  0.00    -0.358 N 
HETATM    2  C   UNL     1      -3.302   3.429 -32.738  1.00  0.00     0.126 C 
HETATM    3  C   UNL     1      -2.761   4.760 -33.256  1.00  0.00     0.031 C 
HETATM    4  C   UNL     1      -2.701   5.841 -32.161  1.00  0.00     0.043 C 
HETATM    5  C   UNL     1      -4.074   5.931 -31.473  1.00  0.00     0.031 C 
HETATM    6  C   UNL     1      -4.534   4.575 -30.946  1.00  0.00     0.126 C 
ENDROOT
BRANCH   4   7
HETATM    7  C   UNL     1      -1.571   5.674 -31.172  1.00  0.00     0.063 C 
HETATM    8  N   UNL     1      -1.439   6.480 -30.113  1.00  0.00    -0.169 NA
HETATM    9  N   UNL     1      -0.301   6.070 -29.487  1.00  0.00    -0.211 N 
HETATM   10  C   UNL     1       0.167   4.877 -30.038  1.00  0.00     0.165 C 
HETATM   11  C   UNL     1      -0.592   4.655 -31.161  1.00  0.00     0.087 C 
BRANCH   9  12
HETATM   12  C   UNL     1       0.243   6.838 -28.418  1.00  0.00     0.061 A 
HETATM   13  C   UNL     1       1.090   7.917 -28.712  1.00  0.00     0.031 A 
HETATM   14  C   UNL     1       1.620   8.696 -27.681  1.00  0.00     0.002 A 
HETATM   15  C   UNL     1       1.326   8.392 -26.354  1.00  0.00     0.000 A 
HETATM   16  C   UNL     1       0.514   7.299 -26.052  1.00  0.00     0.002 A 
HETATM   17  C   UNL     1      -0.025   6.520 -27.080  1.00  0.00     0.031 A 
ENDBRANCH   9  12
BRANCH  10  18
HETATM   18  O   UNL     1       1.123   4.101 -29.526  1.00  0.00    -0.345 OA
HETATM   19  H   UNL     1       1.142   4.229 -28.561  1.00  0.00     0.219 HD
ENDBRANCH  10  18
ENDBRANCH   4   7
BRANCH   1  20
HETATM   20  C   UNL     1      -5.389   2.465 -31.919  1.00  0.00     0.174 C 
HETATM   21  S   UNL     1      -5.789   1.700 -30.476  1.00  0.00    -0.041 SA
BRANCH  20  22
HETATM   22  N   UNL     1      -5.857   1.885 -33.067  1.00  0.00    -0.333 N 
HETATM   23  H   UNL     1      -6.094   2.566 -33.781  1.00  0.00     0.168 HD
BRANCH  22  24
HETATM   24  C   UNL     1      -5.825   0.544 -33.505  1.00  0.00     0.034 A 
HETATM   25  C   UNL     1      -4.760  -0.327 -33.278  1.00  0.00     0.030 A 
HETATM   26  C   UNL     1      -4.794  -1.639 -33.762  1.00  0.00     0.009 A 
HETATM   27  C   UNL     1      -5.885  -2.093 -34.508  1.00  0.00    -0.062 A 
HETATM   28  C   UNL     1      -5.941  -3.508 -35.001  1.00  0.00     0.048 C 
HETATM   29  C   UNL     1      -6.946  -1.217 -34.753  1.00  0.00     0.009 A 
HETATM   30  C   UNL     1      -6.910   0.093 -34.265  1.00  0.00     0.030 A 
ENDBRANCH  22  24
ENDBRANCH  20  22
ENDBRANCH   1  20
TORSDOF 6
ENDMDL
MODEL 3
REMARK VINA RESULT:      -9.1      4.626      8.026
REMARK  6 active torsions:
REMARK  status: ('A' for Active; 'I' for Inactive)
REMARK    1  A    between atoms: C_5  and  N_6 
REMARK    2  A    between atoms: N_6  and  C_7 
REMARK    3  A    between atoms: C_7  and  N_8 
REMARK    4  A    between atoms: C_11  and  C_12 
REMARK    5  A    between atoms: N_14  and  C_15 
REMARK    6  A    between atoms: C_21  and  O_22 
ROOT
HETATM    1  N   UNL     1      -5.943   1.938 -31.869  1.00  0.00    -0.358 N 
HETATM    2  C   UNL     1      -7.192   1.631 -31.156  1.00  0.00     0.126 C 
HETATM    3  C   UNL     1      -7.901   2.892 -30.668  1.00  0.00     0.031 C 
HETATM    4  C   UNL     1      -8.094   3.934 -31.785  1.00  0.00     0.043 C 
HETATM    5  C   UNL     1      -6.741   4.185 -32.473  1.00  0.00     0.031 C 
HETATM    6  C   UNL     1      -6.110   2.888 -32.971  1.00  0.00     0.126 C 
ENDROOT
BRANCH   4   7
HETATM    7  C   UNL     1      -9.190   3.604 -32.772  1.00  0.00     0.063 C 
HETATM    8  N   UNL     1     -10.320   3.000 -32.391  1.00  0.00    -0.169 NA
HETATM    9  N   UNL     1     -11.036   2.820 -33.536  1.00  0.00    -0.211 N 
HETATM   10  C   UNL     1     -10.444   3.496 -34.603  1.00  0.00     0.165 C 
HETATM   11  C   UNL     1      -9.227   3.936 -34.145  1.00  0.00     0.087 C 
BRANCH   9  12
HETATM   12  C   UNL     1     -12.222   2.030 -33.521  1.00  0.00     0.061 A 
HETATM   13  C   UNL     1     -13.448   2.641 -33.218  1.00  0.00     0.031 A 
HETATM   14  C   UNL     1     -14.625   1.891 -33.217  1.00  0.00     0.002 A 
HETATM   15  C   UNL     1     -14.585   0.527 -33.496  1.00  0.00     0.000 A 
HETATM   16  C   UNL     1     -13.366  -0.095 -33.763  1.00  0.00     0.002 A 
HETATM   17  C   UNL     1     -12.184   0.652 -33.773  1.00  0.00     0.031 A 
ENDBRANCH   9  12
BRANCH  10  18
HETATM   18  O   UNL     1     -10.996   3.704 -35.799  1.00  0.00    -0.345 OA
HETATM   19  H   UNL     1     -10.737   2.975 -36.391  1.00  0.00     0.219 HD
ENDBRANCH  10  18
ENDBRANCH   4   7
BRANCH   1  20
HETATM   20  C   UNL     1      -4.996   0.925 -31.952  1.00  0.00     0.174 C 
HETATM   21  S   UNL     1      -4.045   0.386 -30.675  1.00  0.00    -0.041 SA
BRANCH  20  22
HETATM   22  N   UNL     1      -4.762   0.351 -33.173  1.00  0.00    -0.333 N 
HETATM   23  H   UNL     1      -3.976   0.769 -33.658  1.00  0.00     0.168 HD
BRANCH  22  24
HETATM   24  C   UNL     1      -5.247  -0.848 -33.739  1.00  0.00     0.034 A 
HETATM   25  C   UNL     1      -6.582  -1.066 -34.082  1.00  0.00     0.030 A 
HETATM   26  C   UNL     1      -6.990  -2.290 -34.621  1.00  0.00     0.009 A 
HETATM   27  C   UNL     1      -6.073  -3.330 -34.797  1.00  0.00    -0.062 A 
HETATM   28  C   UNL     1      -6.500  -4.633 -35.404  1.00  0.00     0.048 C 
HETATM   29  C   UNL     1      -4.739  -3.122 -34.436  1.00  0.00     0.009 A 
HETATM   30  C   UNL     1      -4.333  -1.895 -33.901  1.00  0.00     0.030 A 
ENDBRANCH  22  24
ENDBRANCH  20  22
ENDBRANCH   1  20
TORSDOF 6
ENDMDL
MODEL 4
REMARK VINA RESULT:      -9.1      2.837      9.404
REMARK  6 active torsions:
REMARK  status: ('A' for Active; 'I' for Inactive)
REMARK    1  A    between atoms: C_5  and  N_6 
REMARK    2  A    between atoms: N_6  and  C_7 
REMARK    3  A    between atoms: C_7  and  N_8 
REMARK    4  A    between atoms: C_11  and  C_12 
REMARK    5  A    between atoms: N_14  and  C_15 
REMARK    6  A    between atoms: C_21  and  O_22 
ROOT
HETATM    1  N   UNL     1      -4.996   3.933 -33.589  1.00  0.00    -0.358 N 
HETATM    2  C   UNL     1      -4.063   3.590 -32.505  1.00  0.00     0.126 C 
HETATM    3  C   UNL     1      -2.613   3.556 -32.983  1.00  0.00     0.031 C 
HETATM    4  C   UNL     1      -2.206   4.836 -33.735  1.00  0.00     0.043 C 
HETATM    5  C   UNL     1      -3.239   5.116 -34.840  1.00  0.00     0.031 C 
HETATM    6  C   UNL     1      -4.659   5.177 -34.286  1.00  0.00     0.126 C 
ENDROOT
BRANCH   4   7
HETATM    7  C   UNL     1      -1.970   6.038 -32.849  1.00  0.00     0.063 C 
HETATM    8  N   UNL     1      -1.314   5.938 -31.689  1.00  0.00    -0.169 NA
HETATM    9  N   UNL     1      -1.338   7.190 -31.151  1.00  0.00    -0.211 N 
HETATM   10  C   UNL     1      -1.830   8.115 -32.072  1.00  0.00     0.165 C 
HETATM   11  C   UNL     1      -2.307   7.381 -33.130  1.00  0.00     0.087 C 
BRANCH   9  12
HETATM   12  C   UNL     1      -0.889   7.404 -29.817  1.00  0.00     0.061 A 
HETATM   13  C   UNL     1      -1.834   7.524 -28.787  1.00  0.00     0.031 A 
HETATM   14  C   UNL     1      -1.415   7.714 -27.468  1.00  0.00     0.002 A 
HETATM   15  C   UNL     1      -0.058   7.807 -27.172  1.00  0.00     0.000 A 
HETATM   16  C   UNL     1       0.886   7.725 -28.195  1.00  0.00     0.002 A 
HETATM   17  C   UNL     1       0.475   7.527 -29.516  1.00  0.00     0.031 A 
ENDBRANCH   9  12
BRANCH  10  18
HETATM   18  O   UNL     1      -1.785   9.442 -31.946  1.00  0.00    -0.345 OA
HETATM   19  H   UNL     1      -2.571   9.822 -32.378  1.00  0.00     0.219 HD
ENDBRANCH  10  18
ENDBRANCH   4   7
BRANCH   1  20
HETATM   20  C   UNL     1      -6.323   3.557 -33.425  1.00  0.00     0.174 C 
HETATM   21  S   UNL     1      -7.650   4.527 -33.775  1.00  0.00    -0.041 SA
BRANCH  20  22
HETATM   22  N   UNL     1      -6.590   2.330 -32.881  1.00  0.00    -0.333 N 
HETATM   23  H   UNL     1      -7.088   2.392 -32.000  1.00  0.00     0.168 HD
BRANCH  22  24
HETATM   24  C   UNL     1      -6.520   1.036 -33.441  1.00  0.00     0.034 A 
HETATM   25  C   UNL     1      -7.266   0.621 -34.545  1.00  0.00     0.030 A 
HETATM   26  C   UNL     1      -7.157  -0.686 -35.030  1.00  0.00     0.009 A 
HETATM   27  C   UNL     1      -6.321  -1.611 -34.397  1.00  0.00    -0.062 A 
HETATM   28  C   UNL     1      -6.176  -3.004 -34.933  1.00  0.00     0.048 C 
HETATM   29  C   UNL     1      -5.587  -1.204 -33.280  1.00  0.00     0.009 A 
HETATM   30  C   UNL     1      -5.695   0.105 -32.800  1.00  0.00     0.030 A 
ENDBRANCH  22  24
ENDBRANCH  20  22
ENDBRANCH   1  20
TORSDOF 6
ENDMDL
MODEL 5
REMARK VINA RESULT:      -9.0      1.683      2.307
REMARK  6 active torsions:
REMARK  status: ('A' for Active; 'I' for Inactive)
REMARK    1  A    between atoms: C_5  and  N_6 
REMARK    2  A    between atoms: N_6  and  C_7 
REMARK    3  A    between atoms: C_7  and  N_8 
REMARK    4  A    between atoms: C_11  and  C_12 
REMARK    5  A    between atoms: N_14  and  C_15 
REMARK    6  A    between atoms: C_21  and  O_22 
ROOT
HETATM    1  N   UNL     1      -2.962   5.098 -32.544  1.00  0.00    -0.358 N 
HETATM    2  C   UNL     1      -3.140   4.481 -31.221  1.00  0.00     0.126 C 
HETATM    3  C   UNL     1      -4.604   4.159 -30.928  1.00  0.00     0.031 C 
HETATM    4  C   UNL     1      -5.270   3.350 -32.056  1.00  0.00     0.043 C 
HETATM    5  C   UNL     1      -5.026   4.066 -33.396  1.00  0.00     0.031 C 
HETATM    6  C   UNL     1      -3.542   4.319 -33.641  1.00  0.00     0.126 C 
ENDROOT
BRANCH   4   7
HETATM    7  C   UNL     1      -4.875   1.892 -32.102  1.00  0.00     0.063 C 
HETATM    8  N   UNL     1      -5.307   1.078 -33.071  1.00  0.00    -0.169 NA
HETATM    9  N   UNL     1      -4.800  -0.149 -32.764  1.00  0.00    -0.211 N 
HETATM   10  C   UNL     1      -3.882  -0.059 -31.717  1.00  0.00     0.165 C 
HETATM   11  C   UNL     1      -3.979   1.224 -31.238  1.00  0.00     0.087 C 
BRANCH   9  12
HETATM   12  C   UNL     1      -5.221  -1.299 -33.491  1.00  0.00     0.061 A 
HETATM   13  C   UNL     1      -6.587  -1.478 -33.757  1.00  0.00     0.031 A 
HETATM   14  C   UNL     1      -7.021  -2.588 -34.485  1.00  0.00     0.002 A 
HETATM   15  C   UNL     1      -6.102  -3.534 -34.931  1.00  0.00     0.000 A 
HETATM   16  C   UNL     1      -4.747  -3.382 -34.639  1.00  0.00     0.002 A 
HETATM   17  C   UNL     1      -4.305  -2.270 -33.917  1.00  0.00     0.031 A 
ENDBRANCH   9  12
BRANCH  10  18
HETATM   18  O   UNL     1      -3.053  -1.024 -31.319  1.00  0.00    -0.345 OA
HETATM   19  H   UNL     1      -2.209  -0.924 -31.795  1.00  0.00     0.219 HD
ENDBRANCH  10  18
ENDBRANCH   4   7
BRANCH   1  20
HETATM   20  C   UNL     1      -1.807   5.842 -32.746  1.00  0.00     0.174 C 
HETATM   21  S   UNL     1      -1.663   7.129 -33.818  1.00  0.00    -0.041 SA
BRANCH  20  22
HETATM   22  N   UNL     1      -0.671   5.477 -32.074  1.00  0.00    -0.333 N 
HETATM   23  H   UNL     1      -0.007   4.987 -32.664  1.00  0.00     0.168 HD
BRANCH  22  24
HETATM   24  C   UNL     1      -0.173   5.876 -30.815  1.00  0.00     0.034 A 
HETATM   25  C   UNL     1       0.360   4.997 -29.872  1.00  0.00     0.030 A 
HETATM   26  C   UNL     1       0.816   5.466 -28.635  1.00  0.00     0.009 A 
HETATM   27  C   UNL     1       0.716   6.822 -28.310  1.00  0.00    -0.062 A 
HETATM   28  C   UNL     1       1.233   7.334 -26.999  1.00  0.00     0.048 C 
HETATM   29  C   UNL     1       0.165   7.702 -29.245  1.00  0.00     0.009 A 
HETATM   30  C   UNL     1      -0.286   7.230 -30.482  1.00  0.00     0.030 A 
ENDBRANCH  22  24
ENDBRANCH  20  22
ENDBRANCH   1  20
TORSDOF 6
ENDMDL
MODEL 6
REMARK VINA RESULT:      -8.7      1.914      2.384
REMARK  6 active torsions:
REMARK  status: ('A' for Active; 'I' for Inactive)
REMARK    1  A    between atoms: C_5  and  N_6 
REMARK    2  A    between atoms: N_6  and  C_7 
REMARK    3  A    between atoms: C_7  and  N_8 
REMARK    4  A    between atoms: C_11  and  C_12 
REMARK    5  A    between atoms: N_14  and  C_15 
REMARK    6  A    between atoms: C_21  and  O_22 
ROOT
HETATM    1  N   UNL     1      -4.121   5.641 -33.232  1.00  0.00    -0.358 N 
HETATM    2  C   UNL     1      -4.364   5.402 -31.802  1.00  0.00     0.126 C 
HETATM    3  C   UNL     1      -5.848   5.490 -31.447  1.00  0.00     0.031 C 
HETATM    4  C   UNL     1      -6.727   4.610 -32.354  1.00  0.00     0.043 C 
HETATM    5  C   UNL     1      -6.399   4.924 -33.825  1.00  0.00     0.031 C 
HETATM    6  C   UNL     1      -4.909   4.778 -34.116  1.00  0.00     0.126 C 
ENDROOT
BRANCH   4   7
HETATM    7  C   UNL     1      -6.660   3.130 -32.054  1.00  0.00     0.063 C 
HETATM    8  N   UNL     1      -6.203   2.251 -32.952  1.00  0.00    -0.169 NA
HETATM    9  N   UNL     1      -6.336   1.031 -32.361  1.00  0.00    -0.211 N 
HETATM   10  C   UNL     1      -6.683   1.165 -31.016  1.00  0.00     0.165 C 
HETATM   11  C   UNL     1      -6.966   2.496 -30.829  1.00  0.00     0.087 C 
BRANCH   9  12
HETATM   12  C   UNL     1      -6.117  -0.157 -33.116  1.00  0.00     0.061 A 
HETATM   13  C   UNL     1      -4.820  -0.684 -33.203  1.00  0.00     0.031 A 
HETATM   14  C   UNL     1      -4.585  -1.858 -33.921  1.00  0.00     0.002 A 
HETATM   15  C   UNL     1      -5.634  -2.500 -34.574  1.00  0.00     0.000 A 
HETATM   16  C   UNL     1      -6.920  -1.963 -34.522  1.00  0.00     0.002 A 
HETATM   17  C   UNL     1      -7.164  -0.792 -33.799  1.00  0.00     0.031 A 
ENDBRANCH   9  12
BRANCH  10  18
HETATM   18  O   UNL     1      -6.680   0.190 -30.107  1.00  0.00    -0.345 OA
HETATM   19  H   UNL     1      -6.130  -0.542 -30.439  1.00  0.00     0.219 HD
ENDBRANCH  10  18
ENDBRANCH   4   7
BRANCH   1  20
HETATM   20  C   UNL     1      -2.844   6.043 -33.599  1.00  0.00     0.174 C 
HETATM   21  S   UNL     1      -1.844   5.219 -34.670  1.00  0.00    -0.041 SA
BRANCH  20  22
HETATM   22  N   UNL     1      -2.317   7.159 -33.008  1.00  0.00    -0.333 N 
HETATM   23  H   UNL     1      -2.755   8.016 -33.328  1.00  0.00     0.168 HD
BRANCH  22  24
HETATM   24  C   UNL     1      -1.476   7.300 -31.883  1.00  0.00     0.034 A 
HETATM   25  C   UNL     1      -0.226   6.693 -31.761  1.00  0.00     0.030 A 
HETATM   26  C   UNL     1       0.542   6.864 -30.605  1.00  0.00     0.009 A 
HETATM   27  C   UNL     1       0.058   7.623 -29.537  1.00  0.00    -0.062 A 
HETATM   28  C   UNL     1       0.891   7.836 -28.308  1.00  0.00     0.048 C 
HETATM   29  C   UNL     1      -1.202   8.218 -29.648  1.00  0.00     0.009 A 
HETATM   30  C   UNL     1      -1.966   8.048 -30.807  1.00  0.00     0.030 A 
ENDBRANCH  22  24
ENDBRANCH  20  22
ENDBRANCH   1  20
TORSDOF 6
ENDMDL
MODEL 7
REMARK VINA RESULT:      -8.6      2.714      9.364
REMARK  6 active torsions:
REMARK  status: ('A' for Active; 'I' for Inactive)
REMARK    1  A    between atoms: C_5  and  N_6 
REMARK    2  A    between atoms: N_6  and  C_7 
REMARK    3  A    between atoms: C_7  and  N_8 
REMARK    4  A    between atoms: C_11  and  C_12 
REMARK    5  A    between atoms: N_14  and  C_15 
REMARK    6  A    between atoms: C_21  and  O_22 
ROOT
HETATM    1  N   UNL     1      -5.425   2.529 -32.179  1.00  0.00    -0.358 N 
HETATM    2  C   UNL     1      -4.975   2.991 -33.501  1.00  0.00     0.126 C 
HETATM    3  C   UNL     1      -5.593   4.336 -33.881  1.00  0.00     0.031 C 
HETATM    4  C   UNL     1      -5.413   5.402 -32.785  1.00  0.00     0.043 C 
HETATM    5  C   UNL     1      -5.903   4.828 -31.444  1.00  0.00     0.031 C 
HETATM    6  C   UNL     1      -5.216   3.507 -31.109  1.00  0.00     0.126 C 
ENDROOT
BRANCH   4   7
HETATM    7  C   UNL     1      -4.019   5.978 -32.690  1.00  0.00     0.063 C 
HETATM    8  N   UNL     1      -3.392   6.110 -31.516  1.00  0.00    -0.169 NA
HETATM    9  N   UNL     1      -2.200   6.701 -31.808  1.00  0.00    -0.211 N 
HETATM   10  C   UNL     1      -1.995   6.751 -33.187  1.00  0.00     0.165 C 
HETATM   11  C   UNL     1      -3.181   6.362 -33.760  1.00  0.00     0.087 C 
BRANCH   9  12
HETATM   12  C   UNL     1      -1.354   7.161 -30.758  1.00  0.00     0.061 A 
HETATM   13  C   UNL     1      -1.804   8.191 -29.918  1.00  0.00     0.031 A 
HETATM   14  C   UNL     1      -1.000   8.645 -28.871  1.00  0.00     0.002 A 
HETATM   15  C   UNL     1       0.261   8.092 -28.668  1.00  0.00     0.000 A 
HETATM   16  C   UNL     1       0.730   7.093 -29.520  1.00  0.00     0.002 A 
HETATM   17  C   UNL     1      -0.072   6.629 -30.566  1.00  0.00     0.031 A 
ENDBRANCH   9  12
BRANCH  10  18
HETATM   18  O   UNL     1      -0.852   7.065 -33.796  1.00  0.00    -0.345 OA
HETATM   19  H   UNL     1      -0.496   6.263 -34.221  1.00  0.00     0.219 HD
ENDBRANCH  10  18
ENDBRANCH   4   7
BRANCH   1  20
HETATM   20  C   UNL     1      -5.325   1.169 -31.917  1.00  0.00     0.174 C 
HETATM   21  S   UNL     1      -5.859   0.416 -30.511  1.00  0.00    -0.041 SA
BRANCH  20  22
HETATM   22  N   UNL     1      -4.693   0.373 -32.833  1.00  0.00    -0.333 N 
HETATM   23  H   UNL     1      -3.712   0.605 -32.944  1.00  0.00     0.168 HD
BRANCH  22  24
HETATM   24  C   UNL     1      -5.094  -0.837 -33.440  1.00  0.00     0.034 A 
HETATM   25  C   UNL     1      -4.259  -1.941 -33.608  1.00  0.00     0.030 A 
HETATM   26  C   UNL     1      -4.724  -3.100 -34.238  1.00  0.00     0.009 A 
HETATM   27  C   UNL     1      -6.028  -3.161 -34.738  1.00  0.00    -0.062 A 
HETATM   28  C   UNL     1      -6.542  -4.413 -35.386  1.00  0.00     0.048 C 
HETATM   29  C   UNL     1      -6.862  -2.050 -34.588  1.00  0.00     0.009 A 
HETATM   30  C   UNL     1      -6.394  -0.894 -33.954  1.00  0.00     0.030 A 
ENDBRANCH  22  24
ENDBRANCH  20  22
ENDBRANCH   1  20
TORSDOF 6
ENDMDL
MODEL 8
REMARK VINA RESULT:      -8.2      2.347      3.134
REMARK  6 active torsions:
REMARK  status: ('A' for Active; 'I' for Inactive)
REMARK    1  A    between atoms: C_5  and  N_6 
REMARK    2  A    between atoms: N_6  and  C_7 
REMARK    3  A    between atoms: C_7  and  N_8 
REMARK    4  A    between atoms: C_11  and  C_12 
REMARK    5  A    between atoms: N_14  and  C_15 
REMARK    6  A    between atoms: C_21  and  O_22 
ROOT
HETATM    1  N   UNL     1      -3.732   6.284 -30.793  1.00  0.00    -0.358 N 
HETATM    2  C   UNL     1      -5.197   6.218 -30.683  1.00  0.00     0.126 C 
HETATM    3  C   UNL     1      -5.874   6.134 -32.049  1.00  0.00     0.031 C 
HETATM    4  C   UNL     1      -5.293   5.012 -32.930  1.00  0.00     0.043 C 
HETATM    5  C   UNL     1      -3.762   5.159 -32.981  1.00  0.00     0.031 C 
HETATM    6  C   UNL     1      -3.151   5.196 -31.583  1.00  0.00     0.126 C 
ENDROOT
BRANCH   4   7
HETATM    7  C   UNL     1      -5.725   3.617 -32.540  1.00  0.00     0.063 C 
HETATM    8  N   UNL     1      -5.356   2.544 -33.247  1.00  0.00    -0.169 NA
HETATM    9  N   UNL     1      -5.963   1.486 -32.641  1.00  0.00    -0.211 N 
HETATM   10  C   UNL     1      -6.545   1.873 -31.433  1.00  0.00     0.165 C 
HETATM   11  C   UNL     1      -6.465   3.243 -31.396  1.00  0.00     0.087 C 
BRANCH   9  12
HETATM   12  C   UNL     1      -5.935   0.200 -33.252  1.00  0.00     0.061 A 
HETATM   13  C   UNL     1      -4.823  -0.631 -33.047  1.00  0.00     0.031 A 
HETATM   14  C   UNL     1      -4.783  -1.904 -33.620  1.00  0.00     0.002 A 
HETATM   15  C   UNL     1      -5.838  -2.347 -34.415  1.00  0.00     0.000 A 
HETATM   16  C   UNL     1      -6.929  -1.513 -34.652  1.00  0.00     0.002 A 
HETATM   17  C   UNL     1      -6.980  -0.240 -34.076  1.00  0.00     0.031 A 
ENDBRANCH   9  12
BRANCH  10  18
HETATM   18  O   UNL     1      -7.025   1.052 -30.499  1.00  0.00    -0.345 OA
HETATM   19  H   UNL     1      -6.756   1.387 -29.624  1.00  0.00     0.219 HD
ENDBRANCH  10  18
ENDBRANCH   4   7
BRANCH   1  20
HETATM   20  C   UNL     1      -3.039   6.815 -29.713  1.00  0.00     0.174 C 
HETATM   21  S   UNL     1      -3.598   8.054 -28.724  1.00  0.00    -0.041 SA
BRANCH  20  22
HETATM   22  N   UNL     1      -1.778   6.349 -29.455  1.00  0.00    -0.333 N 
HETATM   23  H   UNL     1      -1.449   5.698 -30.159  1.00  0.00     0.168 HD
BRANCH  22  24
HETATM   24  C   UNL     1      -0.795   6.799 -28.547  1.00  0.00     0.034 A 
HETATM   25  C   UNL     1      -0.743   6.427 -27.204  1.00  0.00     0.030 A 
HETATM   26  C   UNL     1       0.252   6.931 -26.360  1.00  0.00     0.009 A 
HETATM   27  C   UNL     1       1.197   7.842 -26.842  1.00  0.00    -0.062 A 
HETATM   28  C   UNL     1       2.285   8.360 -25.950  1.00  0.00     0.048 C 
HETATM   29  C   UNL     1       1.136   8.231 -28.183  1.00  0.00     0.009 A 
HETATM   30  C   UNL     1       0.142   7.722 -29.025  1.00  0.00     0.030 A 
ENDBRANCH  22  24
ENDBRANCH  20  22
ENDBRANCH   1  20
TORSDOF 6
ENDMDL
MODEL 9
REMARK VINA RESULT:      -8.1      3.951      8.459
REMARK  6 active torsions:
REMARK  status: ('A' for Active; 'I' for Inactive)
REMARK    1  A    between atoms: C_5  and  N_6 
REMARK    2  A    between atoms: N_6  and  C_7 
REMARK    3  A    between atoms: C_7  and  N_8 
REMARK    4  A    between atoms: C_11  and  C_12 
REMARK    5  A    between atoms: N_14  and  C_15 
REMARK    6  A    between atoms: C_21  and  O_22 
ROOT
HETATM    1  N   UNL     1      -9.462   3.169 -32.681  1.00  0.00    -0.358 N 
HETATM    2  C   UNL     1      -8.669   3.754 -33.773  1.00  0.00     0.126 C 
HETATM    3  C   UNL     1      -8.689   5.281 -33.744  1.00  0.00     0.031 C 
HETATM    4  C   UNL     1      -8.314   5.853 -32.365  1.00  0.00     0.043 C 
HETATM    5  C   UNL     1      -9.187   5.180 -31.291  1.00  0.00     0.031 C 
HETATM    6  C   UNL     1      -9.087   3.659 -31.353  1.00  0.00     0.126 C 
ENDROOT
BRANCH   4   7
HETATM    7  C   UNL     1      -6.841   5.785 -32.035  1.00  0.00     0.063 C 
HETATM    8  N   UNL     1      -5.904   6.094 -32.937  1.00  0.00    -0.169 NA
HETATM    9  N   UNL     1      -4.714   5.873 -32.311  1.00  0.00    -0.211 N 
HETATM   10  C   UNL     1      -4.907   5.622 -30.952  1.00  0.00     0.165 C 
HETATM   11  C   UNL     1      -6.262   5.489 -30.780  1.00  0.00     0.087 C 
BRANCH   9  12
HETATM   12  C   UNL     1      -3.497   5.923 -33.050  1.00  0.00     0.061 A 
HETATM   13  C   UNL     1      -2.640   7.021 -32.884  1.00  0.00     0.031 A 
HETATM   14  C   UNL     1      -1.433   7.082 -33.583  1.00  0.00     0.002 A 
HETATM   15  C   UNL     1      -1.084   6.063 -34.466  1.00  0.00     0.000 A 
HETATM   16  C   UNL     1      -1.947   4.986 -34.664  1.00  0.00     0.002 A 
HETATM   17  C   UNL     1      -3.154   4.915 -33.962  1.00  0.00     0.031 A 
ENDBRANCH   9  12
BRANCH  10  18
HETATM   18  O   UNL     1      -3.952   5.580 -30.023  1.00  0.00    -0.345 OA
HETATM   19  H   UNL     1      -3.100   5.797 -30.442  1.00  0.00     0.219 HD
ENDBRANCH  10  18
ENDBRANCH   4   7
BRANCH   1  20
HETATM   20  C   UNL     1      -9.904   1.863 -32.849  1.00  0.00     0.174 C 
HETATM   21  S   UNL     1     -11.257   1.410 -33.738  1.00  0.00    -0.041 SA
BRANCH  20  22
HETATM   22  N   UNL     1      -9.236   0.860 -32.200  1.00  0.00    -0.333 N 
HETATM   23  H   UNL     1      -9.796   0.420 -31.477  1.00  0.00     0.168 HD
BRANCH  22  24
HETATM   24  C   UNL     1      -8.039   0.186 -32.523  1.00  0.00     0.034 A 
HETATM   25  C   UNL     1      -6.933   0.110 -31.677  1.00  0.00     0.030 A 
HETATM   26  C   UNL     1      -5.772  -0.560 -32.076  1.00  0.00     0.009 A 
HETATM   27  C   UNL     1      -5.688  -1.140 -33.345  1.00  0.00    -0.062 A 
HETATM   28  C   UNL     1      -4.457  -1.887 -33.766  1.00  0.00     0.048 C 
HETATM   29  C   UNL     1      -6.788  -1.049 -34.203  1.00  0.00     0.009 A 
HETATM   30  C   UNL     1      -7.949  -0.382 -33.798  1.00  0.00     0.030 A 
ENDBRANCH  22  24
ENDBRANCH  20  22
ENDBRANCH   1  20
TORSDOF 6
ENDMDL
MODEL 10
REMARK VINA RESULT:      -8.1      2.210      3.533
REMARK  6 active torsions:
REMARK  status: ('A' for Active; 'I' for Inactive)
REMARK    1  A    between atoms: C_5  and  N_6 
REMARK    2  A    between atoms: N_6  and  C_7 
REMARK    3  A    between atoms: C_7  and  N_8 
REMARK    4  A    between atoms: C_11  and  C_12 
REMARK    5  A    between atoms: N_14  and  C_15 
REMARK    6  A    between atoms: C_21  and  O_22 
ROOT
HETATM    1  N   UNL     1      -3.406   4.635 -32.414  1.00  0.00    -0.358 N 
HETATM    2  C   UNL     1      -3.073   3.233 -32.710  1.00  0.00     0.126 C 
HETATM    3  C   UNL     1      -3.597   2.278 -31.640  1.00  0.00     0.031 C 
HETATM    4  C   UNL     1      -5.094   2.483 -31.344  1.00  0.00     0.043 C 
HETATM    5  C   UNL     1      -5.346   3.973 -31.053  1.00  0.00     0.031 C 
HETATM    6  C   UNL     1      -4.834   4.865 -32.181  1.00  0.00     0.126 C 
ENDROOT
BRANCH   4   7
HETATM    7  C   UNL     1      -6.026   1.938 -32.401  1.00  0.00     0.063 C 
HETATM    8  N   UNL     1      -7.313   2.297 -32.456  1.00  0.00    -0.169 NA
HETATM    9  N   UNL     1      -7.843   1.580 -33.486  1.00  0.00    -0.211 N 
HETATM   10  C   UNL     1      -6.841   0.928 -34.205  1.00  0.00     0.165 C 
HETATM   11  C   UNL     1      -5.688   1.088 -33.478  1.00  0.00     0.087 C 
BRANCH   9  12
HETATM   12  C   UNL     1      -9.251   1.578 -33.706  1.00  0.00     0.061 A 
HETATM   13  C   UNL     1     -10.015   0.497 -33.239  1.00  0.00     0.031 A 
HETATM   14  C   UNL     1     -11.398   0.483 -33.426  1.00  0.00     0.002 A 
HETATM   15  C   UNL     1     -12.024   1.533 -34.094  1.00  0.00     0.000 A 
HETATM   16  C   UNL     1     -11.267   2.592 -34.592  1.00  0.00     0.002 A 
HETATM   17  C   UNL     1      -9.883   2.616 -34.403  1.00  0.00     0.031 A 
ENDBRANCH   9  12
BRANCH  10  18
HETATM   18  O   UNL     1      -6.992   0.326 -35.385  1.00  0.00    -0.345 OA
HETATM   19  H   UNL     1      -6.700   0.937 -36.085  1.00  0.00     0.219 HD
ENDBRANCH  10  18
ENDBRANCH   4   7
BRANCH   1  20
HETATM   20  C   UNL     1      -2.627   5.612 -33.019  1.00  0.00     0.174 C 
HETATM   21  S   UNL     1      -1.865   5.452 -34.510  1.00  0.00    -0.041 SA
BRANCH  20  22
HETATM   22  N   UNL     1      -2.400   6.778 -32.340  1.00  0.00    -0.333 N 
HETATM   23  H   UNL     1      -3.140   7.459 -32.472  1.00  0.00     0.168 HD
BRANCH  22  24
HETATM   24  C   UNL     1      -1.475   7.089 -31.321  1.00  0.00     0.034 A 
HETATM   25  C   UNL     1      -0.161   6.620 -31.288  1.00  0.00     0.030 A 
HETATM   26  C   UNL     1       0.692   6.956 -30.232  1.00  0.00     0.009 A 
HETATM   27  C   UNL     1       0.234   7.745 -29.173  1.00  0.00    -0.062 A 
HETATM   28  C   UNL     1       1.154   8.134 -28.055  1.00  0.00     0.048 C 
HETATM   29  C   UNL     1      -1.087   8.201 -29.193  1.00  0.00     0.009 A 
HETATM   30  C   UNL     1      -1.936   7.866 -30.253  1.00  0.00     0.030 A 
ENDBRANCH  22  24
ENDBRANCH  20  22
ENDBRANCH   1  20
TORSDOF 6
ENDMDL
