MODEL 1
REMARK VINA RESULT:      -9.6      0.000      0.000
REMARK  6 active torsions:
REMARK  status: ('A' for Active; 'I' for Inactive)
REMARK    1  A    between atoms: C_2  and  O_3 
REMARK    2  A    between atoms: O_3  and  C_4 
REMARK    3  A    between atoms: C_5  and  O_6 
REMARK    4  A    between atoms: O_6  and  C_7 
REMARK    5  A    between atoms: C_7  and  C_8 
REMARK    6  A    between atoms: C_18  and  C_19 
ROOT
HETATM    1  C   UNL     1      -5.402   4.417 -33.763  1.00  0.00     0.103 A 
HETATM    2  C   UNL     1      -5.250   3.218 -33.061  1.00  0.00     0.112 A 
HETATM    3  C   UNL     1      -4.010   2.811 -32.574  1.00  0.00     0.041 A 
HETATM    4  C   UNL     1      -2.903   3.637 -32.748  1.00  0.00     0.014 A 
HETATM    5  C   UNL     1      -3.015   4.864 -33.433  1.00  0.00    -0.013 A 
HETATM    6  C   UNL     1      -4.277   5.228 -33.950  1.00  0.00     0.050 A 
ENDROOT
BRANCH   5   7
HETATM    7  C   UNL     1      -1.766   5.722 -33.586  1.00  0.00     0.219 C 
HETATM    8  N   UNL     1      -2.050   7.113 -33.334  1.00  0.00    -0.332 N 
HETATM    9  C   UNL     1      -1.920   7.713 -32.114  1.00  0.00     0.256 C 
HETATM   10  H   UNL     1      -2.681   7.587 -33.962  1.00  0.00     0.165 HD
HETATM   11  O   UNL     1      -2.440   8.796 -31.865  1.00  0.00    -0.267 OA
HETATM   12  C   UNL     1      -1.086   7.006 -31.161  1.00  0.00     0.073 A 
HETATM   13  C   UNL     1      -0.478   5.835 -31.547  1.00  0.00     0.088 A 
HETATM   14  C   UNL     1      -0.753   7.361 -29.816  1.00  0.00    -0.023 A 
HETATM   15  S   UNL     1       0.496   5.169 -30.322  1.00  0.00    -0.074 SA
HETATM   16  N   UNL     1      -0.649   5.287 -32.768  1.00  0.00    -0.358 N 
HETATM   17  C   UNL     1       0.112   6.439 -29.256  1.00  0.00     0.018 A 
HETATM   18  C   UNL     1       0.656   6.508 -27.871  1.00  0.00     0.281 C 
HETATM   19  N   UNL     1       0.471   7.898 -27.271  1.00  0.00    -0.070 N 
HETATM   20  C   UNL     1      -0.925   8.450 -27.556  1.00  0.00     0.239 C 
HETATM   21  H   UNL     1       0.536   7.778 -26.253  1.00  0.00     0.279 HD
HETATM   22  C   UNL     1       1.574   8.844 -27.654  1.00  0.00     0.270 C 
HETATM   23  C   UNL     1      -1.208   8.577 -29.063  1.00  0.00     0.068 C 
HETATM   24  H   UNL     1      -0.318   4.346 -32.963  1.00  0.00     0.162 HD
ENDBRANCH   5   7
BRANCH   1  25
HETATM   25  O   UNL     1      -6.655   4.693 -34.242  1.00  0.00    -0.349 OA
BRANCH  25  26
HETATM   26  C   UNL     1      -7.467   5.552 -33.445  1.00  0.00     0.171 C 
HETATM   27  C   UNL     1      -8.918   5.160 -33.660  1.00  0.00     0.034 C 
ENDBRANCH  25  26
ENDBRANCH   1  25
BRANCH   2  28
HETATM   28  O   UNL     1      -6.347   2.380 -32.852  1.00  0.00    -0.272 OA
BRANCH  28  29
HETATM   29  C   UNL     1      -5.992   1.273 -32.110  1.00  0.00     0.300 C 
HETATM   30  O   UNL     1      -5.840   1.194 -30.900  1.00  0.00    -0.259 OA
BRANCH  29  31
HETATM   31  C   UNL     1      -5.895   0.097 -32.998  1.00  0.00     0.061 A 
HETATM   32  C   UNL     1      -4.815  -0.795 -32.985  1.00  0.00     0.050 A 
HETATM   33 CL   UNL     1      -3.475  -0.646 -31.905  1.00  0.00    -0.083 Cl
HETATM   34  C   UNL     1      -4.826  -1.905 -33.837  1.00  0.00     0.025 A 
HETATM   35  C   UNL     1      -5.912  -2.137 -34.684  1.00  0.00     0.002 A 
HETATM   36  C   UNL     1      -6.998  -1.263 -34.680  1.00  0.00     0.001 A 
HETATM   37  C   UNL     1      -6.992  -0.151 -33.838  1.00  0.00     0.019 A 
ENDBRANCH  29  31
ENDBRANCH  28  29
ENDBRANCH   2  28
TORSDOF 6
ENDMDL
MODEL 2
REMARK VINA RESULT:      -9.4      4.080      6.479
REMARK  6 active torsions:
REMARK  status: ('A' for Active; 'I' for Inactive)
REMARK    1  A    between atoms: C_2  and  O_3 
REMARK    2  A    between atoms: O_3  and  C_4 
REMARK    3  A    between atoms: C_5  and  O_6 
REMARK    4  A    between atoms: O_6  and  C_7 
REMARK    5  A    between atoms: C_7  and  C_8 
REMARK    6  A    between atoms: C_18  and  C_19 
ROOT
HETATM    1  C   UNL     1      -7.967  -0.008 -32.703  1.00  0.00     0.103 A 
HETATM    2  C   UNL     1      -9.162   0.701 -32.552  1.00  0.00     0.112 A 
HETATM    3  C   UNL     1      -9.301   1.700 -31.590  1.00  0.00     0.041 A 
HETATM    4  C   UNL     1      -8.211   2.033 -30.789  1.00  0.00     0.014 A 
HETATM    5  C   UNL     1      -6.981   1.356 -30.922  1.00  0.00    -0.013 A 
HETATM    6  C   UNL     1      -6.887   0.322 -31.878  1.00  0.00     0.050 A 
ENDROOT
BRANCH   5   7
HETATM    7  C   UNL     1      -5.828   1.770 -30.018  1.00  0.00     0.219 C 
HETATM    8  N   UNL     1      -4.564   1.306 -30.532  1.00  0.00    -0.332 N 
HETATM    9  C   UNL     1      -3.756   2.037 -31.356  1.00  0.00     0.256 C 
HETATM   10  H   UNL     1      -4.412   0.310 -30.584  1.00  0.00     0.165 HD
HETATM   11  O   UNL     1      -2.853   1.520 -32.005  1.00  0.00    -0.267 OA
HETATM   12  C   UNL     1      -4.011   3.466 -31.367  1.00  0.00     0.073 A 
HETATM   13  C   UNL     1      -4.994   3.973 -30.551  1.00  0.00     0.088 A 
HETATM   14  C   UNL     1      -3.352   4.494 -32.110  1.00  0.00    -0.023 A 
HETATM   15  S   UNL     1      -5.124   5.665 -30.658  1.00  0.00    -0.074 SA
HETATM   16  N   UNL     1      -5.766   3.198 -29.761  1.00  0.00    -0.358 N 
HETATM   17  C   UNL     1      -3.866   5.740 -31.802  1.00  0.00     0.018 A 
HETATM   18  C   UNL     1      -3.406   7.026 -32.397  1.00  0.00     0.281 C 
HETATM   19  N   UNL     1      -2.054   6.866 -33.087  1.00  0.00    -0.070 N 
HETATM   20  C   UNL     1      -2.001   5.590 -33.926  1.00  0.00     0.239 C 
HETATM   21  H   UNL     1      -1.977   7.652 -33.743  1.00  0.00     0.279 HD
HETATM   22  C   UNL     1      -0.901   7.000 -32.133  1.00  0.00     0.270 C 
HETATM   23  C   UNL     1      -2.219   4.324 -33.080  1.00  0.00     0.068 C 
HETATM   24  H   UNL     1      -6.583   3.584 -29.297  1.00  0.00     0.162 HD
ENDBRANCH   5   7
BRANCH   1  25
HETATM   25  O   UNL     1      -7.960  -1.003 -33.644  1.00  0.00    -0.349 OA
BRANCH  25  26
HETATM   26  C   UNL     1      -6.966  -0.911 -34.661  1.00  0.00     0.171 C 
HETATM   27  C   UNL     1      -7.224   0.356 -35.458  1.00  0.00     0.034 C 
ENDBRANCH  25  26
ENDBRANCH   1  25
BRANCH   2  28
HETATM   28  O   UNL     1     -10.265   0.405 -33.356  1.00  0.00    -0.272 OA
BRANCH  28  29
HETATM   29  C   UNL     1     -10.807   1.551 -33.898  1.00  0.00     0.300 C 
HETATM   30  O   UNL     1     -10.245   2.408 -34.565  1.00  0.00    -0.259 OA
BRANCH  29  31
HETATM   31  C   UNL     1     -12.259   1.581 -33.633  1.00  0.00     0.061 A 
HETATM   32  C   UNL     1     -12.896   2.612 -32.930  1.00  0.00     0.050 A 
HETATM   33 CL   UNL     1     -12.065   3.994 -32.311  1.00  0.00    -0.083 Cl
HETATM   34  C   UNL     1     -14.285   2.575 -32.760  1.00  0.00     0.025 A 
HETATM   35  C   UNL     1     -15.038   1.530 -33.300  1.00  0.00     0.002 A 
HETATM   36  C   UNL     1     -14.407   0.517 -34.020  1.00  0.00     0.001 A 
HETATM   37  C   UNL     1     -13.023   0.543 -34.190  1.00  0.00     0.019 A 
ENDBRANCH  29  31
ENDBRANCH  28  29
ENDBRANCH   2  28
TORSDOF 6
ENDMDL
MODEL 3
REMARK VINA RESULT:      -9.3      3.696      9.146
REMARK  6 active torsions:
REMARK  status: ('A' for Active; 'I' for Inactive)
REMARK    1  A    between atoms: C_2  and  O_3 
REMARK    2  A    between atoms: O_3  and  C_4 
REMARK    3  A    between atoms: C_5  and  O_6 
REMARK    4  A    between atoms: O_6  and  C_7 
REMARK    5  A    between atoms: C_7  and  C_8 
REMARK    6  A    between atoms: C_18  and  C_19 
ROOT
HETATM    1  C   UNL     1      -3.262   4.220 -31.711  1.00  0.00     0.103 A 
HETATM    2  C   UNL     1      -4.051   5.342 -31.441  1.00  0.00     0.112 A 
HETATM    3  C   UNL     1      -5.260   5.236 -30.756  1.00  0.00     0.041 A 
HETATM    4  C   UNL     1      -5.673   3.991 -30.289  1.00  0.00     0.014 A 
HETATM    5  C   UNL     1      -4.899   2.836 -30.522  1.00  0.00    -0.013 A 
HETATM    6  C   UNL     1      -3.700   2.972 -31.255  1.00  0.00     0.050 A 
ENDROOT
BRANCH   5   7
HETATM    7  C   UNL     1      -5.406   1.506 -29.982  1.00  0.00     0.219 C 
HETATM    8  N   UNL     1      -6.749   1.233 -30.430  1.00  0.00    -0.332 N 
HETATM    9  C   UNL     1      -7.052   0.523 -31.556  1.00  0.00     0.256 C 
HETATM   10  H   UNL     1      -7.484   1.852 -30.122  1.00  0.00     0.165 HD
HETATM   11  O   UNL     1      -8.167   0.559 -32.066  1.00  0.00    -0.267 OA
HETATM   12  C   UNL     1      -5.981  -0.310 -32.071  1.00  0.00     0.073 A 
HETATM   13  C   UNL     1      -4.785  -0.351 -31.395  1.00  0.00     0.088 A 
HETATM   14  C   UNL     1      -5.976  -1.165 -33.217  1.00  0.00    -0.023 A 
HETATM   15  S   UNL     1      -3.665  -1.411 -32.112  1.00  0.00    -0.074 SA
HETATM   16  N   UNL     1      -4.542   0.380 -30.287  1.00  0.00    -0.358 N 
HETATM   17  C   UNL     1      -4.767  -1.827 -33.340  1.00  0.00     0.018 A 
HETATM   18  C   UNL     1      -4.427  -2.791 -34.423  1.00  0.00     0.281 C 
HETATM   19  N   UNL     1      -5.678  -3.267 -35.156  1.00  0.00    -0.070 N 
HETATM   20  C   UNL     1      -6.626  -2.106 -35.457  1.00  0.00     0.239 C 
HETATM   21  H   UNL     1      -5.356  -3.624 -36.063  1.00  0.00     0.279 HD
HETATM   22  C   UNL     1      -6.349  -4.419 -34.465  1.00  0.00     0.270 C 
HETATM   23  C   UNL     1      -7.105  -1.396 -34.179  1.00  0.00     0.068 C 
HETATM   24  H   UNL     1      -3.601   0.448 -29.909  1.00  0.00     0.162 HD
ENDBRANCH   5   7
BRANCH   1  25
HETATM   25  O   UNL     1      -2.121   4.433 -32.437  1.00  0.00    -0.349 OA
BRANCH  25  26
HETATM   26  C   UNL     1      -2.240   4.335 -33.855  1.00  0.00     0.171 C 
HETATM   27  C   UNL     1      -1.452   5.475 -34.473  1.00  0.00     0.034 C 
ENDBRANCH  25  26
ENDBRANCH   1  25
BRANCH   2  28
HETATM   28  O   UNL     1      -3.651   6.607 -31.878  1.00  0.00    -0.272 OA
BRANCH  28  29
HETATM   29  C   UNL     1      -3.502   7.474 -30.817  1.00  0.00     0.300 C 
HETATM   30  O   UNL     1      -4.342   8.215 -30.325  1.00  0.00    -0.259 OA
BRANCH  29  31
HETATM   31  C   UNL     1      -2.145   7.334 -30.252  1.00  0.00     0.061 A 
HETATM   32  C   UNL     1      -1.890   7.156 -28.886  1.00  0.00     0.050 A 
HETATM   33 CL   UNL     1      -3.135   7.046 -27.694  1.00  0.00    -0.083 Cl
HETATM   34  C   UNL     1      -0.571   6.993 -28.446  1.00  0.00     0.025 A 
HETATM   35  C   UNL     1       0.485   6.991 -29.360  1.00  0.00     0.002 A 
HETATM   36  C   UNL     1       0.230   7.145 -30.721  1.00  0.00     0.001 A 
HETATM   37  C   UNL     1      -1.081   7.312 -31.168  1.00  0.00     0.019 A 
ENDBRANCH  29  31
ENDBRANCH  28  29
ENDBRANCH   2  28
TORSDOF 6
ENDMDL
MODEL 4
REMARK VINA RESULT:      -9.2      2.332      3.610
REMARK  6 active torsions:
REMARK  status: ('A' for Active; 'I' for Inactive)
REMARK    1  A    between atoms: C_2  and  O_3 
REMARK    2  A    between atoms: O_3  and  C_4 
REMARK    3  A    between atoms: C_5  and  O_6 
REMARK    4  A    between atoms: O_6  and  C_7 
REMARK    5  A    between atoms: C_7  and  C_8 
REMARK    6  A    between atoms: C_18  and  C_19 
ROOT
HETATM    1  C   UNL     1      -4.311   3.075 -32.699  1.00  0.00     0.103 A 
HETATM    2  C   UNL     1      -5.356   3.576 -33.482  1.00  0.00     0.112 A 
HETATM    3  C   UNL     1      -5.200   4.722 -34.259  1.00  0.00     0.041 A 
HETATM    4  C   UNL     1      -3.963   5.361 -34.294  1.00  0.00     0.014 A 
HETATM    5  C   UNL     1      -2.877   4.878 -33.536  1.00  0.00    -0.013 A 
HETATM    6  C   UNL     1      -3.079   3.738 -32.728  1.00  0.00     0.050 A 
ENDROOT
BRANCH   5   7
HETATM    7  C   UNL     1      -1.550   5.621 -33.621  1.00  0.00     0.219 C 
HETATM    8  N   UNL     1      -1.732   7.043 -33.469  1.00  0.00    -0.332 N 
HETATM    9  C   UNL     1      -1.654   7.702 -32.275  1.00  0.00     0.256 C 
HETATM   10  H   UNL     1      -2.264   7.529 -34.174  1.00  0.00     0.165 HD
HETATM   11  O   UNL     1      -2.097   8.836 -32.129  1.00  0.00    -0.267 OA
HETATM   12  C   UNL     1      -0.968   6.986 -31.215  1.00  0.00     0.073 A 
HETATM   13  C   UNL     1      -0.434   5.748 -31.484  1.00  0.00     0.088 A 
HETATM   14  C   UNL     1      -0.721   7.392 -29.866  1.00  0.00    -0.023 A 
HETATM   15  S   UNL     1       0.371   5.078 -30.144  1.00  0.00    -0.074 SA
HETATM   16  N   UNL     1      -0.548   5.144 -32.685  1.00  0.00    -0.358 N 
HETATM   17  C   UNL     1       0.010   6.436 -29.184  1.00  0.00     0.018 A 
HETATM   18  C   UNL     1       0.438   6.543 -27.761  1.00  0.00     0.281 C 
HETATM   19  N   UNL     1       0.325   7.977 -27.253  1.00  0.00    -0.070 N 
HETATM   20  C   UNL     1      -0.989   8.623 -27.690  1.00  0.00     0.239 C 
HETATM   21  H   UNL     1       0.293   7.912 -26.229  1.00  0.00     0.279 HD
HETATM   22  C   UNL     1       1.534   8.804 -27.584  1.00  0.00     0.270 C 
HETATM   23  C   UNL     1      -1.130   8.683 -29.221  1.00  0.00     0.068 C 
HETATM   24  H   UNL     1      -0.285   4.169 -32.801  1.00  0.00     0.162 HD
ENDBRANCH   5   7
BRANCH   1  25
HETATM   25  O   UNL     1      -4.591   1.975 -31.935  1.00  0.00    -0.349 OA
BRANCH  25  26
HETATM   26  C   UNL     1      -4.816   2.205 -30.545  1.00  0.00     0.171 C 
HETATM   27  C   UNL     1      -6.040   1.410 -30.129  1.00  0.00     0.034 C 
ENDBRANCH  25  26
ENDBRANCH   1  25
BRANCH   2  28
HETATM   28  O   UNL     1      -6.601   2.944 -33.484  1.00  0.00    -0.272 OA
BRANCH  28  29
HETATM   29  C   UNL     1      -7.546   3.707 -32.832  1.00  0.00     0.300 C 
HETATM   30  O   UNL     1      -7.449   4.262 -31.747  1.00  0.00    -0.259 OA
BRANCH  29  31
HETATM   31  C   UNL     1      -8.738   3.855 -33.691  1.00  0.00     0.061 A 
HETATM   32  C   UNL     1      -9.689   2.844 -33.877  1.00  0.00     0.050 A 
HETATM   33 CL   UNL     1      -9.603   1.306 -33.095  1.00  0.00    -0.083 Cl
HETATM   34  C   UNL     1     -10.808   3.088 -34.681  1.00  0.00     0.025 A 
HETATM   35  C   UNL     1     -10.988   4.335 -35.284  1.00  0.00     0.002 A 
HETATM   36  C   UNL     1     -10.054   5.349 -35.081  1.00  0.00     0.001 A 
HETATM   37  C   UNL     1      -8.933   5.113 -34.285  1.00  0.00     0.019 A 
ENDBRANCH  29  31
ENDBRANCH  28  29
ENDBRANCH   2  28
TORSDOF 6
ENDMDL
MODEL 5
REMARK VINA RESULT:      -9.2      2.122      3.034
REMARK  6 active torsions:
REMARK  status: ('A' for Active; 'I' for Inactive)
REMARK    1  A    between atoms: C_2  and  O_3 
REMARK    2  A    between atoms: O_3  and  C_4 
REMARK    3  A    between atoms: C_5  and  O_6 
REMARK    4  A    between atoms: O_6  and  C_7 
REMARK    5  A    between atoms: C_7  and  C_8 
REMARK    6  A    between atoms: C_18  and  C_19 
ROOT
HETATM    1  C   UNL     1      -4.022   1.900 -31.362  1.00  0.00     0.103 A 
HETATM    2  C   UNL     1      -5.278   2.340 -30.934  1.00  0.00     0.112 A 
HETATM    3  C   UNL     1      -5.583   3.697 -30.843  1.00  0.00     0.041 A 
HETATM    4  C   UNL     1      -4.632   4.638 -31.229  1.00  0.00     0.014 A 
HETATM    5  C   UNL     1      -3.360   4.237 -31.685  1.00  0.00    -0.013 A 
HETATM    6  C   UNL     1      -3.069   2.856 -31.728  1.00  0.00     0.050 A 
ENDROOT
BRANCH   5   7
HETATM    7  C   UNL     1      -2.367   5.317 -32.096  1.00  0.00     0.219 C 
HETATM    8  N   UNL     1      -2.885   6.636 -31.831  1.00  0.00    -0.332 N 
HETATM    9  C   UNL     1      -2.666   7.328 -30.675  1.00  0.00     0.256 C 
HETATM   10  H   UNL     1      -3.704   6.932 -32.340  1.00  0.00     0.165 HD
HETATM   11  O   UNL     1      -3.347   8.298 -30.360  1.00  0.00    -0.267 OA
HETATM   12  C   UNL     1      -1.544   6.866 -29.879  1.00  0.00     0.073 A 
HETATM   13  C   UNL     1      -0.785   5.818 -30.343  1.00  0.00     0.088 A 
HETATM   14  C   UNL     1      -1.056   7.367 -28.632  1.00  0.00    -0.023 A 
HETATM   15  S   UNL     1       0.511   5.441 -29.308  1.00  0.00    -0.074 SA
HETATM   16  N   UNL     1      -1.055   5.168 -31.493  1.00  0.00    -0.358 N 
HETATM   17  C   UNL     1       0.070   6.675 -28.222  1.00  0.00     0.018 A 
HETATM   18  C   UNL     1       0.827   6.942 -26.968  1.00  0.00     0.281 C 
HETATM   19  N   UNL     1       0.467   8.303 -26.380  1.00  0.00    -0.070 N 
HETATM   20  C   UNL     1      -1.042   8.544 -26.409  1.00  0.00     0.239 C 
HETATM   21  H   UNL     1       0.738   8.265 -25.390  1.00  0.00     0.279 HD
HETATM   22  C   UNL     1       1.260   9.424 -26.990  1.00  0.00     0.270 C 
HETATM   23  C   UNL     1      -1.611   8.513 -27.838  1.00  0.00     0.068 C 
HETATM   24  H   UNL     1      -0.575   4.302 -31.723  1.00  0.00     0.162 HD
ENDBRANCH   5   7
BRANCH   1  25
HETATM   25  O   UNL     1      -3.815   0.546 -31.363  1.00  0.00    -0.349 OA
BRANCH  25  26
HETATM   26  C   UNL     1      -3.480  -0.046 -32.616  1.00  0.00     0.171 C 
HETATM   27  C   UNL     1      -3.490  -1.554 -32.441  1.00  0.00     0.034 C 
ENDBRANCH  25  26
ENDBRANCH   1  25
BRANCH   2  28
HETATM   28  O   UNL     1      -6.258   1.418 -30.562  1.00  0.00    -0.272 OA
BRANCH  28  29
HETATM   29  C   UNL     1      -7.398   1.571 -31.323  1.00  0.00     0.300 C 
HETATM   30  O   UNL     1      -8.397   2.227 -31.061  1.00  0.00    -0.259 OA
BRANCH  29  31
HETATM   31  C   UNL     1      -7.227   0.874 -32.613  1.00  0.00     0.061 A 
HETATM   32  C   UNL     1      -7.069   1.537 -33.836  1.00  0.00     0.050 A 
HETATM   33 CL   UNL     1      -7.024   3.258 -33.984  1.00  0.00    -0.083 Cl
HETATM   34  C   UNL     1      -6.874   0.792 -35.005  1.00  0.00     0.025 A 
HETATM   35  C   UNL     1      -6.820  -0.603 -34.955  1.00  0.00     0.002 A 
HETATM   36  C   UNL     1      -6.953  -1.262 -33.735  1.00  0.00     0.001 A 
HETATM   37  C   UNL     1      -7.152  -0.528 -32.566  1.00  0.00     0.019 A 
ENDBRANCH  29  31
ENDBRANCH  28  29
ENDBRANCH   2  28
TORSDOF 6
ENDMDL
MODEL 6
REMARK VINA RESULT:      -9.0      1.742      2.161
REMARK  6 active torsions:
REMARK  status: ('A' for Active; 'I' for Inactive)
REMARK    1  A    between atoms: C_2  and  O_3 
REMARK    2  A    between atoms: O_3  and  C_4 
REMARK    3  A    between atoms: C_5  and  O_6 
REMARK    4  A    between atoms: O_6  and  C_7 
REMARK    5  A    between atoms: C_7  and  C_8 
REMARK    6  A    between atoms: C_18  and  C_19 
ROOT
HETATM    1  C   UNL     1      -5.613   4.918 -33.567  1.00  0.00     0.103 A 
HETATM    2  C   UNL     1      -5.596   3.655 -32.968  1.00  0.00     0.112 A 
HETATM    3  C   UNL     1      -4.404   3.046 -32.583  1.00  0.00     0.041 A 
HETATM    4  C   UNL     1      -3.202   3.727 -32.756  1.00  0.00     0.014 A 
HETATM    5  C   UNL     1      -3.175   5.011 -33.338  1.00  0.00    -0.013 A 
HETATM    6  C   UNL     1      -4.396   5.583 -33.754  1.00  0.00     0.050 A 
ENDROOT
BRANCH   5   7
HETATM    7  C   UNL     1      -1.827   5.704 -33.497  1.00  0.00     0.219 C 
HETATM    8  N   UNL     1      -1.949   7.132 -33.343  1.00  0.00    -0.332 N 
HETATM    9  C   UNL     1      -1.785   7.792 -32.158  1.00  0.00     0.256 C 
HETATM   10  H   UNL     1      -2.499   7.635 -34.023  1.00  0.00     0.165 HD
HETATM   11  O   UNL     1      -2.179   8.942 -31.996  1.00  0.00    -0.267 OA
HETATM   12  C   UNL     1      -1.072   7.055 -31.131  1.00  0.00     0.073 A 
HETATM   13  C   UNL     1      -0.598   5.798 -31.420  1.00  0.00     0.088 A 
HETATM   14  C   UNL     1      -0.741   7.457 -29.799  1.00  0.00    -0.023 A 
HETATM   15  S   UNL     1       0.249   5.104 -30.120  1.00  0.00    -0.074 SA
HETATM   16  N   UNL     1      -0.797   5.194 -32.610  1.00  0.00    -0.358 N 
HETATM   17  C   UNL     1      -0.011   6.478 -29.150  1.00  0.00     0.018 A 
HETATM   18  C   UNL     1       0.494   6.574 -27.752  1.00  0.00     0.281 C 
HETATM   19  N   UNL     1       0.459   8.013 -27.247  1.00  0.00    -0.070 N 
HETATM   20  C   UNL     1      -0.851   8.706 -27.619  1.00  0.00     0.239 C 
HETATM   21  H   UNL     1       0.478   7.954 -26.222  1.00  0.00     0.279 HD
HETATM   22  C   UNL     1       1.679   8.794 -27.644  1.00  0.00     0.270 C 
HETATM   23  C   UNL     1      -1.069   8.765 -29.141  1.00  0.00     0.068 C 
HETATM   24  H   UNL     1      -0.575   4.210 -32.734  1.00  0.00     0.162 HD
ENDBRANCH   5   7
BRANCH   1  25
HETATM   25  O   UNL     1      -6.836   5.398 -33.952  1.00  0.00    -0.349 OA
BRANCH  25  26
HETATM   26  C   UNL     1      -7.593   6.084 -32.958  1.00  0.00     0.171 C 
HETATM   27  C   UNL     1      -9.066   5.851 -33.244  1.00  0.00     0.034 C 
ENDBRANCH  25  26
ENDBRANCH   1  25
BRANCH   2  28
HETATM   28  O   UNL     1      -6.788   2.958 -32.761  1.00  0.00    -0.272 OA
BRANCH  28  29
HETATM   29  C   UNL     1      -7.069   2.127 -33.826  1.00  0.00     0.300 C 
HETATM   30  O   UNL     1      -6.369   1.886 -34.798  1.00  0.00    -0.259 OA
BRANCH  29  31
HETATM   31  C   UNL     1      -8.364   1.454 -33.597  1.00  0.00     0.061 A 
HETATM   32  C   UNL     1      -8.545   0.418 -32.673  1.00  0.00     0.050 A 
HETATM   33 CL   UNL     1      -7.280  -0.182 -31.660  1.00  0.00    -0.083 Cl
HETATM   34  C   UNL     1      -9.818  -0.136 -32.496  1.00  0.00     0.025 A 
HETATM   35  C   UNL     1     -10.908   0.350 -33.223  1.00  0.00     0.002 A 
HETATM   36  C   UNL     1     -10.733   1.398 -34.125  1.00  0.00     0.001 A 
HETATM   37  C   UNL     1      -9.466   1.952 -34.311  1.00  0.00     0.019 A 
ENDBRANCH  29  31
ENDBRANCH  28  29
ENDBRANCH   2  28
TORSDOF 6
ENDMDL
MODEL 7
REMARK VINA RESULT:      -9.0      1.705      2.298
REMARK  6 active torsions:
REMARK  status: ('A' for Active; 'I' for Inactive)
REMARK    1  A    between atoms: C_2  and  O_3 
REMARK    2  A    between atoms: O_3  and  C_4 
REMARK    3  A    between atoms: C_5  and  O_6 
REMARK    4  A    between atoms: O_6  and  C_7 
REMARK    5  A    between atoms: C_7  and  C_8 
REMARK    6  A    between atoms: C_18  and  C_19 
ROOT
HETATM    1  C   UNL     1      -4.877   4.164 -32.196  1.00  0.00     0.103 A 
HETATM    2  C   UNL     1      -5.592   3.997 -33.386  1.00  0.00     0.112 A 
HETATM    3  C   UNL     1      -5.122   4.502 -34.596  1.00  0.00     0.041 A 
HETATM    4  C   UNL     1      -3.889   5.149 -34.634  1.00  0.00     0.014 A 
HETATM    5  C   UNL     1      -3.126   5.321 -33.461  1.00  0.00    -0.013 A 
HETATM    6  C   UNL     1      -3.649   4.834 -32.244  1.00  0.00     0.050 A 
ENDROOT
BRANCH   5   7
HETATM    7  C   UNL     1      -1.784   6.034 -33.571  1.00  0.00     0.219 C 
HETATM    8  N   UNL     1      -1.919   7.449 -33.329  1.00  0.00    -0.332 N 
HETATM    9  C   UNL     1      -1.765   8.036 -32.106  1.00  0.00     0.256 C 
HETATM   10  H   UNL     1      -2.472   7.988 -33.979  1.00  0.00     0.165 HD
HETATM   11  O   UNL     1      -2.170   9.170 -31.875  1.00  0.00    -0.267 OA
HETATM   12  C   UNL     1      -1.049   7.243 -31.124  1.00  0.00     0.073 A 
HETATM   13  C   UNL     1      -0.563   6.011 -31.489  1.00  0.00     0.088 A 
HETATM   14  C   UNL     1      -0.725   7.565 -29.768  1.00  0.00    -0.023 A 
HETATM   15  S   UNL     1       0.287   5.244 -30.230  1.00  0.00    -0.074 SA
HETATM   16  N   UNL     1      -0.752   5.480 -32.714  1.00  0.00    -0.358 N 
HETATM   17  C   UNL     1       0.011   6.554 -29.178  1.00  0.00     0.018 A 
HETATM   18  C   UNL     1       0.510   6.567 -27.775  1.00  0.00     0.281 C 
HETATM   19  N   UNL     1       0.461   7.972 -27.182  1.00  0.00    -0.070 N 
HETATM   20  C   UNL     1      -0.854   8.675 -27.516  1.00  0.00     0.239 C 
HETATM   21  H   UNL     1       0.477   7.849 -26.162  1.00  0.00     0.279 HD
HETATM   22  C   UNL     1       1.675   8.787 -27.525  1.00  0.00     0.270 C 
HETATM   23  C   UNL     1      -1.068   8.826 -29.032  1.00  0.00     0.068 C 
HETATM   24  H   UNL     1      -0.521   4.507 -32.898  1.00  0.00     0.162 HD
ENDBRANCH   5   7
BRANCH   1  25
HETATM   25  O   UNL     1      -5.458   3.673 -31.058  1.00  0.00    -0.349 OA
BRANCH  25  26
HETATM   26  C   UNL     1      -6.122   4.620 -30.223  1.00  0.00     0.171 C 
HETATM   27  C   UNL     1      -7.453   4.024 -29.802  1.00  0.00     0.034 C 
ENDBRANCH  25  26
ENDBRANCH   1  25
BRANCH   2  28
HETATM   28  O   UNL     1      -6.820   3.334 -33.382  1.00  0.00    -0.272 OA
BRANCH  28  29
HETATM   29  C   UNL     1      -6.707   2.076 -33.937  1.00  0.00     0.300 C 
HETATM   30  O   UNL     1      -6.909   1.742 -35.095  1.00  0.00    -0.259 OA
BRANCH  29  31
HETATM   31  C   UNL     1      -6.197   1.134 -32.920  1.00  0.00     0.061 A 
HETATM   32  C   UNL     1      -6.964   0.665 -31.846  1.00  0.00     0.050 A 
HETATM   33 CL   UNL     1      -8.615   1.107 -31.594  1.00  0.00    -0.083 Cl
HETATM   34  C   UNL     1      -6.408  -0.258 -30.952  1.00  0.00     0.025 A 
HETATM   35  C   UNL     1      -5.104  -0.723 -31.135  1.00  0.00     0.002 A 
HETATM   36  C   UNL     1      -4.349  -0.275 -32.217  1.00  0.00     0.001 A 
HETATM   37  C   UNL     1      -4.894   0.648 -33.110  1.00  0.00     0.019 A 
ENDBRANCH  29  31
ENDBRANCH  28  29
ENDBRANCH   2  28
TORSDOF 6
ENDMDL
MODEL 8
REMARK VINA RESULT:      -8.8      3.058      4.174
REMARK  6 active torsions:
REMARK  status: ('A' for Active; 'I' for Inactive)
REMARK    1  A    between atoms: C_2  and  O_3 
REMARK    2  A    between atoms: O_3  and  C_4 
REMARK    3  A    between atoms: C_5  and  O_6 
REMARK    4  A    between atoms: O_6  and  C_7 
REMARK    5  A    between atoms: C_7  and  C_8 
REMARK    6  A    between atoms: C_18  and  C_19 
ROOT
HETATM    1  C   UNL     1      -8.187   1.738 -33.142  1.00  0.00     0.103 A 
HETATM    2  C   UNL     1      -6.936   1.117 -33.194  1.00  0.00     0.112 A 
HETATM    3  C   UNL     1      -5.756   1.857 -33.237  1.00  0.00     0.041 A 
HETATM    4  C   UNL     1      -5.819   3.247 -33.182  1.00  0.00     0.014 A 
HETATM    5  C   UNL     1      -7.059   3.914 -33.110  1.00  0.00    -0.013 A 
HETATM    6  C   UNL     1      -8.237   3.136 -33.109  1.00  0.00     0.050 A 
ENDROOT
BRANCH   5   7
HETATM    7  C   UNL     1      -7.058   5.436 -33.049  1.00  0.00     0.219 C 
HETATM    8  N   UNL     1      -7.854   5.918 -31.949  1.00  0.00    -0.332 N 
HETATM    9  C   UNL     1      -7.359   6.190 -30.705  1.00  0.00     0.256 C 
HETATM   10  H   UNL     1      -8.846   5.732 -31.966  1.00  0.00     0.165 HD
HETATM   11  O   UNL     1      -8.090   6.310 -29.728  1.00  0.00    -0.267 OA
HETATM   12  C   UNL     1      -5.922   6.376 -30.637  1.00  0.00     0.073 A 
HETATM   13  C   UNL     1      -5.185   6.300 -31.795  1.00  0.00     0.088 A 
HETATM   14  C   UNL     1      -5.103   6.668 -29.501  1.00  0.00    -0.023 A 
HETATM   15  S   UNL     1      -3.528   6.588 -31.535  1.00  0.00    -0.074 SA
HETATM   16  N   UNL     1      -5.730   6.021 -32.996  1.00  0.00    -0.358 N 
HETATM   17  C   UNL     1      -3.777   6.815 -29.867  1.00  0.00     0.018 A 
HETATM   18  C   UNL     1      -2.661   7.122 -28.929  1.00  0.00     0.281 C 
HETATM   19  N   UNL     1      -3.185   7.641 -27.594  1.00  0.00    -0.070 N 
HETATM   20  C   UNL     1      -4.373   6.816 -27.100  1.00  0.00     0.239 C 
HETATM   21  H   UNL     1      -2.427   7.497 -26.917  1.00  0.00     0.279 HD
HETATM   22  C   UNL     1      -3.454   9.119 -27.614  1.00  0.00     0.270 C 
HETATM   23  C   UNL     1      -5.557   6.848 -28.082  1.00  0.00     0.068 C 
HETATM   24  H   UNL     1      -5.140   5.814 -33.797  1.00  0.00     0.162 HD
ENDBRANCH   5   7
BRANCH   1  25
HETATM   25  O   UNL     1      -9.281   0.915 -33.157  1.00  0.00    -0.349 OA
BRANCH  25  26
HETATM   26  C   UNL     1     -10.209   1.108 -34.223  1.00  0.00     0.171 C 
HETATM   27  C   UNL     1     -11.597   1.237 -33.621  1.00  0.00     0.034 C 
ENDBRANCH  25  26
ENDBRANCH   1  25
BRANCH   2  28
HETATM   28  O   UNL     1      -6.841  -0.275 -33.227  1.00  0.00    -0.272 OA
BRANCH  28  29
HETATM   29  C   UNL     1      -6.674  -0.731 -34.518  1.00  0.00     0.300 C 
HETATM   30  O   UNL     1      -6.915  -0.142 -35.562  1.00  0.00    -0.259 OA
BRANCH  29  31
HETATM   31  C   UNL     1      -6.050  -2.069 -34.491  1.00  0.00     0.061 A 
HETATM   32  C   UNL     1      -4.727  -2.298 -34.093  1.00  0.00     0.050 A 
HETATM   33 CL   UNL     1      -3.669  -1.044 -33.552  1.00  0.00    -0.083 Cl
HETATM   34  C   UNL     1      -4.231  -3.607 -34.063  1.00  0.00     0.025 A 
HETATM   35  C   UNL     1      -5.052  -4.682 -34.411  1.00  0.00     0.002 A 
HETATM   36  C   UNL     1      -6.376  -4.458 -34.784  1.00  0.00     0.001 A 
HETATM   37  C   UNL     1      -6.876  -3.156 -34.822  1.00  0.00     0.019 A 
ENDBRANCH  29  31
ENDBRANCH  28  29
ENDBRANCH   2  28
TORSDOF 6
ENDMDL
MODEL 9
REMARK VINA RESULT:      -8.6      5.150      8.619
REMARK  6 active torsions:
REMARK  status: ('A' for Active; 'I' for Inactive)
REMARK    1  A    between atoms: C_2  and  O_3 
REMARK    2  A    between atoms: O_3  and  C_4 
REMARK    3  A    between atoms: C_5  and  O_6 
REMARK    4  A    between atoms: O_6  and  C_7 
REMARK    5  A    between atoms: C_7  and  C_8 
REMARK    6  A    between atoms: C_18  and  C_19 
ROOT
HETATM    1  C   UNL     1      -6.770   2.134 -31.237  1.00  0.00     0.103 A 
HETATM    2  C   UNL     1      -7.150   0.914 -31.804  1.00  0.00     0.112 A 
HETATM    3  C   UNL     1      -8.490   0.552 -31.927  1.00  0.00     0.041 A 
HETATM    4  C   UNL     1      -9.478   1.444 -31.518  1.00  0.00     0.014 A 
HETATM    5  C   UNL     1      -9.140   2.693 -30.958  1.00  0.00    -0.013 A 
HETATM    6  C   UNL     1      -7.773   3.012 -30.810  1.00  0.00     0.050 A 
ENDROOT
BRANCH   5   7
HETATM    7  C   UNL     1     -10.269   3.623 -30.534  1.00  0.00     0.219 C 
HETATM    8  N   UNL     1      -9.852   5.003 -30.563  1.00  0.00    -0.332 N 
HETATM    9  C   UNL     1     -10.010   5.829 -31.639  1.00  0.00     0.256 C 
HETATM   10  H   UNL     1      -9.124   5.289 -29.926  1.00  0.00     0.165 HD
HETATM   11  O   UNL     1      -9.393   6.884 -31.743  1.00  0.00    -0.267 OA
HETATM   12  C   UNL     1     -10.991   5.395 -32.616  1.00  0.00     0.073 A 
HETATM   13  C   UNL     1     -11.693   4.236 -32.384  1.00  0.00     0.088 A 
HETATM   14  C   UNL     1     -11.387   6.024 -33.837  1.00  0.00    -0.023 A 
HETATM   15  S   UNL     1     -12.829   3.905 -33.606  1.00  0.00    -0.074 SA
HETATM   16  N   UNL     1     -11.489   3.456 -31.303  1.00  0.00    -0.358 N 
HETATM   17  C   UNL     1     -12.391   5.309 -34.464  1.00  0.00     0.018 A 
HETATM   18  C   UNL     1     -13.031   5.686 -35.755  1.00  0.00     0.281 C 
HETATM   19  N   UNL     1     -12.740   7.139 -36.115  1.00  0.00    -0.070 N 
HETATM   20  C   UNL     1     -11.272   7.492 -35.876  1.00  0.00     0.239 C 
HETATM   21  H   UNL     1     -12.898   7.217 -37.127  1.00  0.00     0.279 HD
HETATM   22  C   UNL     1     -13.696   8.098 -35.466  1.00  0.00     0.270 C 
HETATM   23  C   UNL     1     -10.859   7.309 -34.405  1.00  0.00     0.068 C 
HETATM   24  H   UNL     1     -11.907   2.532 -31.245  1.00  0.00     0.162 HD
ENDBRANCH   5   7
BRANCH   1  25
HETATM   25  O   UNL     1      -5.425   2.362 -31.118  1.00  0.00    -0.349 OA
BRANCH  25  26
HETATM   26  C   UNL     1      -5.040   3.541 -30.413  1.00  0.00     0.171 C 
HETATM   27  C   UNL     1      -4.217   4.403 -31.354  1.00  0.00     0.034 C 
ENDBRANCH  25  26
ENDBRANCH   1  25
BRANCH   2  28
HETATM   28  O   UNL     1      -6.181   0.009 -32.244  1.00  0.00    -0.272 OA
BRANCH  28  29
HETATM   29  C   UNL     1      -6.183  -0.090 -33.620  1.00  0.00     0.300 C 
HETATM   30  O   UNL     1      -6.337   0.804 -34.439  1.00  0.00    -0.259 OA
BRANCH  29  31
HETATM   31  C   UNL     1      -5.870  -1.478 -34.014  1.00  0.00     0.061 A 
HETATM   32  C   UNL     1      -4.614  -2.070 -33.834  1.00  0.00     0.050 A 
HETATM   33 CL   UNL     1      -3.279  -1.257 -33.098  1.00  0.00    -0.083 Cl
HETATM   34  C   UNL     1      -4.420  -3.406 -34.203  1.00  0.00     0.025 A 
HETATM   35  C   UNL     1      -5.475  -4.154 -34.733  1.00  0.00     0.002 A 
HETATM   36  C   UNL     1      -6.732  -3.573 -34.890  1.00  0.00     0.001 A 
HETATM   37  C   UNL     1      -6.932  -2.240 -34.529  1.00  0.00     0.019 A 
ENDBRANCH  29  31
ENDBRANCH  28  29
ENDBRANCH   2  28
TORSDOF 6
ENDMDL
MODEL 10
REMARK VINA RESULT:      -8.5      4.537      6.386
REMARK  6 active torsions:
REMARK  status: ('A' for Active; 'I' for Inactive)
REMARK    1  A    between atoms: C_2  and  O_3 
REMARK    2  A    between atoms: O_3  and  C_4 
REMARK    3  A    between atoms: C_5  and  O_6 
REMARK    4  A    between atoms: O_6  and  C_7 
REMARK    5  A    between atoms: C_7  and  C_8 
REMARK    6  A    between atoms: C_18  and  C_19 
ROOT
HETATM    1  C   UNL     1      -7.687   0.229 -32.568  1.00  0.00     0.103 A 
HETATM    2  C   UNL     1      -8.904   0.821 -32.219  1.00  0.00     0.112 A 
HETATM    3  C   UNL     1      -8.967   1.880 -31.316  1.00  0.00     0.041 A 
HETATM    4  C   UNL     1      -7.788   2.393 -30.781  1.00  0.00     0.014 A 
HETATM    5  C   UNL     1      -6.538   1.838 -31.120  1.00  0.00    -0.013 A 
HETATM    6  C   UNL     1      -6.511   0.740 -32.007  1.00  0.00     0.050 A 
ENDROOT
BRANCH   5   7
HETATM    7  C   UNL     1      -5.286   2.448 -30.503  1.00  0.00     0.219 C 
HETATM    8  N   UNL     1      -4.553   3.231 -31.466  1.00  0.00    -0.332 N 
HETATM    9  C   UNL     1      -4.723   4.574 -31.651  1.00  0.00     0.256 C 
HETATM   10  H   UNL     1      -4.156   2.753 -32.260  1.00  0.00     0.165 HD
HETATM   11  O   UNL     1      -4.315   5.148 -32.655  1.00  0.00    -0.267 OA
HETATM   12  C   UNL     1      -5.373   5.273 -30.558  1.00  0.00     0.073 A 
HETATM   13  C   UNL     1      -5.731   4.566 -29.435  1.00  0.00     0.088 A 
HETATM   14  C   UNL     1      -5.696   6.661 -30.440  1.00  0.00    -0.023 A 
HETATM   15  S   UNL     1      -6.436   5.551 -28.240  1.00  0.00    -0.074 SA
HETATM   16  N   UNL     1      -5.542   3.236 -29.312  1.00  0.00    -0.358 N 
HETATM   17  C   UNL     1      -6.273   6.937 -29.214  1.00  0.00     0.018 A 
HETATM   18  C   UNL     1      -6.729   8.283 -28.768  1.00  0.00     0.281 C 
HETATM   19  N   UNL     1      -6.140   9.387 -29.641  1.00  0.00    -0.070 N 
HETATM   20  C   UNL     1      -6.212   9.025 -31.124  1.00  0.00     0.239 C 
HETATM   21  H   UNL     1      -6.746  10.205 -29.510  1.00  0.00     0.279 HD
HETATM   22  C   UNL     1      -4.767   9.804 -29.197  1.00  0.00     0.270 C 
HETATM   23  C   UNL     1      -5.434   7.739 -31.452  1.00  0.00     0.068 C 
HETATM   24  H   UNL     1      -5.962   2.723 -28.542  1.00  0.00     0.162 HD
ENDBRANCH   5   7
BRANCH   1  25
HETATM   25  O   UNL     1      -7.748  -0.839 -33.423  1.00  0.00    -0.349 OA
BRANCH  25  26
HETATM   26  C   UNL     1      -6.957  -0.753 -34.607  1.00  0.00     0.171 C 
HETATM   27  C   UNL     1      -6.175  -2.046 -34.746  1.00  0.00     0.034 C 
ENDBRANCH  25  26
ENDBRANCH   1  25
BRANCH   2  28
HETATM   28  O   UNL     1     -10.100   0.342 -32.757  1.00  0.00    -0.272 OA
BRANCH  28  29
HETATM   29  C   UNL     1     -10.607   1.216 -33.696  1.00  0.00     0.300 C 
HETATM   30  O   UNL     1     -10.013   1.764 -34.613  1.00  0.00    -0.259 OA
BRANCH  29  31
HETATM   31  C   UNL     1     -12.065   1.354 -33.504  1.00  0.00     0.061 A 
HETATM   32  C   UNL     1     -12.680   2.535 -33.070  1.00  0.00     0.050 A 
HETATM   33 CL   UNL     1     -11.810   3.990 -32.736  1.00  0.00    -0.083 Cl
HETATM   34  C   UNL     1     -14.074   2.585 -32.953  1.00  0.00     0.025 A 
HETATM   35  C   UNL     1     -14.852   1.473 -33.281  1.00  0.00     0.002 A 
HETATM   36  C   UNL     1     -14.242   0.305 -33.735  1.00  0.00     0.001 A 
HETATM   37  C   UNL     1     -12.853   0.245 -33.849  1.00  0.00     0.019 A 
ENDBRANCH  29  31
ENDBRANCH  28  29
ENDBRANCH   2  28
TORSDOF 6
ENDMDL
