MODEL 1
REMARK VINA RESULT:     -10.2      0.000      0.000
REMARK  8 active torsions:
REMARK  status: ('A' for Active; 'I' for Inactive)
REMARK    1  A    between atoms: N_9  and  N_10 
REMARK    2  A    between atoms: C_11  and  C_12 
REMARK    3  A    between atoms: C_14  and  O_15 
REMARK    4  A    between atoms: C_19  and  N_20 
REMARK    5  A    between atoms: C_21  and  C_22 
REMARK       I    between atoms: C_22  and  N_23 
REMARK    6  A    between atoms: N_23  and  C_24 
REMARK    7  A    between atoms: C_24  and  C_25 
REMARK    8  A    between atoms: C_25  and  C_26 
ROOT
HETATM    1  C   UNL     1      -4.291  -3.984 -34.425  1.00  0.00     0.002 A 
HETATM    2  C   UNL     1      -4.206  -2.843 -33.625  1.00  0.00     0.034 A 
HETATM    3  C   UNL     1      -5.285  -1.980 -33.468  1.00  0.00     0.086 A 
HETATM    4  C   UNL     1      -6.499  -2.268 -34.148  1.00  0.00     0.088 A 
HETATM    5  N   UNL     1      -7.589  -1.489 -34.052  1.00  0.00    -0.225 NA
HETATM    6  C   UNL     1      -7.418  -0.434 -33.219  1.00  0.00     0.183 A 
HETATM    7  C   UNL     1      -6.244  -0.144 -32.533  1.00  0.00     0.125 A 
HETATM    8  N   UNL     1      -5.130  -0.907 -32.674  1.00  0.00    -0.242 NA
HETATM    9  N   UNL     1      -8.343   0.549 -32.912  1.00  0.00    -0.197 N 
HETATM   10  C   UNL     1      -7.769   1.414 -31.977  1.00  0.00     0.143 A 
HETATM   11  C   UNL     1      -6.454   1.029 -31.774  1.00  0.00     0.110 A 
HETATM   12  C   UNL     1      -6.567  -3.405 -34.943  1.00  0.00     0.034 A 
HETATM   13  C   UNL     1      -5.477  -4.266 -35.088  1.00  0.00     0.002 A 
ENDROOT
BRANCH  11  14
HETATM   14  C   UNL     1      -5.506   1.831 -31.034  1.00  0.00     0.257 C 
HETATM   15  N   UNL     1      -4.193   1.535 -31.350  1.00  0.00    -0.356 N 
HETATM   16  H   UNL     1      -4.032   0.763 -31.985  1.00  0.00     0.162 HD
HETATM   17  O   UNL     1      -5.836   2.806 -30.369  1.00  0.00    -0.267 OA
BRANCH  15  18
HETATM   18  C   UNL     1      -3.192   2.585 -31.293  1.00  0.00     0.127 C 
BRANCH  18  19
HETATM   19  C   UNL     1      -3.065   3.327 -32.646  1.00  0.00     0.053 C 
BRANCH  19  20
HETATM   20  C   UNL     1      -2.172   4.553 -32.762  1.00  0.00    -0.082 C 
HETATM   21  C   UNL     1      -2.255   5.258 -34.104  1.00  0.00     0.034 C 
HETATM   22  C   UNL     1      -1.129   6.265 -34.354  1.00  0.00     0.005 C 
HETATM   23  C   UNL     1      -0.886   7.131 -33.127  1.00  0.00     0.004 C 
HETATM   24  C   UNL     1      -0.535   6.273 -31.915  1.00  0.00     0.027 C 
HETATM   25  C   UNL     1      -1.381   5.038 -31.787  1.00  0.00    -0.024 C 
ENDBRANCH  19  20
ENDBRANCH  18  19
ENDBRANCH  15  18
ENDBRANCH  11  14
BRANCH  10  26
HETATM   26  N   UNL     1      -8.423   2.508 -31.493  1.00  0.00    -0.383 N 
HETATM   27  H   UNL     1      -9.138   2.968 -32.054  1.00  0.00     0.157 HD
HETATM   28  H   UNL     1      -7.920   3.159 -30.884  1.00  0.00     0.157 HD
ENDBRANCH  10  26
BRANCH   9  29
HETATM   29  N   UNL     1      -9.500   0.801 -33.604  1.00  0.00    -0.176 NA
HETATM   30  C   UNL     1     -10.544   0.216 -33.109  1.00  0.00     0.150 C 
BRANCH  30  31
HETATM   31  C   UNL     1     -11.904   0.648 -33.486  1.00  0.00    -0.014 A 
HETATM   32  C   UNL     1     -12.192   2.014 -33.591  1.00  0.00     0.049 A 
HETATM   33  C   UNL     1     -13.510   2.413 -33.778  1.00  0.00     0.066 A 
HETATM   34  C   UNL     1     -14.530   1.475 -33.882  1.00  0.00     0.036 A 
HETATM   35  C   UNL     1     -14.236   0.113 -33.794  1.00  0.00     0.004 A 
HETATM   36  C   UNL     1     -12.920  -0.304 -33.587  1.00  0.00     0.013 A 
BRANCH  33  37
HETATM   37  O   UNL     1     -13.848   3.733 -33.837  1.00  0.00    -0.361 OA
HETATM   38  H   UNL     1     -14.629   3.829 -34.408  1.00  0.00     0.217 HD
ENDBRANCH  33  37
ENDBRANCH  30  31
ENDBRANCH   9  29
TORSDOF 8
ENDMDL
MODEL 2
REMARK VINA RESULT:     -10.2      2.344      8.290
REMARK  8 active torsions:
REMARK  status: ('A' for Active; 'I' for Inactive)
REMARK    1  A    between atoms: N_9  and  N_10 
REMARK    2  A    between atoms: C_11  and  C_12 
REMARK    3  A    between atoms: C_14  and  O_15 
REMARK    4  A    between atoms: C_19  and  N_20 
REMARK    5  A    between atoms: C_21  and  C_22 
REMARK       I    between atoms: C_22  and  N_23 
REMARK    6  A    between atoms: N_23  and  C_24 
REMARK    7  A    between atoms: C_24  and  C_25 
REMARK    8  A    between atoms: C_25  and  C_26 
ROOT
HETATM    1  C   UNL     1      -3.135   5.901 -33.160  1.00  0.00     0.002 A 
HETATM    2  C   UNL     1      -4.494   5.780 -32.866  1.00  0.00     0.034 A 
HETATM    3  C   UNL     1      -5.080   4.543 -32.615  1.00  0.00     0.086 A 
HETATM    4  C   UNL     1      -4.270   3.376 -32.669  1.00  0.00     0.088 A 
HETATM    5  N   UNL     1      -4.753   2.144 -32.441  1.00  0.00    -0.225 NA
HETATM    6  C   UNL     1      -6.069   2.139 -32.121  1.00  0.00     0.183 A 
HETATM    7  C   UNL     1      -6.875   3.270 -32.049  1.00  0.00     0.125 A 
HETATM    8  N   UNL     1      -6.392   4.507 -32.330  1.00  0.00    -0.242 NA
HETATM    9  N   UNL     1      -6.857   1.038 -31.836  1.00  0.00    -0.197 N 
HETATM   10  C   UNL     1      -8.140   1.488 -31.514  1.00  0.00     0.143 A 
HETATM   11  C   UNL     1      -8.180   2.861 -31.694  1.00  0.00     0.110 A 
HETATM   12  C   UNL     1      -2.919   3.513 -32.966  1.00  0.00     0.034 A 
HETATM   13  C   UNL     1      -2.344   4.761 -33.211  1.00  0.00     0.002 A 
ENDROOT
BRANCH  11  14
HETATM   14  C   UNL     1      -9.408   3.623 -31.657  1.00  0.00     0.257 C 
HETATM   15  N   UNL     1      -9.570   4.430 -32.768  1.00  0.00    -0.356 N 
HETATM   16  H   UNL     1      -8.807   4.463 -33.432  1.00  0.00     0.162 HD
HETATM   17  O   UNL     1     -10.298   3.411 -30.841  1.00  0.00    -0.267 OA
BRANCH  15  18
HETATM   18  C   UNL     1     -10.908   4.703 -33.260  1.00  0.00     0.127 C 
BRANCH  18  19
HETATM   19  C   UNL     1     -11.326   3.701 -34.365  1.00  0.00     0.053 C 
BRANCH  19  20
HETATM   20  C   UNL     1     -12.086   2.435 -33.999  1.00  0.00    -0.082 C 
HETATM   21  C   UNL     1     -13.582   2.633 -33.836  1.00  0.00     0.034 C 
HETATM   22  C   UNL     1     -14.296   1.470 -33.143  1.00  0.00     0.005 C 
HETATM   23  C   UNL     1     -13.827   0.131 -33.695  1.00  0.00     0.004 C 
HETATM   24  C   UNL     1     -12.318  -0.030 -33.525  1.00  0.00     0.027 C 
HETATM   25  C   UNL     1     -11.540   1.213 -33.852  1.00  0.00    -0.024 C 
ENDBRANCH  19  20
ENDBRANCH  18  19
ENDBRANCH  15  18
ENDBRANCH  11  14
BRANCH  10  26
HETATM   26  N   UNL     1      -9.161   0.637 -31.210  1.00  0.00    -0.383 N 
HETATM   27  H   UNL     1      -9.725   0.227 -31.952  1.00  0.00     0.157 HD
HETATM   28  H   UNL     1      -9.691   0.784 -30.347  1.00  0.00     0.157 HD
ENDBRANCH  10  26
BRANCH   9  29
HETATM   29  N   UNL     1      -6.530  -0.269 -32.099  1.00  0.00    -0.176 NA
HETATM   30  C   UNL     1      -6.674  -0.604 -33.340  1.00  0.00     0.150 C 
BRANCH  30  31
HETATM   31  C   UNL     1      -6.042  -1.827 -33.872  1.00  0.00    -0.014 A 
HETATM   32  C   UNL     1      -6.826  -2.785 -34.524  1.00  0.00     0.049 A 
HETATM   33  C   UNL     1      -6.256  -4.004 -34.869  1.00  0.00     0.066 A 
HETATM   34  C   UNL     1      -4.920  -4.269 -34.592  1.00  0.00     0.036 A 
HETATM   35  C   UNL     1      -4.137  -3.304 -33.956  1.00  0.00     0.004 A 
HETATM   36  C   UNL     1      -4.699  -2.082 -33.586  1.00  0.00     0.013 A 
BRANCH  33  37
HETATM   37  O   UNL     1      -6.991  -4.988 -35.462  1.00  0.00    -0.361 OA
HETATM   38  H   UNL     1      -6.859  -4.939 -36.424  1.00  0.00     0.217 HD
ENDBRANCH  33  37
ENDBRANCH  30  31
ENDBRANCH   9  29
TORSDOF 8
ENDMDL
MODEL 3
REMARK VINA RESULT:     -10.1      1.515      2.025
REMARK  8 active torsions:
REMARK  status: ('A' for Active; 'I' for Inactive)
REMARK    1  A    between atoms: N_9  and  N_10 
REMARK    2  A    between atoms: C_11  and  C_12 
REMARK    3  A    between atoms: C_14  and  O_15 
REMARK    4  A    between atoms: C_19  and  N_20 
REMARK    5  A    between atoms: C_21  and  C_22 
REMARK       I    between atoms: C_22  and  N_23 
REMARK    6  A    between atoms: N_23  and  C_24 
REMARK    7  A    between atoms: C_24  and  C_25 
REMARK    8  A    between atoms: C_25  and  C_26 
ROOT
HETATM    1  C   UNL     1      -4.645  -3.125 -34.890  1.00  0.00     0.002 A 
HETATM    2  C   UNL     1      -4.320  -1.923 -34.257  1.00  0.00     0.034 A 
HETATM    3  C   UNL     1      -5.293  -1.120 -33.672  1.00  0.00     0.086 A 
HETATM    4  C   UNL     1      -6.651  -1.534 -33.730  1.00  0.00     0.088 A 
HETATM    5  N   UNL     1      -7.653  -0.820 -33.192  1.00  0.00    -0.225 NA
HETATM    6  C   UNL     1      -7.229   0.304 -32.564  1.00  0.00     0.183 A 
HETATM    7  C   UNL     1      -5.904   0.718 -32.483  1.00  0.00     0.125 A 
HETATM    8  N   UNL     1      -4.902   0.017 -33.072  1.00  0.00    -0.242 NA
HETATM    9  N   UNL     1      -8.009   1.247 -31.918  1.00  0.00    -0.197 N 
HETATM   10  C   UNL     1      -7.164   2.215 -31.370  1.00  0.00     0.143 A 
HETATM   11  C   UNL     1      -5.864   1.930 -31.757  1.00  0.00     0.110 A 
HETATM   12  C   UNL     1      -6.959  -2.730 -34.366  1.00  0.00     0.034 A 
HETATM   13  C   UNL     1      -5.971  -3.529 -34.945  1.00  0.00     0.002 A 
ENDROOT
BRANCH  11  14
HETATM   14  C   UNL     1      -4.763   2.843 -31.547  1.00  0.00     0.257 C 
HETATM   15  N   UNL     1      -4.118   3.182 -32.721  1.00  0.00    -0.356 N 
HETATM   16  H   UNL     1      -4.419   2.715 -33.567  1.00  0.00     0.162 HD
HETATM   17  O   UNL     1      -4.569   3.415 -30.481  1.00  0.00    -0.267 OA
BRANCH  15  18
HETATM   18  C   UNL     1      -3.520   4.498 -32.852  1.00  0.00     0.127 C 
BRANCH  18  19
HETATM   19  C   UNL     1      -1.988   4.455 -32.629  1.00  0.00     0.053 C 
BRANCH  19  20
HETATM   20  C   UNL     1      -1.315   5.498 -31.750  1.00  0.00    -0.082 C 
HETATM   21  C   UNL     1      -2.280   6.351 -30.948  1.00  0.00     0.034 C 
HETATM   22  C   UNL     1      -1.650   7.606 -30.338  1.00  0.00     0.005 C 
HETATM   23  C   UNL     1      -0.305   7.290 -29.700  1.00  0.00     0.004 C 
HETATM   24  C   UNL     1       0.656   6.688 -30.722  1.00  0.00     0.027 C 
HETATM   25  C   UNL     1       0.014   5.674 -31.627  1.00  0.00    -0.024 C 
ENDBRANCH  19  20
ENDBRANCH  18  19
ENDBRANCH  15  18
ENDBRANCH  11  14
BRANCH  10  26
HETATM   26  N   UNL     1      -7.634   3.299 -30.691  1.00  0.00    -0.383 N 
HETATM   27  H   UNL     1      -7.200   4.212 -30.819  1.00  0.00     0.157 HD
HETATM   28  H   UNL     1      -8.012   3.170 -29.749  1.00  0.00     0.157 HD
ENDBRANCH  10  26
BRANCH   9  29
HETATM   29  N   UNL     1      -9.371   1.374 -32.035  1.00  0.00    -0.176 NA
HETATM   30  C   UNL     1      -9.772   1.603 -33.244  1.00  0.00     0.150 C 
BRANCH  30  31
HETATM   31  C   UNL     1     -11.186   1.411 -33.621  1.00  0.00    -0.014 A 
HETATM   32  C   UNL     1     -11.846   0.232 -33.254  1.00  0.00     0.049 A 
HETATM   33  C   UNL     1     -13.118  -0.015 -33.756  1.00  0.00     0.066 A 
HETATM   34  C   UNL     1     -13.741   0.900 -34.596  1.00  0.00     0.036 A 
HETATM   35  C   UNL     1     -13.087   2.083 -34.946  1.00  0.00     0.004 A 
HETATM   36  C   UNL     1     -11.801   2.337 -34.465  1.00  0.00     0.013 A 
BRANCH  33  37
HETATM   37  O   UNL     1     -13.781  -1.171 -33.467  1.00  0.00    -0.361 OA
HETATM   38  H   UNL     1     -13.553  -1.837 -34.137  1.00  0.00     0.217 HD
ENDBRANCH  33  37
ENDBRANCH  30  31
ENDBRANCH   9  29
TORSDOF 8
ENDMDL
MODEL 4
REMARK VINA RESULT:      -9.8      3.731      7.083
REMARK  8 active torsions:
REMARK  status: ('A' for Active; 'I' for Inactive)
REMARK    1  A    between atoms: N_9  and  N_10 
REMARK    2  A    between atoms: C_11  and  C_12 
REMARK    3  A    between atoms: C_14  and  O_15 
REMARK    4  A    between atoms: C_19  and  N_20 
REMARK    5  A    between atoms: C_21  and  C_22 
REMARK       I    between atoms: C_22  and  N_23 
REMARK    6  A    between atoms: N_23  and  C_24 
REMARK    7  A    between atoms: C_24  and  C_25 
REMARK    8  A    between atoms: C_25  and  C_26 
ROOT
HETATM    1  C   UNL     1      -1.302   7.079 -33.310  1.00  0.00     0.002 A 
HETATM    2  C   UNL     1      -2.159   6.927 -32.218  1.00  0.00     0.034 A 
HETATM    3  C   UNL     1      -2.975   5.809 -32.080  1.00  0.00     0.086 A 
HETATM    4  C   UNL     1      -2.937   4.803 -33.083  1.00  0.00     0.088 A 
HETATM    5  N   UNL     1      -3.690   3.693 -33.029  1.00  0.00    -0.225 NA
HETATM    6  C   UNL     1      -4.452   3.620 -31.910  1.00  0.00     0.183 A 
HETATM    7  C   UNL     1      -4.492   4.586 -30.910  1.00  0.00     0.125 A 
HETATM    8  N   UNL     1      -3.766   5.729 -30.997  1.00  0.00    -0.242 NA
HETATM    9  N   UNL     1      -5.333   2.611 -31.562  1.00  0.00    -0.197 N 
HETATM   10  C   UNL     1      -5.871   2.913 -30.308  1.00  0.00     0.143 A 
HETATM   11  C   UNL     1      -5.401   4.157 -29.918  1.00  0.00     0.110 A 
HETATM   12  C   UNL     1      -2.081   4.970 -34.165  1.00  0.00     0.034 A 
HETATM   13  C   UNL     1      -1.264   6.095 -34.288  1.00  0.00     0.002 A 
ENDROOT
BRANCH  11  14
HETATM   14  C   UNL     1      -5.923   4.870 -28.774  1.00  0.00     0.257 C 
HETATM   15  N   UNL     1      -4.934   5.254 -27.887  1.00  0.00    -0.356 N 
HETATM   16  H   UNL     1      -3.991   4.941 -28.081  1.00  0.00     0.162 HD
HETATM   17  O   UNL     1      -7.078   5.274 -28.712  1.00  0.00    -0.267 OA
BRANCH  15  18
HETATM   18  C   UNL     1      -5.098   6.477 -27.123  1.00  0.00     0.127 C 
BRANCH  18  19
HETATM   19  C   UNL     1      -4.069   7.556 -27.543  1.00  0.00     0.053 C 
BRANCH  19  20
HETATM   20  C   UNL     1      -2.580   7.247 -27.504  1.00  0.00    -0.082 C 
HETATM   21  C   UNL     1      -1.814   7.723 -28.725  1.00  0.00     0.034 C 
HETATM   22  C   UNL     1      -0.411   7.125 -28.857  1.00  0.00     0.005 C 
HETATM   23  C   UNL     1       0.322   7.146 -27.523  1.00  0.00     0.004 C 
HETATM   24  C   UNL     1      -0.457   6.375 -26.461  1.00  0.00     0.027 C 
HETATM   25  C   UNL     1      -1.937   6.637 -26.491  1.00  0.00    -0.024 C 
ENDBRANCH  19  20
ENDBRANCH  18  19
ENDBRANCH  15  18
ENDBRANCH  11  14
BRANCH  10  26
HETATM   26  N   UNL     1      -6.799   2.122 -29.699  1.00  0.00    -0.383 N 
HETATM   27  H   UNL     1      -7.713   1.981 -30.126  1.00  0.00     0.157 HD
HETATM   28  H   UNL     1      -6.832   2.090 -28.677  1.00  0.00     0.157 HD
ENDBRANCH  10  26
BRANCH   9  29
HETATM   29  N   UNL     1      -5.814   1.643 -32.407  1.00  0.00    -0.176 NA
HETATM   30  C   UNL     1      -4.957   0.709 -32.672  1.00  0.00     0.150 C 
BRANCH  30  31
HETATM   31  C   UNL     1      -5.394  -0.576 -33.252  1.00  0.00    -0.014 A 
HETATM   32  C   UNL     1      -4.460  -1.600 -33.448  1.00  0.00     0.049 A 
HETATM   33  C   UNL     1      -4.842  -2.738 -34.147  1.00  0.00     0.066 A 
HETATM   34  C   UNL     1      -6.138  -2.875 -34.630  1.00  0.00     0.036 A 
HETATM   35  C   UNL     1      -7.072  -1.859 -34.417  1.00  0.00     0.004 A 
HETATM   36  C   UNL     1      -6.698  -0.700 -33.734  1.00  0.00     0.013 A 
BRANCH  33  37
HETATM   37  O   UNL     1      -3.956  -3.741 -34.406  1.00  0.00    -0.361 OA
HETATM   38  H   UNL     1      -3.122  -3.349 -34.716  1.00  0.00     0.217 HD
ENDBRANCH  33  37
ENDBRANCH  30  31
ENDBRANCH   9  29
TORSDOF 8
ENDMDL
MODEL 5
REMARK VINA RESULT:      -9.7      2.922      6.817
REMARK  8 active torsions:
REMARK  status: ('A' for Active; 'I' for Inactive)
REMARK    1  A    between atoms: N_9  and  N_10 
REMARK    2  A    between atoms: C_11  and  C_12 
REMARK    3  A    between atoms: C_14  and  O_15 
REMARK    4  A    between atoms: C_19  and  N_20 
REMARK    5  A    between atoms: C_21  and  C_22 
REMARK       I    between atoms: C_22  and  N_23 
REMARK    6  A    between atoms: N_23  and  C_24 
REMARK    7  A    between atoms: C_24  and  C_25 
REMARK    8  A    between atoms: C_25  and  C_26 
ROOT
HETATM    1  C   UNL     1      -7.106   6.137 -28.001  1.00  0.00     0.002 A 
HETATM    2  C   UNL     1      -6.305   5.185 -28.635  1.00  0.00     0.034 A 
HETATM    3  C   UNL     1      -6.706   4.561 -29.812  1.00  0.00     0.086 A 
HETATM    4  C   UNL     1      -7.966   4.900 -30.374  1.00  0.00     0.088 A 
HETATM    5  N   UNL     1      -8.430   4.347 -31.507  1.00  0.00    -0.225 NA
HETATM    6  C   UNL     1      -7.560   3.471 -32.066  1.00  0.00     0.183 A 
HETATM    7  C   UNL     1      -6.317   3.137 -31.540  1.00  0.00     0.125 A 
HETATM    8  N   UNL     1      -5.877   3.662 -30.368  1.00  0.00    -0.242 NA
HETATM    9  N   UNL     1      -7.741   2.737 -33.225  1.00  0.00    -0.197 N 
HETATM   10  C   UNL     1      -6.579   1.998 -33.462  1.00  0.00     0.143 A 
HETATM   11  C   UNL     1      -5.712   2.194 -32.400  1.00  0.00     0.110 A 
HETATM   12  C   UNL     1      -8.753   5.847 -29.730  1.00  0.00     0.034 A 
HETATM   13  C   UNL     1      -8.337   6.469 -28.552  1.00  0.00     0.002 A 
ENDROOT
BRANCH  11  14
HETATM   14  C   UNL     1      -4.508   1.415 -32.214  1.00  0.00     0.257 C 
HETATM   15  N   UNL     1      -4.766   0.119 -31.810  1.00  0.00    -0.356 N 
HETATM   16  H   UNL     1      -5.731  -0.123 -31.616  1.00  0.00     0.162 HD
HETATM   17  O   UNL     1      -3.404   1.799 -32.584  1.00  0.00    -0.267 OA
BRANCH  15  18
HETATM   18  C   UNL     1      -3.871  -0.947 -32.219  1.00  0.00     0.127 C 
BRANCH  18  19
HETATM   19  C   UNL     1      -4.051  -1.302 -33.716  1.00  0.00     0.053 C 
BRANCH  19  20
HETATM   20  C   UNL     1      -4.734  -2.602 -34.115  1.00  0.00    -0.082 C 
HETATM   21  C   UNL     1      -6.152  -2.425 -34.628  1.00  0.00     0.034 C 
HETATM   22  C   UNL     1      -6.957  -3.726 -34.703  1.00  0.00     0.005 C 
HETATM   23  C   UNL     1      -6.131  -4.848 -35.312  1.00  0.00     0.004 C 
HETATM   24  C   UNL     1      -4.858  -5.089 -34.504  1.00  0.00     0.027 C 
HETATM   25  C   UNL     1      -4.173  -3.824 -34.070  1.00  0.00    -0.024 C 
ENDBRANCH  19  20
ENDBRANCH  18  19
ENDBRANCH  15  18
ENDBRANCH  11  14
BRANCH  10  26
HETATM   26  N   UNL     1      -6.454   1.147 -34.521  1.00  0.00    -0.383 N 
HETATM   27  H   UNL     1      -7.212   0.510 -34.759  1.00  0.00     0.157 HD
HETATM   28  H   UNL     1      -5.532   0.766 -34.745  1.00  0.00     0.157 HD
ENDBRANCH  10  26
BRANCH   9  29
HETATM   29  N   UNL     1      -8.937   2.542 -33.870  1.00  0.00    -0.176 NA
HETATM   30  C   UNL     1      -9.596   1.511 -33.447  1.00  0.00     0.150 C 
BRANCH  30  31
HETATM   31  C   UNL     1     -11.031   1.353 -33.754  1.00  0.00    -0.014 A 
HETATM   32  C   UNL     1     -11.725   0.239 -33.266  1.00  0.00     0.049 A 
HETATM   33  C   UNL     1     -13.025   0.011 -33.697  1.00  0.00     0.066 A 
HETATM   34  C   UNL     1     -13.644   0.883 -34.587  1.00  0.00     0.036 A 
HETATM   35  C   UNL     1     -12.954   2.001 -35.059  1.00  0.00     0.004 A 
HETATM   36  C   UNL     1     -11.639   2.234 -34.649  1.00  0.00     0.013 A 
BRANCH  33  37
HETATM   37  O   UNL     1     -13.726  -1.085 -33.288  1.00  0.00    -0.361 OA
HETATM   38  H   UNL     1     -13.098  -1.802 -33.096  1.00  0.00     0.217 HD
ENDBRANCH  33  37
ENDBRANCH  30  31
ENDBRANCH   9  29
TORSDOF 8
ENDMDL
MODEL 6
REMARK VINA RESULT:      -9.7      2.054      8.791
REMARK  8 active torsions:
REMARK  status: ('A' for Active; 'I' for Inactive)
REMARK    1  A    between atoms: N_9  and  N_10 
REMARK    2  A    between atoms: C_11  and  C_12 
REMARK    3  A    between atoms: C_14  and  O_15 
REMARK    4  A    between atoms: C_19  and  N_20 
REMARK    5  A    between atoms: C_21  and  C_22 
REMARK       I    between atoms: C_22  and  N_23 
REMARK    6  A    between atoms: N_23  and  C_24 
REMARK    7  A    between atoms: C_24  and  C_25 
REMARK    8  A    between atoms: C_25  and  C_26 
ROOT
HETATM    1  C   UNL     1      -5.915  -3.608 -34.642  1.00  0.00     0.002 A 
HETATM    2  C   UNL     1      -6.918  -2.673 -34.378  1.00  0.00     0.034 A 
HETATM    3  C   UNL     1      -6.619  -1.374 -33.978  1.00  0.00     0.086 A 
HETATM    4  C   UNL     1      -5.257  -0.998 -33.829  1.00  0.00     0.088 A 
HETATM    5  N   UNL     1      -4.880   0.233 -33.447  1.00  0.00    -0.225 NA
HETATM    6  C   UNL     1      -5.925   1.076 -33.259  1.00  0.00     0.183 A 
HETATM    7  C   UNL     1      -7.263   0.731 -33.414  1.00  0.00     0.125 A 
HETATM    8  N   UNL     1      -7.639  -0.529 -33.751  1.00  0.00    -0.242 NA
HETATM    9  N   UNL     1      -5.871   2.401 -32.863  1.00  0.00    -0.197 N 
HETATM   10  C   UNL     1      -7.174   2.905 -32.841  1.00  0.00     0.143 A 
HETATM   11  C   UNL     1      -8.049   1.869 -33.127  1.00  0.00     0.110 A 
HETATM   12  C   UNL     1      -4.271  -1.940 -34.093  1.00  0.00     0.034 A 
HETATM   13  C   UNL     1      -4.585  -3.239 -34.498  1.00  0.00     0.002 A 
ENDROOT
BRANCH  11  14
HETATM   14  C   UNL     1      -9.482   1.988 -32.978  1.00  0.00     0.257 C 
HETATM   15  N   UNL     1     -10.180   1.223 -33.894  1.00  0.00    -0.356 N 
HETATM   16  H   UNL     1      -9.639   0.737 -34.599  1.00  0.00     0.162 HD
HETATM   17  O   UNL     1     -10.007   2.531 -32.013  1.00  0.00    -0.267 OA
BRANCH  15  18
HETATM   18  C   UNL     1     -11.466   0.663 -33.522  1.00  0.00     0.127 C 
BRANCH  18  19
HETATM   19  C   UNL     1     -12.637   1.435 -34.178  1.00  0.00     0.053 C 
BRANCH  19  20
HETATM   20  C   UNL     1     -13.717   2.065 -33.311  1.00  0.00    -0.082 C 
HETATM   21  C   UNL     1     -13.327   3.399 -32.703  1.00  0.00     0.034 C 
HETATM   22  C   UNL     1     -14.249   3.867 -31.574  1.00  0.00     0.005 C 
HETATM   23  C   UNL     1     -15.712   3.672 -31.944  1.00  0.00     0.004 C 
HETATM   24  C   UNL     1     -16.004   2.207 -32.259  1.00  0.00     0.027 C 
HETATM   25  C   UNL     1     -14.941   1.548 -33.092  1.00  0.00    -0.024 C 
ENDBRANCH  19  20
ENDBRANCH  18  19
ENDBRANCH  15  18
ENDBRANCH  11  14
BRANCH  10  26
HETATM   26  N   UNL     1      -7.459   4.183 -32.462  1.00  0.00    -0.383 N 
HETATM   27  H   UNL     1      -7.561   4.415 -31.476  1.00  0.00     0.157 HD
HETATM   28  H   UNL     1      -8.048   4.761 -33.067  1.00  0.00     0.157 HD
ENDBRANCH  10  26
BRANCH   9  29
HETATM   29  N   UNL     1      -4.780   3.027 -32.315  1.00  0.00    -0.176 NA
HETATM   30  C   UNL     1      -4.040   3.641 -33.182  1.00  0.00     0.150 C 
BRANCH  30  31
HETATM   31  C   UNL     1      -3.054   4.652 -32.753  1.00  0.00    -0.014 A 
HETATM   32  C   UNL     1      -2.849   5.794 -33.536  1.00  0.00     0.049 A 
HETATM   33  C   UNL     1      -1.804   6.652 -33.217  1.00  0.00     0.066 A 
HETATM   34  C   UNL     1      -0.981   6.398 -32.126  1.00  0.00     0.036 A 
HETATM   35  C   UNL     1      -1.199   5.266 -31.338  1.00  0.00     0.004 A 
HETATM   36  C   UNL     1      -2.233   4.383 -31.656  1.00  0.00     0.013 A 
BRANCH  33  37
HETATM   37  O   UNL     1      -1.533   7.752 -33.977  1.00  0.00    -0.361 OA
HETATM   38  H   UNL     1      -1.542   7.493 -34.914  1.00  0.00     0.217 HD
ENDBRANCH  33  37
ENDBRANCH  30  31
ENDBRANCH   9  29
TORSDOF 8
ENDMDL
MODEL 7
REMARK VINA RESULT:      -9.6      2.652      6.576
REMARK  8 active torsions:
REMARK  status: ('A' for Active; 'I' for Inactive)
REMARK    1  A    between atoms: N_9  and  N_10 
REMARK    2  A    between atoms: C_11  and  C_12 
REMARK    3  A    between atoms: C_14  and  O_15 
REMARK    4  A    between atoms: C_19  and  N_20 
REMARK    5  A    between atoms: C_21  and  C_22 
REMARK       I    between atoms: C_22  and  N_23 
REMARK    6  A    between atoms: N_23  and  C_24 
REMARK    7  A    between atoms: C_24  and  C_25 
REMARK    8  A    between atoms: C_25  and  C_26 
ROOT
HETATM    1  C   UNL     1     -14.470   1.659 -33.483  1.00  0.00     0.002 A 
HETATM    2  C   UNL     1     -13.431   2.592 -33.525  1.00  0.00     0.034 A 
HETATM    3  C   UNL     1     -12.098   2.197 -33.588  1.00  0.00     0.086 A 
HETATM    4  C   UNL     1     -11.793   0.810 -33.601  1.00  0.00     0.088 A 
HETATM    5  N   UNL     1     -10.535   0.342 -33.660  1.00  0.00    -0.225 NA
HETATM    6  C   UNL     1      -9.605   1.325 -33.743  1.00  0.00     0.183 A 
HETATM    7  C   UNL     1      -9.885   2.687 -33.747  1.00  0.00     0.125 A 
HETATM    8  N   UNL     1     -11.155   3.153 -33.636  1.00  0.00    -0.242 NA
HETATM    9  N   UNL     1      -8.231   1.173 -33.813  1.00  0.00    -0.197 N 
HETATM   10  C   UNL     1      -7.656   2.440 -33.934  1.00  0.00     0.143 A 
HETATM   11  C   UNL     1      -8.662   3.388 -33.840  1.00  0.00     0.110 A 
HETATM   12  C   UNL     1     -12.837  -0.106 -33.555  1.00  0.00     0.034 A 
HETATM   13  C   UNL     1     -14.170   0.304 -33.497  1.00  0.00     0.002 A 
ENDROOT
BRANCH  11  14
HETATM   14  C   UNL     1      -8.399   4.804 -33.711  1.00  0.00     0.257 C 
HETATM   15  N   UNL     1      -7.586   5.100 -32.633  1.00  0.00    -0.356 N 
HETATM   16  H   UNL     1      -7.331   4.335 -32.020  1.00  0.00     0.162 HD
HETATM   17  O   UNL     1      -8.685   5.616 -34.584  1.00  0.00    -0.267 OA
BRANCH  15  18
HETATM   18  C   UNL     1      -6.683   6.234 -32.711  1.00  0.00     0.127 C 
BRANCH  18  19
HETATM   19  C   UNL     1      -5.287   5.894 -32.133  1.00  0.00     0.053 C 
BRANCH  19  20
HETATM   20  C   UNL     1      -4.057   5.953 -33.026  1.00  0.00    -0.082 C 
HETATM   21  C   UNL     1      -2.960   6.868 -32.513  1.00  0.00     0.034 C 
HETATM   22  C   UNL     1      -1.884   7.200 -33.551  1.00  0.00     0.005 C 
HETATM   23  C   UNL     1      -1.453   5.955 -34.311  1.00  0.00     0.004 C 
HETATM   24  C   UNL     1      -2.643   5.302 -35.009  1.00  0.00     0.027 C 
HETATM   25  C   UNL     1      -3.884   5.254 -34.163  1.00  0.00    -0.024 C 
ENDBRANCH  19  20
ENDBRANCH  18  19
ENDBRANCH  15  18
ENDBRANCH  11  14
BRANCH  10  26
HETATM   26  N   UNL     1      -6.308   2.630 -33.998  1.00  0.00    -0.383 N 
HETATM   27  H   UNL     1      -5.902   3.178 -34.755  1.00  0.00     0.157 HD
HETATM   28  H   UNL     1      -5.685   1.887 -33.671  1.00  0.00     0.157 HD
ENDBRANCH  10  26
BRANCH   9  29
HETATM   29  N   UNL     1      -7.539   0.024 -33.528  1.00  0.00    -0.176 NA
HETATM   30  C   UNL     1      -7.275  -0.699 -34.569  1.00  0.00     0.150 C 
BRANCH  30  31
HETATM   31  C   UNL     1      -6.248  -1.758 -34.514  1.00  0.00    -0.014 A 
HETATM   32  C   UNL     1      -6.545  -3.037 -35.001  1.00  0.00     0.049 A 
HETATM   33  C   UNL     1      -5.637  -4.067 -34.791  1.00  0.00     0.066 A 
HETATM   34  C   UNL     1      -4.439  -3.836 -34.126  1.00  0.00     0.036 A 
HETATM   35  C   UNL     1      -4.139  -2.555 -33.657  1.00  0.00     0.004 A 
HETATM   36  C   UNL     1      -5.049  -1.513 -33.842  1.00  0.00     0.013 A 
BRANCH  33  37
HETATM   37  O   UNL     1      -5.902  -5.340 -35.203  1.00  0.00    -0.361 OA
HETATM   38  H   UNL     1      -5.588  -5.443 -36.118  1.00  0.00     0.217 HD
ENDBRANCH  33  37
ENDBRANCH  30  31
ENDBRANCH   9  29
TORSDOF 8
ENDMDL
MODEL 8
REMARK VINA RESULT:      -9.5      2.832      7.101
REMARK  8 active torsions:
REMARK  status: ('A' for Active; 'I' for Inactive)
REMARK    1  A    between atoms: N_9  and  N_10 
REMARK    2  A    between atoms: C_11  and  C_12 
REMARK    3  A    between atoms: C_14  and  O_15 
REMARK    4  A    between atoms: C_19  and  N_20 
REMARK    5  A    between atoms: C_21  and  C_22 
REMARK       I    between atoms: C_22  and  N_23 
REMARK    6  A    between atoms: N_23  and  C_24 
REMARK    7  A    between atoms: C_24  and  C_25 
REMARK    8  A    between atoms: C_25  and  C_26 
ROOT
HETATM    1  C   UNL     1     -14.597   1.645 -33.489  1.00  0.00     0.002 A 
HETATM    2  C   UNL     1     -13.561   2.581 -33.492  1.00  0.00     0.034 A 
HETATM    3  C   UNL     1     -12.226   2.192 -33.553  1.00  0.00     0.086 A 
HETATM    4  C   UNL     1     -11.917   0.807 -33.606  1.00  0.00     0.088 A 
HETATM    5  N   UNL     1     -10.658   0.344 -33.666  1.00  0.00    -0.225 NA
HETATM    6  C   UNL     1      -9.730   1.331 -33.710  1.00  0.00     0.183 A 
HETATM    7  C   UNL     1     -10.013   2.692 -33.674  1.00  0.00     0.125 A 
HETATM    8  N   UNL     1     -11.285   3.151 -33.562  1.00  0.00    -0.242 NA
HETATM    9  N   UNL     1      -8.355   1.185 -33.770  1.00  0.00    -0.197 N 
HETATM   10  C   UNL     1      -7.782   2.457 -33.846  1.00  0.00     0.143 A 
HETATM   11  C   UNL     1      -8.791   3.399 -33.733  1.00  0.00     0.110 A 
HETATM   12  C   UNL     1     -12.959  -0.112 -33.599  1.00  0.00     0.034 A 
HETATM   13  C   UNL     1     -14.294   0.292 -33.542  1.00  0.00     0.002 A 
ENDROOT
BRANCH  11  14
HETATM   14  C   UNL     1      -8.533   4.811 -33.557  1.00  0.00     0.257 C 
HETATM   15  N   UNL     1      -9.299   5.373 -32.554  1.00  0.00    -0.356 N 
HETATM   16  H   UNL     1      -9.992   4.782 -32.113  1.00  0.00     0.162 HD
HETATM   17  O   UNL     1      -7.590   5.385 -34.089  1.00  0.00    -0.267 OA
BRANCH  15  18
HETATM   18  C   UNL     1      -8.760   6.477 -31.780  1.00  0.00     0.127 C 
BRANCH  18  19
HETATM   19  C   UNL     1      -8.148   5.991 -30.442  1.00  0.00     0.053 C 
BRANCH  19  20
HETATM   20  C   UNL     1      -7.246   4.766 -30.415  1.00  0.00    -0.082 C 
HETATM   21  C   UNL     1      -5.779   5.069 -30.661  1.00  0.00     0.034 C 
HETATM   22  C   UNL     1      -4.929   3.836 -30.976  1.00  0.00     0.005 C 
HETATM   23  C   UNL     1      -5.254   2.689 -30.031  1.00  0.00     0.004 C 
HETATM   24  C   UNL     1      -6.733   2.317 -30.113  1.00  0.00     0.027 C 
HETATM   25  C   UNL     1      -7.650   3.506 -30.170  1.00  0.00    -0.024 C 
ENDBRANCH  19  20
ENDBRANCH  18  19
ENDBRANCH  15  18
ENDBRANCH  11  14
BRANCH  10  26
HETATM   26  N   UNL     1      -6.433   2.652 -33.891  1.00  0.00    -0.383 N 
HETATM   27  H   UNL     1      -5.987   2.955 -34.754  1.00  0.00     0.157 HD
HETATM   28  H   UNL     1      -5.826   2.058 -33.320  1.00  0.00     0.157 HD
ENDBRANCH  10  26
BRANCH   9  29
HETATM   29  N   UNL     1      -7.662   0.029 -33.514  1.00  0.00    -0.176 NA
HETATM   30  C   UNL     1      -7.380  -0.658 -34.574  1.00  0.00     0.150 C 
BRANCH  30  31
HETATM   31  C   UNL     1      -6.351  -1.715 -34.540  1.00  0.00    -0.014 A 
HETATM   32  C   UNL     1      -6.653  -2.992 -35.025  1.00  0.00     0.049 A 
HETATM   33  C   UNL     1      -5.739  -4.021 -34.835  1.00  0.00     0.066 A 
HETATM   34  C   UNL     1      -4.530  -3.789 -34.189  1.00  0.00     0.036 A 
HETATM   35  C   UNL     1      -4.225  -2.509 -33.722  1.00  0.00     0.004 A 
HETATM   36  C   UNL     1      -5.141  -1.469 -33.889  1.00  0.00     0.013 A 
BRANCH  33  37
HETATM   37  O   UNL     1      -6.009  -5.293 -35.246  1.00  0.00    -0.361 OA
HETATM   38  H   UNL     1      -5.921  -5.334 -36.213  1.00  0.00     0.217 HD
ENDBRANCH  33  37
ENDBRANCH  30  31
ENDBRANCH   9  29
TORSDOF 8
ENDMDL
MODEL 9
REMARK VINA RESULT:      -9.5      3.149      6.613
REMARK  8 active torsions:
REMARK  status: ('A' for Active; 'I' for Inactive)
REMARK    1  A    between atoms: N_9  and  N_10 
REMARK    2  A    between atoms: C_11  and  C_12 
REMARK    3  A    between atoms: C_14  and  O_15 
REMARK    4  A    between atoms: C_19  and  N_20 
REMARK    5  A    between atoms: C_21  and  C_22 
REMARK       I    between atoms: C_22  and  N_23 
REMARK    6  A    between atoms: N_23  and  C_24 
REMARK    7  A    between atoms: C_24  and  C_25 
REMARK    8  A    between atoms: C_25  and  C_26 
ROOT
HETATM    1  C   UNL     1      -9.962   5.398 -34.067  1.00  0.00     0.002 A 
HETATM    2  C   UNL     1      -8.650   5.420 -33.590  1.00  0.00     0.034 A 
HETATM    3  C   UNL     1      -7.894   4.257 -33.479  1.00  0.00     0.086 A 
HETATM    4  C   UNL     1      -8.480   3.018 -33.856  1.00  0.00     0.088 A 
HETATM    5  N   UNL     1      -7.822   1.850 -33.781  1.00  0.00    -0.225 NA
HETATM    6  C   UNL     1      -6.545   1.985 -33.349  1.00  0.00     0.183 A 
HETATM    7  C   UNL     1      -5.949   3.189 -32.990  1.00  0.00     0.125 A 
HETATM    8  N   UNL     1      -6.635   4.359 -33.020  1.00  0.00    -0.242 NA
HETATM    9  N   UNL     1      -5.614   0.977 -33.161  1.00  0.00    -0.197 N 
HETATM   10  C   UNL     1      -4.412   1.562 -32.753  1.00  0.00     0.143 A 
HETATM   11  C   UNL     1      -4.620   2.922 -32.591  1.00  0.00     0.110 A 
HETATM   12  C   UNL     1      -9.787   3.013 -34.326  1.00  0.00     0.034 A 
HETATM   13  C   UNL     1     -10.533   4.188 -34.436  1.00  0.00     0.002 A 
ENDROOT
BRANCH  11  14
HETATM   14  C   UNL     1      -3.649   3.797 -31.974  1.00  0.00     0.257 C 
HETATM   15  N   UNL     1      -4.006   5.130 -32.049  1.00  0.00    -0.356 N 
HETATM   16  H   UNL     1      -4.840   5.358 -32.577  1.00  0.00     0.162 HD
HETATM   17  O   UNL     1      -2.730   3.383 -31.276  1.00  0.00    -0.267 OA
BRANCH  15  18
HETATM   18  C   UNL     1      -3.611   6.035 -30.985  1.00  0.00     0.127 C 
BRANCH  18  19
HETATM   19  C   UNL     1      -2.256   6.721 -31.292  1.00  0.00     0.053 C 
BRANCH  19  20
HETATM   20  C   UNL     1      -1.097   6.590 -30.316  1.00  0.00    -0.082 C 
HETATM   21  C   UNL     1      -0.881   7.811 -29.440  1.00  0.00     0.034 C 
HETATM   22  C   UNL     1       0.467   7.830 -28.713  1.00  0.00     0.005 C 
HETATM   23  C   UNL     1       0.780   6.471 -28.103  1.00  0.00     0.004 C 
HETATM   24  C   UNL     1       0.800   5.384 -29.175  1.00  0.00     0.027 C 
HETATM   25  C   UNL     1      -0.317   5.502 -30.172  1.00  0.00    -0.024 C 
ENDBRANCH  19  20
ENDBRANCH  18  19
ENDBRANCH  15  18
ENDBRANCH  11  14
BRANCH  10  26
HETATM   26  N   UNL     1      -3.303   0.827 -32.458  1.00  0.00    -0.383 N 
HETATM   27  H   UNL     1      -3.261  -0.160 -32.704  1.00  0.00     0.157 HD
HETATM   28  H   UNL     1      -2.772   1.045 -31.611  1.00  0.00     0.157 HD
ENDBRANCH  10  26
BRANCH   9  29
HETATM   29  N   UNL     1      -5.891  -0.365 -33.103  1.00  0.00    -0.176 NA
HETATM   30  C   UNL     1      -5.780  -0.971 -34.241  1.00  0.00     0.150 C 
BRANCH  30  31
HETATM   31  C   UNL     1      -5.681  -2.442 -34.309  1.00  0.00    -0.014 A 
HETATM   32  C   UNL     1      -4.465  -3.069 -34.014  1.00  0.00     0.049 A 
HETATM   33  C   UNL     1      -4.335  -4.433 -34.244  1.00  0.00     0.066 A 
HETATM   34  C   UNL     1      -5.399  -5.176 -34.742  1.00  0.00     0.036 A 
HETATM   35  C   UNL     1      -6.615  -4.550 -35.019  1.00  0.00     0.004 A 
HETATM   36  C   UNL     1      -6.757  -3.176 -34.811  1.00  0.00     0.013 A 
BRANCH  33  37
HETATM   37  O   UNL     1      -3.156  -5.080 -34.018  1.00  0.00    -0.361 OA
HETATM   38  H   UNL     1      -2.432  -4.432 -34.057  1.00  0.00     0.217 HD
ENDBRANCH  33  37
ENDBRANCH  30  31
ENDBRANCH   9  29
TORSDOF 8
ENDMDL
MODEL 10
REMARK VINA RESULT:      -9.3      2.248      3.109
REMARK  8 active torsions:
REMARK  status: ('A' for Active; 'I' for Inactive)
REMARK    1  A    between atoms: N_9  and  N_10 
REMARK    2  A    between atoms: C_11  and  C_12 
REMARK    3  A    between atoms: C_14  and  O_15 
REMARK    4  A    between atoms: C_19  and  N_20 
REMARK    5  A    between atoms: C_21  and  C_22 
REMARK       I    between atoms: C_22  and  N_23 
REMARK    6  A    between atoms: N_23  and  C_24 
REMARK    7  A    between atoms: C_24  and  C_25 
REMARK    8  A    between atoms: C_25  and  C_26 
ROOT
HETATM    1  C   UNL     1      -2.744  -1.281 -31.969  1.00  0.00     0.002 A 
HETATM    2  C   UNL     1      -2.856   0.091 -32.206  1.00  0.00     0.034 A 
HETATM    3  C   UNL     1      -4.064   0.669 -32.585  1.00  0.00     0.086 A 
HETATM    4  C   UNL     1      -5.205  -0.163 -32.742  1.00  0.00     0.088 A 
HETATM    5  N   UNL     1      -6.407   0.312 -33.105  1.00  0.00    -0.225 NA
HETATM    6  C   UNL     1      -6.422   1.657 -33.267  1.00  0.00     0.183 A 
HETATM    7  C   UNL     1      -5.320   2.490 -33.104  1.00  0.00     0.125 A 
HETATM    8  N   UNL     1      -4.096   1.997 -32.786  1.00  0.00    -0.242 NA
HETATM    9  N   UNL     1      -7.498   2.444 -33.639  1.00  0.00    -0.197 N 
HETATM   10  C   UNL     1      -7.086   3.779 -33.639  1.00  0.00     0.143 A 
HETATM   11  C   UNL     1      -5.728   3.818 -33.363  1.00  0.00     0.110 A 
HETATM   12  C   UNL     1      -5.076  -1.526 -32.505  1.00  0.00     0.034 A 
HETATM   13  C   UNL     1      -3.859  -2.093 -32.120  1.00  0.00     0.002 A 
ENDROOT
BRANCH  11  14
HETATM   14  C   UNL     1      -4.934   5.018 -33.494  1.00  0.00     0.257 C 
HETATM   15  N   UNL     1      -3.653   4.765 -33.946  1.00  0.00    -0.356 N 
HETATM   16  H   UNL     1      -3.385   3.795 -34.061  1.00  0.00     0.162 HD
HETATM   17  O   UNL     1      -5.413   6.144 -33.422  1.00  0.00    -0.267 OA
BRANCH  15  18
HETATM   18  C   UNL     1      -2.977   5.754 -34.765  1.00  0.00     0.127 C 
BRANCH  18  19
HETATM   19  C   UNL     1      -1.554   6.060 -34.235  1.00  0.00     0.053 C 
BRANCH  19  20
HETATM   20  C   UNL     1      -1.365   6.610 -32.829  1.00  0.00    -0.082 C 
HETATM   21  C   UNL     1      -2.205   7.837 -32.524  1.00  0.00     0.034 C 
HETATM   22  C   UNL     1      -1.777   8.591 -31.262  1.00  0.00     0.005 C 
HETATM   23  C   UNL     1      -1.506   7.630 -30.114  1.00  0.00     0.004 C 
HETATM   24  C   UNL     1      -0.423   6.622 -30.491  1.00  0.00     0.027 C 
HETATM   25  C   UNL     1      -0.565   6.080 -31.886  1.00  0.00    -0.024 C 
ENDBRANCH  19  20
ENDBRANCH  18  19
ENDBRANCH  15  18
ENDBRANCH  11  14
BRANCH  10  26
HETATM   26  N   UNL     1      -7.914   4.802 -33.992  1.00  0.00    -0.383 N 
HETATM   27  H   UNL     1      -8.248   4.885 -34.950  1.00  0.00     0.157 HD
HETATM   28  H   UNL     1      -7.808   5.710 -33.530  1.00  0.00     0.157 HD
ENDBRANCH  10  26
BRANCH   9  29
HETATM   29  N   UNL     1      -8.670   1.987 -34.187  1.00  0.00    -0.176 NA
HETATM   30  C   UNL     1      -9.541   1.603 -33.311  1.00  0.00     0.150 C 
BRANCH  30  31
HETATM   31  C   UNL     1     -10.960   1.430 -33.680  1.00  0.00    -0.014 A 
HETATM   32  C   UNL     1     -11.660   0.305 -33.230  1.00  0.00     0.049 A 
HETATM   33  C   UNL     1     -12.938   0.064 -33.719  1.00  0.00     0.066 A 
HETATM   34  C   UNL     1     -13.528   0.933 -34.629  1.00  0.00     0.036 A 
HETATM   35  C   UNL     1     -12.832   2.063 -35.063  1.00  0.00     0.004 A 
HETATM   36  C   UNL     1     -11.540   2.310 -34.595  1.00  0.00     0.013 A 
BRANCH  33  37
HETATM   37  O   UNL     1     -13.641  -1.044 -33.348  1.00  0.00    -0.361 OA
HETATM   38  H   UNL     1     -13.956  -0.923 -32.436  1.00  0.00     0.217 HD
ENDBRANCH  33  37
ENDBRANCH  30  31
ENDBRANCH   9  29
TORSDOF 8
ENDMDL
