MODEL 1
REMARK VINA RESULT:      -7.8      0.000      0.000
REMARK  3 active torsions:
REMARK  status: ('A' for Active; 'I' for Inactive)
REMARK    1  A    between atoms: C_2  and  C_3 
REMARK    2  A    between atoms: C_7  and  N_8 
REMARK       I    between atoms: N_8  and  C_9 
REMARK    3  A    between atoms: C_9  and  C_10 
ROOT
HETATM    1  N   UNL     1      -4.156   2.442 -31.529  1.00  0.00    -0.311 N 
HETATM    2  C   UNL     1      -3.817   1.150 -31.160  1.00  0.00     0.234 C 
HETATM    3  O   UNL     1      -2.656   0.741 -31.088  1.00  0.00    -0.272 OA
HETATM    4  H   UNL     1      -5.131   2.723 -31.567  1.00  0.00     0.170 HD
ENDROOT
BRANCH   2   5
HETATM    5  C   UNL     1      -4.979   0.244 -30.786  1.00  0.00     0.138 C 
HETATM    6  C   UNL     1      -5.676  -0.390 -31.935  1.00  0.00    -0.008 A 
HETATM    7  C   UNL     1      -6.910   0.217 -32.114  1.00  0.00     0.076 A 
HETATM    8  C   UNL     1      -5.245  -1.390 -32.792  1.00  0.00     0.030 A 
HETATM    9  C   UNL     1      -7.756  -0.132 -33.146  1.00  0.00     0.039 A 
HETATM   10  O   UNL     1      -7.168   1.214 -31.212  1.00  0.00    -0.349 OA
HETATM   11  C   UNL     1      -7.342  -1.143 -34.016  1.00  0.00     0.022 A 
HETATM   12  C   UNL     1      -6.095  -1.764 -33.837  1.00  0.00     0.011 A 
HETATM   13 BR   UNL     1      -5.550  -3.119 -35.038  1.00  0.00    -0.051 Br
HETATM   14  C   UNL     1      -6.141   1.052 -30.199  1.00  0.00     0.194 C 
ENDBRANCH   2   5
BRANCH   1  15
HETATM   15  C   UNL     1      -3.206   3.369 -31.905  1.00  0.00     0.126 A 
HETATM   16  N   UNL     1      -2.201   3.829 -31.093  1.00  0.00    -0.262 N 
HETATM   17  N   UNL     1      -1.396   4.726 -31.690  1.00  0.00    -0.178 NA
HETATM   18  H   UNL     1      -2.028   3.556 -30.129  1.00  0.00     0.191 HD
HETATM   19  C   UNL     1      -1.898   4.836 -32.926  1.00  0.00     0.058 A 
HETATM   20  C   UNL     1      -3.037   4.013 -33.106  1.00  0.00     0.079 A 
BRANCH  19  21
HETATM   21  C   UNL     1      -1.256   5.742 -33.922  1.00  0.00     0.056 C 
HETATM   22  C   UNL     1      -1.558   7.208 -33.647  1.00  0.00     0.011 C 
ENDBRANCH  19  21
ENDBRANCH   1  15
TORSDOF 3
ENDMDL
MODEL 2
REMARK VINA RESULT:      -7.8      4.772      7.689
REMARK  3 active torsions:
REMARK  status: ('A' for Active; 'I' for Inactive)
REMARK    1  A    between atoms: C_2  and  C_3 
REMARK    2  A    between atoms: C_7  and  N_8 
REMARK       I    between atoms: N_8  and  C_9 
REMARK    3  A    between atoms: C_9  and  C_10 
ROOT
HETATM    1  N   UNL     1      -9.949   1.556 -34.757  1.00  0.00    -0.311 N 
HETATM    2  C   UNL     1      -8.916   0.904 -34.106  1.00  0.00     0.234 C 
HETATM    3  O   UNL     1      -9.041   0.338 -33.017  1.00  0.00    -0.272 OA
HETATM    4  H   UNL     1      -9.787   2.002 -35.655  1.00  0.00     0.170 HD
ENDROOT
BRANCH   2   5
HETATM    5  C   UNL     1      -7.588   0.870 -34.845  1.00  0.00     0.138 C 
HETATM    6  C   UNL     1      -6.768  -0.348 -34.608  1.00  0.00    -0.008 A 
HETATM    7  C   UNL     1      -5.693  -0.024 -33.794  1.00  0.00     0.076 A 
HETATM    8  C   UNL     1      -6.973  -1.651 -35.029  1.00  0.00     0.030 A 
HETATM    9  C   UNL     1      -4.789  -0.972 -33.362  1.00  0.00     0.039 A 
HETATM   10  O   UNL     1      -5.656   1.295 -33.430  1.00  0.00    -0.349 OA
HETATM   11  C   UNL     1      -4.975  -2.291 -33.783  1.00  0.00     0.022 A 
HETATM   12  C   UNL     1      -6.061  -2.623 -34.609  1.00  0.00     0.011 A 
HETATM   13 BR   UNL     1      -6.300  -4.419 -35.152  1.00  0.00    -0.051 Br
HETATM   14  C   UNL     1      -6.627   1.931 -34.302  1.00  0.00     0.194 C 
ENDBRANCH   2   5
BRANCH   1  15
HETATM   15  C   UNL     1     -11.207   1.675 -34.200  1.00  0.00     0.126 A 
HETATM   16  N   UNL     1     -11.492   2.391 -33.066  1.00  0.00    -0.262 N 
HETATM   17  N   UNL     1     -12.792   2.361 -32.724  1.00  0.00    -0.178 NA
HETATM   18  H   UNL     1     -10.832   2.915 -32.497  1.00  0.00     0.191 HD
HETATM   19  C   UNL     1     -13.357   1.608 -33.676  1.00  0.00     0.058 A 
HETATM   20  C   UNL     1     -12.404   1.148 -34.617  1.00  0.00     0.079 A 
BRANCH  19  21
HETATM   21  C   UNL     1     -14.826   1.349 -33.659  1.00  0.00     0.056 C 
HETATM   22  C   UNL     1     -15.505   1.954 -32.438  1.00  0.00     0.011 C 
ENDBRANCH  19  21
ENDBRANCH   1  15
TORSDOF 3
ENDMDL
MODEL 3
REMARK VINA RESULT:      -7.0      6.021      8.251
REMARK  3 active torsions:
REMARK  status: ('A' for Active; 'I' for Inactive)
REMARK    1  A    between atoms: C_2  and  C_3 
REMARK    2  A    between atoms: C_7  and  N_8 
REMARK       I    between atoms: N_8  and  C_9 
REMARK    3  A    between atoms: C_9  and  C_10 
ROOT
HETATM    1  N   UNL     1      -9.234   1.271 -34.634  1.00  0.00    -0.311 N 
HETATM    2  C   UNL     1     -10.472   1.224 -34.014  1.00  0.00     0.234 C 
HETATM    3  O   UNL     1     -10.737   0.477 -33.070  1.00  0.00    -0.272 OA
HETATM    4  H   UNL     1      -9.073   1.911 -35.406  1.00  0.00     0.170 HD
ENDROOT
BRANCH   2   5
HETATM    5  C   UNL     1     -11.508   2.207 -34.534  1.00  0.00     0.138 C 
HETATM    6  C   UNL     1     -12.514   2.648 -33.533  1.00  0.00    -0.008 A 
HETATM    7  C   UNL     1     -13.732   2.046 -33.812  1.00  0.00     0.076 A 
HETATM    8  C   UNL     1     -12.365   3.473 -32.430  1.00  0.00     0.030 A 
HETATM    9  C   UNL     1     -14.841   2.230 -33.012  1.00  0.00     0.039 A 
HETATM   10  O   UNL     1     -13.702   1.227 -34.908  1.00  0.00    -0.349 OA
HETATM   11  C   UNL     1     -14.712   3.064 -31.899  1.00  0.00     0.022 A 
HETATM   12  C   UNL     1     -13.482   3.678 -31.614  1.00  0.00     0.011 A 
HETATM   13 BR   UNL     1     -13.329   4.791 -30.093  1.00  0.00    -0.051 Br
HETATM   14  C   UNL     1     -12.439   1.540 -35.551  1.00  0.00     0.194 C 
ENDBRANCH   2   5
BRANCH   1  15
HETATM   15  C   UNL     1      -8.202   0.429 -34.273  1.00  0.00     0.126 A 
HETATM   16  N   UNL     1      -7.640   0.376 -33.023  1.00  0.00    -0.262 N 
HETATM   17  N   UNL     1      -6.652  -0.530 -32.915  1.00  0.00    -0.178 NA
HETATM   18  H   UNL     1      -7.900   0.938 -32.217  1.00  0.00     0.191 HD
HETATM   19  C   UNL     1      -6.587  -1.080 -34.134  1.00  0.00     0.058 A 
HETATM   20  C   UNL     1      -7.531  -0.506 -35.022  1.00  0.00     0.079 A 
BRANCH  19  21
HETATM   21  C   UNL     1      -5.605  -2.166 -34.420  1.00  0.00     0.056 C 
HETATM   22  C   UNL     1      -6.279  -3.444 -34.897  1.00  0.00     0.011 C 
ENDBRANCH  19  21
ENDBRANCH   1  15
TORSDOF 3
ENDMDL
MODEL 4
REMARK VINA RESULT:      -6.9      4.903      6.932
REMARK  3 active torsions:
REMARK  status: ('A' for Active; 'I' for Inactive)
REMARK    1  A    between atoms: C_2  and  C_3 
REMARK    2  A    between atoms: C_7  and  N_8 
REMARK       I    between atoms: N_8  and  C_9 
REMARK    3  A    between atoms: C_9  and  C_10 
ROOT
HETATM    1  N   UNL     1      -7.866   0.521 -33.271  1.00  0.00    -0.311 N 
HETATM    2  C   UNL     1      -7.752   1.845 -33.659  1.00  0.00     0.234 C 
HETATM    3  O   UNL     1      -6.855   2.271 -34.390  1.00  0.00    -0.272 OA
HETATM    4  H   UNL     1      -8.630   0.228 -32.670  1.00  0.00     0.170 HD
ENDROOT
BRANCH   2   5
HETATM    5  C   UNL     1      -8.853   2.773 -33.170  1.00  0.00     0.138 C 
HETATM    6  C   UNL     1     -10.207   2.482 -33.710  1.00  0.00    -0.008 A 
HETATM    7  C   UNL     1     -10.545   3.452 -34.642  1.00  0.00     0.076 A 
HETATM    8  C   UNL     1     -11.058   1.422 -33.446  1.00  0.00     0.030 A 
HETATM    9  C   UNL     1     -11.728   3.406 -35.350  1.00  0.00     0.039 A 
HETATM   10  O   UNL     1      -9.579   4.405 -34.820  1.00  0.00    -0.349 OA
HETATM   11  C   UNL     1     -12.604   2.348 -35.092  1.00  0.00     0.022 A 
HETATM   12  C   UNL     1     -12.267   1.366 -34.147  1.00  0.00     0.011 A 
HETATM   13 BR   UNL     1     -13.461  -0.064 -33.826  1.00  0.00    -0.051 Br
HETATM   14  C   UNL     1      -8.662   4.192 -33.716  1.00  0.00     0.194 C 
ENDBRANCH   2   5
BRANCH   1  15
HETATM   15  C   UNL     1      -6.934  -0.431 -33.632  1.00  0.00     0.126 A 
HETATM   16  N   UNL     1      -5.593  -0.350 -33.360  1.00  0.00    -0.262 N 
HETATM   17  N   UNL     1      -4.888  -1.404 -33.809  1.00  0.00    -0.178 NA
HETATM   18  H   UNL     1      -5.117   0.403 -32.870  1.00  0.00     0.191 HD
HETATM   19  C   UNL     1      -5.812  -2.188 -34.379  1.00  0.00     0.058 A 
HETATM   20  C   UNL     1      -7.106  -1.617 -34.303  1.00  0.00     0.079 A 
BRANCH  19  21
HETATM   21  C   UNL     1      -5.421  -3.491 -34.992  1.00  0.00     0.056 C 
HETATM   22  C   UNL     1      -6.609  -4.426 -35.166  1.00  0.00     0.011 C 
ENDBRANCH  19  21
ENDBRANCH   1  15
TORSDOF 3
ENDMDL
MODEL 5
REMARK VINA RESULT:      -6.7      4.004      7.128
REMARK  3 active torsions:
REMARK  status: ('A' for Active; 'I' for Inactive)
REMARK    1  A    between atoms: C_2  and  C_3 
REMARK    2  A    between atoms: C_7  and  N_8 
REMARK       I    between atoms: N_8  and  C_9 
REMARK    3  A    between atoms: C_9  and  C_10 
ROOT
HETATM    1  N   UNL     1      -8.769   1.407 -34.014  1.00  0.00    -0.311 N 
HETATM    2  C   UNL     1      -8.010   1.625 -32.876  1.00  0.00     0.234 C 
HETATM    3  O   UNL     1      -8.471   1.620 -31.732  1.00  0.00    -0.272 OA
HETATM    4  H   UNL     1      -8.332   1.420 -34.930  1.00  0.00     0.170 HD
ENDROOT
BRANCH   2   5
HETATM    5  C   UNL     1      -6.521   1.827 -33.106  1.00  0.00     0.138 C 
HETATM    6  C   UNL     1      -5.696   0.595 -32.997  1.00  0.00    -0.008 A 
HETATM    7  C   UNL     1      -4.971   0.633 -31.815  1.00  0.00     0.076 A 
HETATM    8  C   UNL     1      -5.622  -0.501 -33.841  1.00  0.00     0.030 A 
HETATM    9  C   UNL     1      -4.156  -0.409 -31.422  1.00  0.00     0.039 A 
HETATM   10  O   UNL     1      -5.187   1.762 -31.073  1.00  0.00    -0.349 OA
HETATM   11  C   UNL     1      -4.063  -1.519 -32.264  1.00  0.00     0.022 A 
HETATM   12  C   UNL     1      -4.793  -1.561 -33.463  1.00  0.00     0.011 A 
HETATM   13 BR   UNL     1      -4.662  -3.082 -34.578  1.00  0.00    -0.051 Br
HETATM   14  C   UNL     1      -5.894   2.651 -31.976  1.00  0.00     0.194 C 
ENDBRANCH   2   5
BRANCH   1  15
HETATM   15  C   UNL     1     -10.135   1.220 -33.957  1.00  0.00     0.126 A 
HETATM   16  N   UNL     1     -10.760   0.261 -33.202  1.00  0.00    -0.262 N 
HETATM   17  N   UNL     1     -12.101   0.281 -33.308  1.00  0.00    -0.178 NA
HETATM   18  H   UNL     1     -10.311  -0.425 -32.600  1.00  0.00     0.191 HD
HETATM   19  C   UNL     1     -12.340   1.293 -34.152  1.00  0.00     0.058 A 
HETATM   20  C   UNL     1     -11.141   1.905 -34.593  1.00  0.00     0.079 A 
BRANCH  19  21
HETATM   21  C   UNL     1     -13.741   1.654 -34.518  1.00  0.00     0.056 C 
HETATM   22  C   UNL     1     -14.730   0.550 -34.172  1.00  0.00     0.011 C 
ENDBRANCH  19  21
ENDBRANCH   1  15
TORSDOF 3
ENDMDL
MODEL 6
REMARK VINA RESULT:      -6.7      3.404      6.804
REMARK  3 active torsions:
REMARK  status: ('A' for Active; 'I' for Inactive)
REMARK    1  A    between atoms: C_2  and  C_3 
REMARK    2  A    between atoms: C_7  and  N_8 
REMARK       I    between atoms: N_8  and  C_9 
REMARK    3  A    between atoms: C_9  and  C_10 
ROOT
HETATM    1  N   UNL     1      -6.161   1.013 -33.810  1.00  0.00    -0.311 N 
HETATM    2  C   UNL     1      -6.079   1.540 -32.532  1.00  0.00     0.234 C 
HETATM    3  O   UNL     1      -5.817   0.871 -31.530  1.00  0.00    -0.272 OA
HETATM    4  H   UNL     1      -6.378   1.615 -34.598  1.00  0.00     0.170 HD
ENDROOT
BRANCH   2   5
HETATM    5  C   UNL     1      -6.283   3.043 -32.424  1.00  0.00     0.138 C 
HETATM    6  C   UNL     1      -5.034   3.849 -32.449  1.00  0.00    -0.008 A 
HETATM    7  C   UNL     1      -4.778   4.335 -31.176  1.00  0.00     0.076 A 
HETATM    8  C   UNL     1      -4.159   4.098 -33.494  1.00  0.00     0.030 A 
HETATM    9  C   UNL     1      -3.649   5.075 -30.887  1.00  0.00     0.039 A 
HETATM   10  O   UNL     1      -5.712   3.965 -30.247  1.00  0.00    -0.349 OA
HETATM   11  C   UNL     1      -2.759   5.342 -31.930  1.00  0.00     0.022 A 
HETATM   12  C   UNL     1      -3.016   4.855 -33.222  1.00  0.00     0.011 A 
HETATM   13 BR   UNL     1      -1.788   5.217 -34.613  1.00  0.00    -0.051 Br
HETATM   14  C   UNL     1      -6.806   3.431 -31.037  1.00  0.00     0.194 C 
ENDBRANCH   2   5
BRANCH   1  15
HETATM   15  C   UNL     1      -6.009  -0.337 -34.056  1.00  0.00     0.126 A 
HETATM   16  N   UNL     1      -4.850  -1.040 -33.853  1.00  0.00    -0.262 N 
HETATM   17  N   UNL     1      -4.952  -2.346 -34.161  1.00  0.00    -0.178 NA
HETATM   18  H   UNL     1      -3.970  -0.671 -33.504  1.00  0.00     0.191 HD
HETATM   19  C   UNL     1      -6.221  -2.481 -34.566  1.00  0.00     0.058 A 
HETATM   20  C   UNL     1      -6.920  -1.250 -34.528  1.00  0.00     0.079 A 
BRANCH  19  21
HETATM   21  C   UNL     1      -6.740  -3.816 -34.985  1.00  0.00     0.056 C 
HETATM   22  C   UNL     1      -5.675  -4.900 -34.904  1.00  0.00     0.011 C 
ENDBRANCH  19  21
ENDBRANCH   1  15
TORSDOF 3
ENDMDL
MODEL 7
REMARK VINA RESULT:      -6.6     15.785     17.236
REMARK  3 active torsions:
REMARK  status: ('A' for Active; 'I' for Inactive)
REMARK    1  A    between atoms: C_2  and  C_3 
REMARK    2  A    between atoms: C_7  and  N_8 
REMARK       I    between atoms: N_8  and  C_9 
REMARK    3  A    between atoms: C_9  and  C_10 
ROOT
HETATM    1  N   UNL     1      -5.795 -13.023 -37.601  1.00  0.00    -0.311 N 
HETATM    2  C   UNL     1      -4.498 -12.546 -37.696  1.00  0.00     0.234 C 
HETATM    3  O   UNL     1      -4.087 -11.858 -38.634  1.00  0.00    -0.272 OA
HETATM    4  H   UNL     1      -6.076 -13.583 -36.803  1.00  0.00     0.170 HD
ENDROOT
BRANCH   2   5
HETATM    5  C   UNL     1      -3.586 -12.878 -36.526  1.00  0.00     0.138 C 
HETATM    6  C   UNL     1      -2.493 -13.837 -36.834  1.00  0.00    -0.008 A 
HETATM    7  C   UNL     1      -2.785 -15.064 -36.257  1.00  0.00     0.076 A 
HETATM    8  C   UNL     1      -1.353 -13.666 -37.602  1.00  0.00     0.030 A 
HETATM    9  C   UNL     1      -1.969 -16.165 -36.423  1.00  0.00     0.039 A 
HETATM   10  O   UNL     1      -3.967 -15.080 -35.567  1.00  0.00    -0.349 OA
HETATM   11  C   UNL     1      -0.811 -16.010 -37.189  1.00  0.00     0.022 A 
HETATM   12  C   UNL     1      -0.510 -14.768 -37.773  1.00  0.00     0.011 A 
HETATM   13 BR   UNL     1       1.055 -14.589 -38.818  1.00  0.00    -0.051 Br
HETATM   14  C   UNL     1      -4.332 -13.680 -35.455  1.00  0.00     0.194 C 
ENDBRANCH   2   5
BRANCH   1  15
HETATM   15  C   UNL     1      -6.728 -12.808 -38.595  1.00  0.00     0.126 A 
HETATM   16  N   UNL     1      -6.474 -12.908 -39.938  1.00  0.00    -0.262 N 
HETATM   17  N   UNL     1      -7.547 -12.657 -40.710  1.00  0.00    -0.178 NA
HETATM   18  H   UNL     1      -5.585 -13.145 -40.371  1.00  0.00     0.191 HD
HETATM   19  C   UNL     1      -8.521 -12.397 -39.829  1.00  0.00     0.058 A 
HETATM   20  C   UNL     1      -8.055 -12.470 -38.493  1.00  0.00     0.079 A 
BRANCH  19  21
HETATM   21  C   UNL     1      -9.900 -12.083 -40.302  1.00  0.00     0.056 C 
HETATM   22  C   UNL     1     -10.838 -13.276 -40.178  1.00  0.00     0.011 C 
ENDBRANCH  19  21
ENDBRANCH   1  15
TORSDOF 3
ENDMDL
MODEL 8
REMARK VINA RESULT:      -6.5      3.720      7.550
REMARK  3 active torsions:
REMARK  status: ('A' for Active; 'I' for Inactive)
REMARK    1  A    between atoms: C_2  and  C_3 
REMARK    2  A    between atoms: C_7  and  N_8 
REMARK       I    between atoms: N_8  and  C_9 
REMARK    3  A    between atoms: C_9  and  C_10 
ROOT
HETATM    1  N   UNL     1      -4.572   2.805 -32.801  1.00  0.00    -0.311 N 
HETATM    2  C   UNL     1      -4.280   4.140 -33.024  1.00  0.00     0.234 C 
HETATM    3  O   UNL     1      -5.014   5.070 -32.679  1.00  0.00    -0.272 OA
HETATM    4  H   UNL     1      -3.927   2.083 -33.105  1.00  0.00     0.170 HD
ENDROOT
BRANCH   2   5
HETATM    5  C   UNL     1      -2.942   4.421 -33.689  1.00  0.00     0.138 C 
HETATM    6  C   UNL     1      -1.977   5.190 -32.860  1.00  0.00    -0.008 A 
HETATM    7  C   UNL     1      -1.882   6.483 -33.350  1.00  0.00     0.076 A 
HETATM    8  C   UNL     1      -1.272   4.803 -31.731  1.00  0.00     0.030 A 
HETATM    9  C   UNL     1      -1.097   7.441 -32.742  1.00  0.00     0.039 A 
HETATM   10  O   UNL     1      -2.673   6.717 -34.442  1.00  0.00    -0.349 OA
HETATM   11  C   UNL     1      -0.374   7.068 -31.606  1.00  0.00     0.022 A 
HETATM   12  C   UNL     1      -0.465   5.759 -31.109  1.00  0.00     0.011 A 
HETATM   13 BR   UNL     1       0.513   5.283 -29.561  1.00  0.00    -0.051 Br
HETATM   14  C   UNL     1      -3.102   5.395 -34.860  1.00  0.00     0.194 C 
ENDBRANCH   2   5
BRANCH   1  15
HETATM   15  C   UNL     1      -5.756   2.402 -32.216  1.00  0.00     0.126 A 
HETATM   16  N   UNL     1      -6.175   2.778 -30.966  1.00  0.00    -0.262 N 
HETATM   17  N   UNL     1      -7.367   2.260 -30.619  1.00  0.00    -0.178 NA
HETATM   18  H   UNL     1      -5.681   3.387 -30.318  1.00  0.00     0.191 HD
HETATM   19  C   UNL     1      -7.724   1.537 -31.687  1.00  0.00     0.058 A 
HETATM   20  C   UNL     1      -6.744   1.587 -32.709  1.00  0.00     0.079 A 
BRANCH  19  21
HETATM   21  C   UNL     1      -9.024   0.805 -31.701  1.00  0.00     0.056 C 
HETATM   22  C   UNL     1      -9.229   0.016 -32.986  1.00  0.00     0.011 C 
ENDBRANCH  19  21
ENDBRANCH   1  15
TORSDOF 3
ENDMDL
MODEL 9
REMARK VINA RESULT:      -6.5      4.747      6.264
REMARK  3 active torsions:
REMARK  status: ('A' for Active; 'I' for Inactive)
REMARK    1  A    between atoms: C_2  and  C_3 
REMARK    2  A    between atoms: C_7  and  N_8 
REMARK       I    between atoms: N_8  and  C_9 
REMARK    3  A    between atoms: C_9  and  C_10 
ROOT
HETATM    1  N   UNL     1      -1.115   5.951 -30.049  1.00  0.00    -0.311 N 
HETATM    2  C   UNL     1      -2.293   6.520 -30.504  1.00  0.00     0.234 C 
HETATM    3  O   UNL     1      -2.781   7.552 -30.038  1.00  0.00    -0.272 OA
HETATM    4  H   UNL     1      -0.761   5.100 -30.476  1.00  0.00     0.170 HD
ENDROOT
BRANCH   2   5
HETATM    5  C   UNL     1      -2.954   5.819 -31.680  1.00  0.00     0.138 C 
HETATM    6  C   UNL     1      -3.898   4.731 -31.314  1.00  0.00    -0.008 A 
HETATM    7  C   UNL     1      -3.318   3.505 -31.601  1.00  0.00     0.076 A 
HETATM    8  C   UNL     1      -5.151   4.804 -30.725  1.00  0.00     0.030 A 
HETATM    9  C   UNL     1      -3.947   2.311 -31.313  1.00  0.00     0.039 A 
HETATM   10  O   UNL     1      -2.063   3.602 -32.138  1.00  0.00    -0.349 OA
HETATM   11  C   UNL     1      -5.213   2.365 -30.726  1.00  0.00     0.022 A 
HETATM   12  C   UNL     1      -5.806   3.604 -30.436  1.00  0.00     0.011 A 
HETATM   13 BR   UNL     1      -7.515   3.651 -29.627  1.00  0.00    -0.051 Br
HETATM   14  C   UNL     1      -1.932   5.006 -32.482  1.00  0.00     0.194 C 
ENDBRANCH   2   5
BRANCH   1  15
HETATM   15  C   UNL     1      -0.414   6.474 -28.982  1.00  0.00     0.126 A 
HETATM   16  N   UNL     1      -0.464   5.985 -27.702  1.00  0.00    -0.262 N 
HETATM   17  N   UNL     1       0.313   6.661 -26.837  1.00  0.00    -0.178 NA
HETATM   18  H   UNL     1      -1.011   5.192 -27.376  1.00  0.00     0.191 HD
HETATM   19  C   UNL     1       0.884   7.608 -27.592  1.00  0.00     0.058 A 
HETATM   20  C   UNL     1       0.453   7.538 -28.939  1.00  0.00     0.079 A 
BRANCH  19  21
HETATM   21  C   UNL     1       1.850   8.572 -26.988  1.00  0.00     0.056 C 
HETATM   22  C   UNL     1       2.003   8.371 -25.488  1.00  0.00     0.011 C 
ENDBRANCH  19  21
ENDBRANCH   1  15
TORSDOF 3
ENDMDL
MODEL 10
REMARK VINA RESULT:      -6.4      3.898      5.381
REMARK  3 active torsions:
REMARK  status: ('A' for Active; 'I' for Inactive)
REMARK    1  A    between atoms: C_2  and  C_3 
REMARK    2  A    between atoms: C_7  and  N_8 
REMARK       I    between atoms: N_8  and  C_9 
REMARK    3  A    between atoms: C_9  and  C_10 
ROOT
HETATM    1  N   UNL     1      -6.335   0.636 -33.146  1.00  0.00    -0.311 N 
HETATM    2  C   UNL     1      -5.313   0.144 -32.350  1.00  0.00     0.234 C 
HETATM    3  O   UNL     1      -5.347   0.138 -31.117  1.00  0.00    -0.272 OA
HETATM    4  H   UNL     1      -6.252   0.611 -34.157  1.00  0.00     0.170 HD
ENDROOT
BRANCH   2   5
HETATM    5  C   UNL     1      -4.131  -0.458 -33.091  1.00  0.00     0.138 C 
HETATM    6  C   UNL     1      -4.270  -1.899 -33.432  1.00  0.00    -0.008 A 
HETATM    7  C   UNL     1      -3.442  -2.645 -32.606  1.00  0.00     0.076 A 
HETATM    8  C   UNL     1      -5.095  -2.516 -34.358  1.00  0.00     0.030 A 
HETATM    9  C   UNL     1      -3.405  -4.023 -32.660  1.00  0.00     0.039 A 
HETATM   10  O   UNL     1      -2.726  -1.890 -31.718  1.00  0.00    -0.349 OA
HETATM   11  C   UNL     1      -4.225  -4.663 -33.593  1.00  0.00     0.022 A 
HETATM   12  C   UNL     1      -5.062  -3.911 -34.432  1.00  0.00     0.011 A 
HETATM   13 BR   UNL     1      -6.173  -4.802 -35.676  1.00  0.00    -0.051 Br
HETATM   14  C   UNL     1      -2.893  -0.529 -32.192  1.00  0.00     0.194 C 
ENDBRANCH   2   5
BRANCH   1  15
HETATM   15  C   UNL     1      -7.464   1.221 -32.609  1.00  0.00     0.126 A 
HETATM   16  N   UNL     1      -7.788   1.213 -31.277  1.00  0.00    -0.262 N 
HETATM   17  N   UNL     1      -8.936   1.855 -30.998  1.00  0.00    -0.178 NA
HETATM   18  H   UNL     1      -7.253   0.784 -30.525  1.00  0.00     0.191 HD
HETATM   19  C   UNL     1      -9.355   2.295 -32.191  1.00  0.00     0.058 A 
HETATM   20  C   UNL     1      -8.472   1.915 -33.232  1.00  0.00     0.079 A 
BRANCH  19  21
HETATM   21  C   UNL     1     -10.614   3.087 -32.302  1.00  0.00     0.056 C 
HETATM   22  C   UNL     1     -10.346   4.568 -32.528  1.00  0.00     0.011 C 
ENDBRANCH  19  21
ENDBRANCH   1  15
TORSDOF 3
ENDMDL
