MODEL 1
REMARK VINA RESULT:      -9.3      0.000      0.000
REMARK  6 active torsions:
REMARK  status: ('A' for Active; 'I' for Inactive)
REMARK    1  A    between atoms: C_2  and  C_3 
REMARK    2  A    between atoms: C_8  and  N_9 
REMARK       I    between atoms: N_9  and  C_10 
REMARK       I    between atoms: C_10  and  N_11 
REMARK    3  A    between atoms: N_11  and  N_12 
REMARK       I    between atoms: N_12  and  C_13 
REMARK    4  A    between atoms: C_13  and  C_14 
REMARK    5  A    between atoms: C_14  and  N_15 
REMARK       I    between atoms: N_15  and  C_16 
REMARK       I    between atoms: C_16  and  N_17 
REMARK    6  A    between atoms: N_17  and  C_18 
ROOT
HETATM    1  N   UNL     1      -5.147   0.228 -33.408  1.00  0.00    -0.306 N 
HETATM    2  C   UNL     1      -5.657   0.789 -32.267  1.00  0.00     0.339 C 
HETATM    3  N   UNL     1      -5.441   2.136 -32.140  1.00  0.00    -0.249 N 
HETATM    4  O   UNL     1      -6.278   0.202 -31.385  1.00  0.00    -0.245 OA
HETATM    5  H   UNL     1      -4.478   0.802 -33.905  1.00  0.00     0.171 HD
HETATM    6  H   UNL     1      -5.707   2.568 -31.254  1.00  0.00     0.192 HD
ENDROOT
BRANCH   3   7
HETATM    7  N   UNL     1      -4.700   2.932 -33.029  1.00  0.00    -0.265 N 
HETATM    8  C   UNL     1      -3.416   3.242 -32.596  1.00  0.00     0.253 C 
HETATM    9  O   UNL     1      -2.913   2.708 -31.606  1.00  0.00    -0.270 OA
HETATM   10  H   UNL     1      -5.203   3.686 -33.511  1.00  0.00     0.190 HD
BRANCH   8  11
HETATM   11  C   UNL     1      -2.753   4.432 -33.292  1.00  0.00     0.228 C 
BRANCH  11  12
HETATM   12  N   UNL     1      -1.611   4.987 -32.599  1.00  0.00    -0.334 N 
HETATM   13  C   UNL     1      -1.052   6.182 -32.917  1.00  0.00     0.322 C 
HETATM   14  N   UNL     1      -0.147   6.710 -32.053  1.00  0.00    -0.287 N 
HETATM   15  O   UNL     1      -1.327   6.758 -33.971  1.00  0.00    -0.247 OA
HETATM   16  H   UNL     1       0.268   7.591 -32.316  1.00  0.00     0.172 HD
HETATM   17  H   UNL     1      -1.372   4.602 -31.685  1.00  0.00     0.164 HD
BRANCH  14  18
HETATM   18  C   UNL     1       0.237   6.153 -30.867  1.00  0.00     0.174 A 
HETATM   19  S   UNL     1      -0.011   7.130 -29.493  1.00  0.00    -0.062 SA
HETATM   20  C   UNL     1       0.662   5.887 -28.519  1.00  0.00     0.072 A 
HETATM   21  C   UNL     1       1.019   4.818 -29.314  1.00  0.00     0.126 A 
HETATM   22  N   UNL     1       0.767   4.970 -30.665  1.00  0.00    -0.236 NA
ENDBRANCH  14  18
ENDBRANCH  11  12
ENDBRANCH   8  11
ENDBRANCH   3   7
BRANCH   1  23
HETATM   23  C   UNL     1      -5.310  -1.103 -33.862  1.00  0.00     0.059 A 
HETATM   24  C   UNL     1      -4.434  -2.137 -33.505  1.00  0.00     0.047 A 
HETATM   25  C   UNL     1      -4.629  -3.455 -33.957  1.00  0.00     0.050 A 
HETATM   26  C   UNL     1      -5.720  -3.734 -34.790  1.00  0.00     0.018 A 
HETATM   27  C   UNL     1      -6.608  -2.717 -35.150  1.00  0.00     0.027 A 
HETATM   28  C   UNL     1      -6.407  -1.413 -34.684  1.00  0.00     0.060 A 
HETATM   29 CL   UNL     1      -7.544  -0.195 -35.159  1.00  0.00    -0.082 Cl
BRANCH  25  30
HETATM   30  C   UNL     1      -3.652  -4.535 -33.553  1.00  0.00     0.417 C 
HETATM   31  F   UNL     1      -2.876  -4.186 -32.488  1.00  0.00    -0.166 F 
HETATM   32  F   UNL     1      -4.271  -5.693 -33.197  1.00  0.00    -0.166 F 
HETATM   33  F   UNL     1      -2.784  -4.859 -34.550  1.00  0.00    -0.166 F 
ENDBRANCH  25  30
ENDBRANCH   1  23
TORSDOF 6
ENDMDL
MODEL 2
REMARK VINA RESULT:      -9.0      2.542      3.097
REMARK  6 active torsions:
REMARK  status: ('A' for Active; 'I' for Inactive)
REMARK    1  A    between atoms: C_2  and  C_3 
REMARK    2  A    between atoms: C_8  and  N_9 
REMARK       I    between atoms: N_9  and  C_10 
REMARK       I    between atoms: C_10  and  N_11 
REMARK    3  A    between atoms: N_11  and  N_12 
REMARK       I    between atoms: N_12  and  C_13 
REMARK    4  A    between atoms: C_13  and  C_14 
REMARK    5  A    between atoms: C_14  and  N_15 
REMARK       I    between atoms: N_15  and  C_16 
REMARK       I    between atoms: C_16  and  N_17 
REMARK    6  A    between atoms: N_17  and  C_18 
ROOT
HETATM    1  N   UNL     1      -4.872   0.999 -32.844  1.00  0.00    -0.306 N 
HETATM    2  C   UNL     1      -6.034   1.597 -32.431  1.00  0.00     0.339 C 
HETATM    3  N   UNL     1      -6.051   2.963 -32.544  1.00  0.00    -0.249 N 
HETATM    4  O   UNL     1      -7.027   1.025 -31.992  1.00  0.00    -0.245 OA
HETATM    5  H   UNL     1      -4.086   1.626 -32.961  1.00  0.00     0.171 HD
HETATM    6  H   UNL     1      -6.853   3.451 -32.144  1.00  0.00     0.192 HD
ENDROOT
BRANCH   3   7
HETATM    7  N   UNL     1      -4.976   3.762 -32.970  1.00  0.00    -0.265 N 
HETATM    8  C   UNL     1      -5.287   4.654 -33.989  1.00  0.00     0.253 C 
HETATM    9  O   UNL     1      -6.448   4.853 -34.353  1.00  0.00    -0.270 OA
HETATM   10  H   UNL     1      -4.057   3.311 -33.035  1.00  0.00     0.190 HD
BRANCH   8  11
HETATM   11  C   UNL     1      -4.094   5.208 -34.768  1.00  0.00     0.228 C 
BRANCH  11  12
HETATM   12  N   UNL     1      -3.062   5.816 -33.955  1.00  0.00    -0.334 N 
HETATM   13  C   UNL     1      -1.767   5.922 -34.349  1.00  0.00     0.322 C 
HETATM   14  N   UNL     1      -0.945   6.718 -33.618  1.00  0.00    -0.287 N 
HETATM   15  O   UNL     1      -1.337   5.292 -35.316  1.00  0.00    -0.247 OA
HETATM   16  H   UNL     1       0.017   6.770 -33.918  1.00  0.00     0.172 HD
HETATM   17  H   UNL     1      -3.351   6.409 -33.179  1.00  0.00     0.164 HD
BRANCH  14  18
HETATM   18  C   UNL     1      -1.313   7.450 -32.526  1.00  0.00     0.174 A 
HETATM   19  S   UNL     1      -0.862   6.786 -31.023  1.00  0.00    -0.062 SA
HETATM   20  C   UNL     1      -1.611   8.118 -30.239  1.00  0.00     0.072 A 
HETATM   21  C   UNL     1      -2.143   8.971 -31.183  1.00  0.00     0.126 A 
HETATM   22  N   UNL     1      -1.965   8.588 -32.500  1.00  0.00    -0.236 NA
ENDBRANCH  14  18
ENDBRANCH  11  12
ENDBRANCH   8  11
ENDBRANCH   3   7
BRANCH   1  23
HETATM   23  C   UNL     1      -4.607  -0.387 -32.951  1.00  0.00     0.059 A 
HETATM   24  C   UNL     1      -5.286  -1.219 -33.851  1.00  0.00     0.047 A 
HETATM   25  C   UNL     1      -4.992  -2.592 -33.950  1.00  0.00     0.050 A 
HETATM   26  C   UNL     1      -4.002  -3.136 -33.122  1.00  0.00     0.018 A 
HETATM   27  C   UNL     1      -3.309  -2.320 -32.225  1.00  0.00     0.027 A 
HETATM   28  C   UNL     1      -3.606  -0.955 -32.145  1.00  0.00     0.060 A 
HETATM   29 CL   UNL     1      -2.710   0.009 -31.018  1.00  0.00    -0.082 Cl
BRANCH  25  30
HETATM   30  C   UNL     1      -5.758  -3.452 -34.928  1.00  0.00     0.417 C 
HETATM   31  F   UNL     1      -5.683  -4.783 -34.646  1.00  0.00    -0.166 F 
HETATM   32  F   UNL     1      -7.085  -3.154 -34.958  1.00  0.00    -0.166 F 
HETATM   33  F   UNL     1      -5.311  -3.321 -36.207  1.00  0.00    -0.166 F 
ENDBRANCH  25  30
ENDBRANCH   1  23
TORSDOF 6
ENDMDL
MODEL 3
REMARK VINA RESULT:      -8.9      1.834      2.286
REMARK  6 active torsions:
REMARK  status: ('A' for Active; 'I' for Inactive)
REMARK    1  A    between atoms: C_2  and  C_3 
REMARK    2  A    between atoms: C_8  and  N_9 
REMARK       I    between atoms: N_9  and  C_10 
REMARK       I    between atoms: C_10  and  N_11 
REMARK    3  A    between atoms: N_11  and  N_12 
REMARK       I    between atoms: N_12  and  C_13 
REMARK    4  A    between atoms: C_13  and  C_14 
REMARK    5  A    between atoms: C_14  and  N_15 
REMARK       I    between atoms: N_15  and  C_16 
REMARK       I    between atoms: C_16  and  N_17 
REMARK    6  A    between atoms: N_17  and  C_18 
ROOT
HETATM    1  N   UNL     1      -5.431   0.179 -32.838  1.00  0.00    -0.306 N 
HETATM    2  C   UNL     1      -5.971   0.470 -31.613  1.00  0.00     0.339 C 
HETATM    3  N   UNL     1      -5.913   1.793 -31.257  1.00  0.00    -0.249 N 
HETATM    4  O   UNL     1      -6.491  -0.330 -30.841  1.00  0.00    -0.245 OA
HETATM    5  H   UNL     1      -4.851   0.907 -33.234  1.00  0.00     0.171 HD
HETATM    6  H   UNL     1      -6.203   2.031 -30.308  1.00  0.00     0.192 HD
ENDROOT
BRANCH   3   7
HETATM    7  N   UNL     1      -5.299   2.813 -32.003  1.00  0.00    -0.265 N 
HETATM    8  C   UNL     1      -6.162   3.813 -32.436  1.00  0.00     0.253 C 
HETATM    9  O   UNL     1      -7.327   3.888 -32.039  1.00  0.00    -0.270 OA
HETATM   10  H   UNL     1      -4.572   2.532 -32.669  1.00  0.00     0.190 HD
BRANCH   8  11
HETATM   11  C   UNL     1      -5.647   4.677 -33.586  1.00  0.00     0.228 C 
BRANCH  11  12
HETATM   12  N   UNL     1      -4.216   4.893 -33.597  1.00  0.00    -0.334 N 
HETATM   13  C   UNL     1      -3.527   5.280 -34.700  1.00  0.00     0.322 C 
HETATM   14  N   UNL     1      -2.241   5.682 -34.536  1.00  0.00    -0.287 N 
HETATM   15  O   UNL     1      -4.035   5.236 -35.822  1.00  0.00    -0.247 OA
HETATM   16  H   UNL     1      -1.741   5.950 -35.371  1.00  0.00     0.172 HD
HETATM   17  H   UNL     1      -3.744   5.010 -32.701  1.00  0.00     0.164 HD
BRANCH  14  18
HETATM   18  C   UNL     1      -1.579   5.759 -33.345  1.00  0.00     0.174 A 
HETATM   19  S   UNL     1      -1.200   7.337 -32.826  1.00  0.00    -0.062 SA
HETATM   20  C   UNL     1      -0.448   6.672 -31.434  1.00  0.00     0.072 A 
HETATM   21  C   UNL     1      -0.547   5.297 -31.466  1.00  0.00     0.126 A 
HETATM   22  N   UNL     1      -1.205   4.773 -32.565  1.00  0.00    -0.236 NA
ENDBRANCH  14  18
ENDBRANCH  11  12
ENDBRANCH   8  11
ENDBRANCH   3   7
BRANCH   1  23
HETATM   23  C   UNL     1      -5.449  -1.065 -33.514  1.00  0.00     0.059 A 
HETATM   24  C   UNL     1      -4.560  -2.105 -33.207  1.00  0.00     0.047 A 
HETATM   25  C   UNL     1      -4.609  -3.338 -33.882  1.00  0.00     0.050 A 
HETATM   26  C   UNL     1      -5.564  -3.523 -34.890  1.00  0.00     0.018 A 
HETATM   27  C   UNL     1      -6.463  -2.501 -35.204  1.00  0.00     0.027 A 
HETATM   28  C   UNL     1      -6.409  -1.284 -34.516  1.00  0.00     0.060 A 
HETATM   29 CL   UNL     1      -7.553  -0.056 -34.944  1.00  0.00    -0.082 Cl
BRANCH  25  30
HETATM   30  C   UNL     1      -3.623  -4.426 -33.524  1.00  0.00     0.417 C 
HETATM   31  F   UNL     1      -4.223  -5.599 -33.173  1.00  0.00    -0.166 F 
HETATM   32  F   UNL     1      -2.785  -4.731 -34.552  1.00  0.00    -0.166 F 
HETATM   33  F   UNL     1      -2.828  -4.090 -32.472  1.00  0.00    -0.166 F 
ENDBRANCH  25  30
ENDBRANCH   1  23
TORSDOF 6
ENDMDL
MODEL 4
REMARK VINA RESULT:      -8.9      2.367      3.125
REMARK  6 active torsions:
REMARK  status: ('A' for Active; 'I' for Inactive)
REMARK    1  A    between atoms: C_2  and  C_3 
REMARK    2  A    between atoms: C_8  and  N_9 
REMARK       I    between atoms: N_9  and  C_10 
REMARK       I    between atoms: C_10  and  N_11 
REMARK    3  A    between atoms: N_11  and  N_12 
REMARK       I    between atoms: N_12  and  C_13 
REMARK    4  A    between atoms: C_13  and  C_14 
REMARK    5  A    between atoms: C_14  and  N_15 
REMARK       I    between atoms: N_15  and  C_16 
REMARK       I    between atoms: C_16  and  N_17 
REMARK    6  A    between atoms: N_17  and  C_18 
ROOT
HETATM    1  N   UNL     1      -5.952   1.166 -31.606  1.00  0.00    -0.306 N 
HETATM    2  C   UNL     1      -6.325   0.800 -30.340  1.00  0.00     0.339 C 
HETATM    3  N   UNL     1      -5.972   1.687 -29.356  1.00  0.00    -0.249 N 
HETATM    4  O   UNL     1      -6.937  -0.218 -30.029  1.00  0.00    -0.245 OA
HETATM    5  H   UNL     1      -5.268   1.910 -31.653  1.00  0.00     0.171 HD
HETATM    6  H   UNL     1      -6.133   1.397 -28.391  1.00  0.00     0.192 HD
ENDROOT
BRANCH   3   7
HETATM    7  N   UNL     1      -5.221   2.860 -29.544  1.00  0.00    -0.265 N 
HETATM    8  C   UNL     1      -5.978   4.022 -29.639  1.00  0.00     0.253 C 
HETATM    9  O   UNL     1      -7.186   4.038 -29.391  1.00  0.00    -0.270 OA
HETATM   10  H   UNL     1      -4.413   2.801 -30.172  1.00  0.00     0.190 HD
BRANCH   8  11
HETATM   11  C   UNL     1      -5.271   5.221 -30.269  1.00  0.00     0.228 C 
BRANCH  11  12
HETATM   12  N   UNL     1      -3.922   4.966 -30.726  1.00  0.00    -0.334 N 
HETATM   13  C   UNL     1      -3.636   4.351 -31.901  1.00  0.00     0.322 C 
HETATM   14  N   UNL     1      -2.350   4.381 -32.337  1.00  0.00    -0.287 N 
HETATM   15  O   UNL     1      -4.502   3.752 -32.540  1.00  0.00    -0.247 OA
HETATM   16  H   UNL     1      -2.155   3.904 -33.204  1.00  0.00     0.172 HD
HETATM   17  H   UNL     1      -3.162   5.484 -30.287  1.00  0.00     0.164 HD
BRANCH  14  18
HETATM   18  C   UNL     1      -1.312   5.005 -31.705  1.00  0.00     0.174 A 
HETATM   19  S   UNL     1      -0.891   6.531 -32.336  1.00  0.00    -0.062 SA
HETATM   20  C   UNL     1       0.357   6.643 -31.163  1.00  0.00     0.072 A 
HETATM   21  C   UNL     1       0.355   5.511 -30.375  1.00  0.00     0.126 A 
HETATM   22  N   UNL     1      -0.612   4.572 -30.684  1.00  0.00    -0.236 NA
ENDBRANCH  14  18
ENDBRANCH  11  12
ENDBRANCH   8  11
ENDBRANCH   3   7
BRANCH   1  23
HETATM   23  C   UNL     1      -6.275   0.516 -32.822  1.00  0.00     0.059 A 
HETATM   24  C   UNL     1      -5.855  -0.789 -33.116  1.00  0.00     0.047 A 
HETATM   25  C   UNL     1      -6.204  -1.419 -34.324  1.00  0.00     0.050 A 
HETATM   26  C   UNL     1      -6.981  -0.718 -35.256  1.00  0.00     0.018 A 
HETATM   27  C   UNL     1      -7.415   0.579 -34.976  1.00  0.00     0.027 A 
HETATM   28  C   UNL     1      -7.069   1.189 -33.766  1.00  0.00     0.060 A 
HETATM   29 CL   UNL     1      -7.640   2.798 -33.472  1.00  0.00    -0.082 Cl
BRANCH  25  30
HETATM   30  C   UNL     1      -5.720  -2.823 -34.602  1.00  0.00     0.417 C 
HETATM   31  F   UNL     1      -5.226  -2.981 -35.863  1.00  0.00    -0.166 F 
HETATM   32  F   UNL     1      -4.721  -3.207 -33.762  1.00  0.00    -0.166 F 
HETATM   33  F   UNL     1      -6.704  -3.754 -34.473  1.00  0.00    -0.166 F 
ENDBRANCH  25  30
ENDBRANCH   1  23
TORSDOF 6
ENDMDL
MODEL 5
REMARK VINA RESULT:      -8.7      1.652      2.149
REMARK  6 active torsions:
REMARK  status: ('A' for Active; 'I' for Inactive)
REMARK    1  A    between atoms: C_2  and  C_3 
REMARK    2  A    between atoms: C_8  and  N_9 
REMARK       I    between atoms: N_9  and  C_10 
REMARK       I    between atoms: C_10  and  N_11 
REMARK    3  A    between atoms: N_11  and  N_12 
REMARK       I    between atoms: N_12  and  C_13 
REMARK    4  A    between atoms: C_13  and  C_14 
REMARK    5  A    between atoms: C_14  and  N_15 
REMARK       I    between atoms: N_15  and  C_16 
REMARK       I    between atoms: C_16  and  N_17 
REMARK    6  A    between atoms: N_17  and  C_18 
ROOT
HETATM    1  N   UNL     1      -4.999   0.303 -33.246  1.00  0.00    -0.306 N 
HETATM    2  C   UNL     1      -5.561   0.857 -32.126  1.00  0.00     0.339 C 
HETATM    3  N   UNL     1      -5.279   2.185 -31.936  1.00  0.00    -0.249 N 
HETATM    4  O   UNL     1      -6.278   0.281 -31.313  1.00  0.00    -0.245 OA
HETATM    5  H   UNL     1      -4.264   0.853 -33.673  1.00  0.00     0.171 HD
HETATM    6  H   UNL     1      -5.585   2.604 -31.057  1.00  0.00     0.192 HD
ENDROOT
BRANCH   3   7
HETATM    7  N   UNL     1      -4.430   2.964 -32.740  1.00  0.00    -0.265 N 
HETATM    8  C   UNL     1      -3.160   3.169 -32.213  1.00  0.00     0.253 C 
HETATM    9  O   UNL     1      -2.760   2.563 -31.216  1.00  0.00    -0.270 OA
HETATM   10  H   UNL     1      -4.849   3.768 -33.220  1.00  0.00     0.190 HD
BRANCH   8  11
HETATM   11  C   UNL     1      -2.377   4.337 -32.811  1.00  0.00     0.228 C 
BRANCH  11  12
HETATM   12  N   UNL     1      -2.055   5.398 -31.882  1.00  0.00    -0.334 N 
HETATM   13  C   UNL     1      -0.816   5.585 -31.361  1.00  0.00     0.322 C 
HETATM   14  N   UNL     1      -0.575   6.744 -30.697  1.00  0.00    -0.287 N 
HETATM   15  O   UNL     1       0.056   4.720 -31.454  1.00  0.00    -0.247 OA
HETATM   16  H   UNL     1       0.347   6.856 -30.303  1.00  0.00     0.172 HD
HETATM   17  H   UNL     1      -2.702   6.183 -31.809  1.00  0.00     0.164 HD
BRANCH  14  18
HETATM   18  C   UNL     1      -1.468   7.763 -30.526  1.00  0.00     0.174 A 
HETATM   19  S   UNL     1      -1.956   8.038 -28.917  1.00  0.00    -0.062 SA
HETATM   20  C   UNL     1      -2.974   9.305 -29.469  1.00  0.00     0.072 A 
HETATM   21  C   UNL     1      -2.860   9.427 -30.838  1.00  0.00     0.126 A 
HETATM   22  N   UNL     1      -1.988   8.542 -31.445  1.00  0.00    -0.236 NA
ENDBRANCH  14  18
ENDBRANCH  11  12
ENDBRANCH   8  11
ENDBRANCH   3   7
BRANCH   1  23
HETATM   23  C   UNL     1      -5.204  -1.000 -33.758  1.00  0.00     0.059 A 
HETATM   24  C   UNL     1      -4.371  -2.080 -33.432  1.00  0.00     0.047 A 
HETATM   25  C   UNL     1      -4.606  -3.370 -33.941  1.00  0.00     0.050 A 
HETATM   26  C   UNL     1      -5.694  -3.574 -34.801  1.00  0.00     0.018 A 
HETATM   27  C   UNL     1      -6.538  -2.511 -35.131  1.00  0.00     0.027 A 
HETATM   28  C   UNL     1      -6.298  -1.236 -34.608  1.00  0.00     0.060 A 
HETATM   29 CL   UNL     1      -7.382   0.041 -35.048  1.00  0.00    -0.082 Cl
BRANCH  25  30
HETATM   30  C   UNL     1      -3.676  -4.501 -33.570  1.00  0.00     0.417 C 
HETATM   31  F   UNL     1      -2.795  -4.819 -34.560  1.00  0.00    -0.166 F 
HETATM   32  F   UNL     1      -2.918  -4.216 -32.477  1.00  0.00    -0.166 F 
HETATM   33  F   UNL     1      -4.338  -5.655 -33.282  1.00  0.00    -0.166 F 
ENDBRANCH  25  30
ENDBRANCH   1  23
TORSDOF 6
ENDMDL
MODEL 6
REMARK VINA RESULT:      -8.6      1.802      2.301
REMARK  6 active torsions:
REMARK  status: ('A' for Active; 'I' for Inactive)
REMARK    1  A    between atoms: C_2  and  C_3 
REMARK    2  A    between atoms: C_8  and  N_9 
REMARK       I    between atoms: N_9  and  C_10 
REMARK       I    between atoms: C_10  and  N_11 
REMARK    3  A    between atoms: N_11  and  N_12 
REMARK       I    between atoms: N_12  and  C_13 
REMARK    4  A    between atoms: C_13  and  C_14 
REMARK    5  A    between atoms: C_14  and  N_15 
REMARK       I    between atoms: N_15  and  C_16 
REMARK       I    between atoms: C_16  and  N_17 
REMARK    6  A    between atoms: N_17  and  C_18 
ROOT
HETATM    1  N   UNL     1      -5.267   1.796 -32.386  1.00  0.00    -0.306 N 
HETATM    2  C   UNL     1      -5.510   1.928 -31.044  1.00  0.00     0.339 C 
HETATM    3  N   UNL     1      -4.822   2.943 -30.430  1.00  0.00    -0.249 N 
HETATM    4  O   UNL     1      -6.274   1.239 -30.374  1.00  0.00    -0.245 OA
HETATM    5  H   UNL     1      -4.452   2.292 -32.724  1.00  0.00     0.171 HD
HETATM    6  H   UNL     1      -4.891   3.002 -29.414  1.00  0.00     0.192 HD
ENDROOT
BRANCH   3   7
HETATM    7  N   UNL     1      -3.872   3.775 -31.046  1.00  0.00    -0.265 N 
HETATM    8  C   UNL     1      -4.411   4.788 -31.829  1.00  0.00     0.253 C 
HETATM    9  O   UNL     1      -5.617   5.044 -31.830  1.00  0.00    -0.270 OA
HETATM   10  H   UNL     1      -3.028   3.324 -31.416  1.00  0.00     0.190 HD
BRANCH   8  11
HETATM   11  C   UNL     1      -3.455   5.419 -32.842  1.00  0.00     0.228 C 
BRANCH  11  12
HETATM   12  N   UNL     1      -2.111   5.646 -32.357  1.00  0.00    -0.334 N 
HETATM   13  C   UNL     1      -1.333   6.679 -32.767  1.00  0.00     0.322 C 
HETATM   14  N   UNL     1      -0.193   6.930 -32.073  1.00  0.00    -0.287 N 
HETATM   15  O   UNL     1      -1.626   7.349 -33.758  1.00  0.00    -0.247 OA
HETATM   16  H   UNL     1       0.380   7.691 -32.404  1.00  0.00     0.172 HD
HETATM   17  H   UNL     1      -1.827   5.175 -31.498  1.00  0.00     0.164 HD
BRANCH  14  18
HETATM   18  C   UNL     1       0.232   6.246 -30.970  1.00  0.00     0.174 A 
HETATM   19  S   UNL     1       0.147   7.109 -29.504  1.00  0.00    -0.062 SA
HETATM   20  C   UNL     1       0.798   5.744 -28.692  1.00  0.00     0.072 A 
HETATM   21  C   UNL     1       1.024   4.730 -29.599  1.00  0.00     0.126 A 
HETATM   22  N   UNL     1       0.692   5.018 -30.910  1.00  0.00    -0.236 NA
ENDBRANCH  14  18
ENDBRANCH  11  12
ENDBRANCH   8  11
ENDBRANCH   3   7
BRANCH   1  23
HETATM   23  C   UNL     1      -5.909   0.923 -33.296  1.00  0.00     0.059 A 
HETATM   24  C   UNL     1      -5.509  -0.408 -33.476  1.00  0.00     0.047 A 
HETATM   25  C   UNL     1      -6.175  -1.261 -34.376  1.00  0.00     0.050 A 
HETATM   26  C   UNL     1      -7.257  -0.760 -35.113  1.00  0.00     0.018 A 
HETATM   27  C   UNL     1      -7.673   0.561 -34.940  1.00  0.00     0.027 A 
HETATM   28  C   UNL     1      -7.008   1.395 -34.034  1.00  0.00     0.060 A 
HETATM   29 CL   UNL     1      -7.573   3.022 -33.858  1.00  0.00    -0.082 Cl
BRANCH  25  30
HETATM   30  C   UNL     1      -5.702  -2.686 -34.544  1.00  0.00     0.417 C 
HETATM   31  F   UNL     1      -6.684  -3.607 -34.327  1.00  0.00    -0.166 F 
HETATM   32  F   UNL     1      -5.230  -2.936 -35.795  1.00  0.00    -0.166 F 
HETATM   33  F   UNL     1      -4.697  -3.012 -33.686  1.00  0.00    -0.166 F 
ENDBRANCH  25  30
ENDBRANCH   1  23
TORSDOF 6
ENDMDL
MODEL 7
REMARK VINA RESULT:      -8.5      2.854      3.912
REMARK  6 active torsions:
REMARK  status: ('A' for Active; 'I' for Inactive)
REMARK    1  A    between atoms: C_2  and  C_3 
REMARK    2  A    between atoms: C_8  and  N_9 
REMARK       I    between atoms: N_9  and  C_10 
REMARK       I    between atoms: C_10  and  N_11 
REMARK    3  A    between atoms: N_11  and  N_12 
REMARK       I    between atoms: N_12  and  C_13 
REMARK    4  A    between atoms: C_13  and  C_14 
REMARK    5  A    between atoms: C_14  and  N_15 
REMARK       I    between atoms: N_15  and  C_16 
REMARK       I    between atoms: C_16  and  N_17 
REMARK    6  A    between atoms: N_17  and  C_18 
ROOT
HETATM    1  N   UNL     1      -6.789   0.405 -33.542  1.00  0.00    -0.306 N 
HETATM    2  C   UNL     1      -7.636   0.905 -34.496  1.00  0.00     0.339 C 
HETATM    3  N   UNL     1      -8.229   2.097 -34.173  1.00  0.00    -0.249 N 
HETATM    4  O   UNL     1      -7.887   0.392 -35.582  1.00  0.00    -0.245 OA
HETATM    5  H   UNL     1      -6.873   0.834 -32.628  1.00  0.00     0.171 HD
HETATM    6  H   UNL     1      -8.949   2.444 -34.808  1.00  0.00     0.192 HD
ENDROOT
BRANCH   3   7
HETATM    7  N   UNL     1      -8.089   2.775 -32.950  1.00  0.00    -0.265 N 
HETATM    8  C   UNL     1      -7.485   4.023 -33.047  1.00  0.00     0.253 C 
HETATM    9  O   UNL     1      -7.265   4.561 -34.134  1.00  0.00    -0.270 OA
HETATM   10  H   UNL     1      -7.826   2.214 -32.133  1.00  0.00     0.190 HD
BRANCH   8  11
HETATM   11  C   UNL     1      -6.922   4.588 -31.743  1.00  0.00     0.228 C 
BRANCH  11  12
HETATM   12  N   UNL     1      -5.479   4.575 -31.643  1.00  0.00    -0.334 N 
HETATM   13  C   UNL     1      -4.797   3.804 -30.759  1.00  0.00     0.322 C 
HETATM   14  N   UNL     1      -3.453   3.693 -30.917  1.00  0.00    -0.287 N 
HETATM   15  O   UNL     1      -5.368   3.247 -29.820  1.00  0.00    -0.247 OA
HETATM   16  H   UNL     1      -2.963   3.128 -30.240  1.00  0.00     0.172 HD
HETATM   17  H   UNL     1      -4.942   4.957 -32.421  1.00  0.00     0.164 HD
BRANCH  14  18
HETATM   18  C   UNL     1      -2.720   4.273 -31.912  1.00  0.00     0.174 A 
HETATM   19  S   UNL     1      -1.516   5.359 -31.388  1.00  0.00    -0.062 SA
HETATM   20  C   UNL     1      -1.100   5.649 -33.028  1.00  0.00     0.072 A 
HETATM   21  C   UNL     1      -1.906   4.892 -33.851  1.00  0.00     0.126 A 
HETATM   22  N   UNL     1      -2.835   4.095 -33.207  1.00  0.00    -0.236 NA
ENDBRANCH  14  18
ENDBRANCH  11  12
ENDBRANCH   8  11
ENDBRANCH   3   7
BRANCH   1  23
HETATM   23  C   UNL     1      -5.956  -0.735 -33.640  1.00  0.00     0.059 A 
HETATM   24  C   UNL     1      -6.403  -1.954 -34.168  1.00  0.00     0.047 A 
HETATM   25  C   UNL     1      -5.550  -3.069 -34.270  1.00  0.00     0.050 A 
HETATM   26  C   UNL     1      -4.227  -2.955 -33.824  1.00  0.00     0.018 A 
HETATM   27  C   UNL     1      -3.762  -1.745 -33.303  1.00  0.00     0.027 A 
HETATM   28  C   UNL     1      -4.619  -0.643 -33.217  1.00  0.00     0.060 A 
HETATM   29 CL   UNL     1      -3.986   0.832 -32.567  1.00  0.00    -0.082 Cl
BRANCH  25  30
HETATM   30  C   UNL     1      -6.079  -4.366 -34.837  1.00  0.00     0.417 C 
HETATM   31  F   UNL     1      -6.156  -4.364 -36.198  1.00  0.00    -0.166 F 
HETATM   32  F   UNL     1      -5.303  -5.434 -34.511  1.00  0.00    -0.166 F 
HETATM   33  F   UNL     1      -7.334  -4.659 -34.398  1.00  0.00    -0.166 F 
ENDBRANCH  25  30
ENDBRANCH   1  23
TORSDOF 6
ENDMDL
MODEL 8
REMARK VINA RESULT:      -8.4      2.356      3.016
REMARK  6 active torsions:
REMARK  status: ('A' for Active; 'I' for Inactive)
REMARK    1  A    between atoms: C_2  and  C_3 
REMARK    2  A    between atoms: C_8  and  N_9 
REMARK       I    between atoms: N_9  and  C_10 
REMARK       I    between atoms: C_10  and  N_11 
REMARK    3  A    between atoms: N_11  and  N_12 
REMARK       I    between atoms: N_12  and  C_13 
REMARK    4  A    between atoms: C_13  and  C_14 
REMARK    5  A    between atoms: C_14  and  N_15 
REMARK       I    between atoms: N_15  and  C_16 
REMARK       I    between atoms: C_16  and  N_17 
REMARK    6  A    between atoms: N_17  and  C_18 
ROOT
HETATM    1  N   UNL     1      -6.192   0.522 -33.564  1.00  0.00    -0.306 N 
HETATM    2  C   UNL     1      -7.473   0.797 -33.164  1.00  0.00     0.339 C 
HETATM    3  N   UNL     1      -7.888   2.082 -33.401  1.00  0.00    -0.249 N 
HETATM    4  O   UNL     1      -8.253   0.009 -32.638  1.00  0.00    -0.245 OA
HETATM    5  H   UNL     1      -5.623   1.334 -33.767  1.00  0.00     0.171 HD
HETATM    6  H   UNL     1      -8.793   2.355 -33.018  1.00  0.00     0.192 HD
ENDROOT
BRANCH   3   7
HETATM    7  N   UNL     1      -7.096   3.111 -33.938  1.00  0.00    -0.265 N 
HETATM    8  C   UNL     1      -6.207   3.686 -33.038  1.00  0.00     0.253 C 
HETATM    9  O   UNL     1      -6.004   3.206 -31.921  1.00  0.00    -0.270 OA
HETATM   10  H   UNL     1      -7.551   3.757 -34.592  1.00  0.00     0.190 HD
BRANCH   8  11
HETATM   11  C   UNL     1      -5.661   5.058 -33.434  1.00  0.00     0.228 C 
BRANCH  11  12
HETATM   12  N   UNL     1      -4.218   5.148 -33.496  1.00  0.00    -0.334 N 
HETATM   13  C   UNL     1      -3.529   5.330 -34.651  1.00  0.00     0.322 C 
HETATM   14  N   UNL     1      -2.211   5.640 -34.562  1.00  0.00    -0.287 N 
HETATM   15  O   UNL     1      -4.070   5.187 -35.749  1.00  0.00    -0.247 OA
HETATM   16  H   UNL     1      -1.713   5.755 -35.432  1.00  0.00     0.172 HD
HETATM   17  H   UNL     1      -3.713   5.337 -32.631  1.00  0.00     0.164 HD
BRANCH  14  18
HETATM   18  C   UNL     1      -1.512   5.812 -33.402  1.00  0.00     0.174 A 
HETATM   19  S   UNL     1      -1.306   7.431 -32.912  1.00  0.00    -0.062 SA
HETATM   20  C   UNL     1      -0.419   6.879 -31.550  1.00  0.00     0.072 A 
HETATM   21  C   UNL     1      -0.352   5.502 -31.567  1.00  0.00     0.126 A 
HETATM   22  N   UNL     1      -0.988   4.888 -32.631  1.00  0.00    -0.236 NA
ENDBRANCH  14  18
ENDBRANCH  11  12
ENDBRANCH   8  11
ENDBRANCH   3   7
BRANCH   1  23
HETATM   23  C   UNL     1      -5.536  -0.732 -33.553  1.00  0.00     0.059 A 
HETATM   24  C   UNL     1      -6.045  -1.857 -34.217  1.00  0.00     0.047 A 
HETATM   25  C   UNL     1      -5.365  -3.089 -34.205  1.00  0.00     0.050 A 
HETATM   26  C   UNL     1      -4.155  -3.190 -33.505  1.00  0.00     0.018 A 
HETATM   27  C   UNL     1      -3.629  -2.078 -32.845  1.00  0.00     0.027 A 
HETATM   28  C   UNL     1      -4.312  -0.857 -32.874  1.00  0.00     0.060 A 
HETATM   29 CL   UNL     1      -3.608   0.489 -32.042  1.00  0.00    -0.082 Cl
BRANCH  25  30
HETATM   30  C   UNL     1      -5.957  -4.277 -34.927  1.00  0.00     0.417 C 
HETATM   31  F   UNL     1      -6.020  -4.107 -36.278  1.00  0.00    -0.166 F 
HETATM   32  F   UNL     1      -5.243  -5.417 -34.730  1.00  0.00    -0.166 F 
HETATM   33  F   UNL     1      -7.230  -4.552 -34.531  1.00  0.00    -0.166 F 
ENDBRANCH  25  30
ENDBRANCH   1  23
TORSDOF 6
ENDMDL
MODEL 9
REMARK VINA RESULT:      -8.4      5.366      7.760
REMARK  6 active torsions:
REMARK  status: ('A' for Active; 'I' for Inactive)
REMARK    1  A    between atoms: C_2  and  C_3 
REMARK    2  A    between atoms: C_8  and  N_9 
REMARK       I    between atoms: N_9  and  C_10 
REMARK       I    between atoms: C_10  and  N_11 
REMARK    3  A    between atoms: N_11  and  N_12 
REMARK       I    between atoms: N_12  and  C_13 
REMARK    4  A    between atoms: C_13  and  C_14 
REMARK    5  A    between atoms: C_14  and  N_15 
REMARK       I    between atoms: N_15  and  C_16 
REMARK       I    between atoms: C_16  and  N_17 
REMARK    6  A    between atoms: N_17  and  C_18 
ROOT
HETATM    1  N   UNL     1      -6.043   1.623 -31.375  1.00  0.00    -0.306 N 
HETATM    2  C   UNL     1      -6.296   1.582 -30.029  1.00  0.00     0.339 C 
HETATM    3  N   UNL     1      -6.999   2.652 -29.542  1.00  0.00    -0.249 N 
HETATM    4  O   UNL     1      -5.963   0.689 -29.256  1.00  0.00    -0.245 OA
HETATM    5  H   UNL     1      -6.187   2.525 -31.811  1.00  0.00     0.171 HD
HETATM    6  H   UNL     1      -7.111   2.713 -28.529  1.00  0.00     0.192 HD
ENDROOT
BRANCH   3   7
HETATM    7  N   UNL     1      -7.397   3.776 -30.286  1.00  0.00    -0.265 N 
HETATM    8  C   UNL     1      -8.755   3.826 -30.577  1.00  0.00     0.253 C 
HETATM    9  O   UNL     1      -9.563   3.048 -30.065  1.00  0.00    -0.270 OA
HETATM   10  H   UNL     1      -6.768   4.087 -31.034  1.00  0.00     0.190 HD
BRANCH   8  11
HETATM   11  C   UNL     1      -9.152   4.757 -31.722  1.00  0.00     0.228 C 
BRANCH  11  12
HETATM   12  N   UNL     1      -9.912   4.133 -32.784  1.00  0.00    -0.334 N 
HETATM   13  C   UNL     1      -9.518   4.129 -34.082  1.00  0.00     0.322 C 
HETATM   14  N   UNL     1     -10.179   3.314 -34.944  1.00  0.00    -0.287 N 
HETATM   15  O   UNL     1      -8.614   4.865 -34.481  1.00  0.00    -0.247 OA
HETATM   16  H   UNL     1      -9.882   3.338 -35.908  1.00  0.00     0.172 HD
HETATM   17  H   UNL     1     -10.630   3.457 -32.524  1.00  0.00     0.164 HD
BRANCH  14  18
HETATM   18  C   UNL     1     -11.199   2.468 -34.613  1.00  0.00     0.174 A 
HETATM   19  S   UNL     1     -12.733   2.914 -35.206  1.00  0.00    -0.062 SA
HETATM   20  C   UNL     1     -13.403   1.532 -34.439  1.00  0.00     0.072 A 
HETATM   21  C   UNL     1     -12.406   0.831 -33.795  1.00  0.00     0.126 A 
HETATM   22  N   UNL     1     -11.136   1.368 -33.901  1.00  0.00    -0.236 NA
ENDBRANCH  14  18
ENDBRANCH  11  12
ENDBRANCH   8  11
ENDBRANCH   3   7
BRANCH   1  23
HETATM   23  C   UNL     1      -5.445   0.617 -32.171  1.00  0.00     0.059 A 
HETATM   24  C   UNL     1      -6.188  -0.225 -33.009  1.00  0.00     0.047 A 
HETATM   25  C   UNL     1      -5.568  -1.207 -33.804  1.00  0.00     0.050 A 
HETATM   26  C   UNL     1      -4.175  -1.348 -33.745  1.00  0.00     0.018 A 
HETATM   27  C   UNL     1      -3.418  -0.513 -32.921  1.00  0.00     0.027 A 
HETATM   28  C   UNL     1      -4.048   0.466 -32.145  1.00  0.00     0.060 A 
HETATM   29 CL   UNL     1      -3.056   1.477 -31.147  1.00  0.00    -0.082 Cl
BRANCH  25  30
HETATM   30  C   UNL     1      -6.412  -2.099 -34.685  1.00  0.00     0.417 C 
HETATM   31  F   UNL     1      -7.356  -1.416 -35.392  1.00  0.00    -0.166 F 
HETATM   32  F   UNL     1      -5.673  -2.772 -35.607  1.00  0.00    -0.166 F 
HETATM   33  F   UNL     1      -7.093  -3.043 -33.980  1.00  0.00    -0.166 F 
ENDBRANCH  25  30
ENDBRANCH   1  23
TORSDOF 6
ENDMDL
MODEL 10
REMARK VINA RESULT:      -8.3      5.075      8.980
REMARK  6 active torsions:
REMARK  status: ('A' for Active; 'I' for Inactive)
REMARK    1  A    between atoms: C_2  and  C_3 
REMARK    2  A    between atoms: C_8  and  N_9 
REMARK       I    between atoms: N_9  and  C_10 
REMARK       I    between atoms: C_10  and  N_11 
REMARK    3  A    between atoms: N_11  and  N_12 
REMARK       I    between atoms: N_12  and  C_13 
REMARK    4  A    between atoms: C_13  and  C_14 
REMARK    5  A    between atoms: C_14  and  N_15 
REMARK       I    between atoms: N_15  and  C_16 
REMARK       I    between atoms: C_16  and  N_17 
REMARK    6  A    between atoms: N_17  and  C_18 
ROOT
HETATM    1  N   UNL     1      -3.969   4.018 -32.428  1.00  0.00    -0.306 N 
HETATM    2  C   UNL     1      -5.247   4.398 -32.112  1.00  0.00     0.339 C 
HETATM    3  N   UNL     1      -6.080   3.372 -31.749  1.00  0.00    -0.249 N 
HETATM    4  O   UNL     1      -5.685   5.544 -32.118  1.00  0.00    -0.245 OA
HETATM    5  H   UNL     1      -3.844   3.027 -32.587  1.00  0.00     0.171 HD
HETATM    6  H   UNL     1      -7.065   3.600 -31.614  1.00  0.00     0.192 HD
ENDROOT
BRANCH   3   7
HETATM    7  N   UNL     1      -5.745   2.008 -31.750  1.00  0.00    -0.265 N 
HETATM    8  C   UNL     1      -6.760   1.162 -31.319  1.00  0.00     0.253 C 
HETATM    9  O   UNL     1      -7.911   1.563 -31.132  1.00  0.00    -0.270 OA
HETATM   10  H   UNL     1      -4.797   1.759 -31.445  1.00  0.00     0.190 HD
BRANCH   8  11
HETATM   11  C   UNL     1      -6.317  -0.236 -30.889  1.00  0.00     0.228 C 
BRANCH  11  12
HETATM   12  N   UNL     1      -5.556  -0.969 -31.879  1.00  0.00    -0.334 N 
HETATM   13  C   UNL     1      -4.200  -1.005 -31.902  1.00  0.00     0.322 C 
HETATM   14  N   UNL     1      -3.603  -1.910 -32.719  1.00  0.00    -0.287 N 
HETATM   15  O   UNL     1      -3.526  -0.220 -31.232  1.00  0.00    -0.247 OA
HETATM   16  H   UNL     1      -2.594  -1.909 -32.734  1.00  0.00     0.172 HD
HETATM   17  H   UNL     1      -6.040  -1.685 -32.420  1.00  0.00     0.164 HD
BRANCH  14  18
HETATM   18  C   UNL     1      -4.251  -2.815 -33.509  1.00  0.00     0.174 A 
HETATM   19  S   UNL     1      -3.670  -4.414 -33.407  1.00  0.00    -0.062 SA
HETATM   20  C   UNL     1      -4.842  -4.887 -34.569  1.00  0.00     0.072 A 
HETATM   21  C   UNL     1      -5.592  -3.792 -34.943  1.00  0.00     0.126 A 
HETATM   22  N   UNL     1      -5.255  -2.600 -34.326  1.00  0.00    -0.236 NA
ENDBRANCH  14  18
ENDBRANCH  11  12
ENDBRANCH   8  11
ENDBRANCH   3   7
BRANCH   1  23
HETATM   23  C   UNL     1      -2.868   4.858 -32.725  1.00  0.00     0.059 A 
HETATM   24  C   UNL     1      -1.840   5.109 -31.807  1.00  0.00     0.047 A 
HETATM   25  C   UNL     1      -0.747   5.934 -32.132  1.00  0.00     0.050 A 
HETATM   26  C   UNL     1      -0.697   6.524 -33.402  1.00  0.00     0.018 A 
HETATM   27  C   UNL     1      -1.709   6.278 -34.332  1.00  0.00     0.027 A 
HETATM   28  C   UNL     1      -2.784   5.447 -33.998  1.00  0.00     0.060 A 
HETATM   29 CL   UNL     1      -4.006   5.175 -35.194  1.00  0.00    -0.082 Cl
BRANCH  25  30
HETATM   30  C   UNL     1       0.333   6.183 -31.106  1.00  0.00     0.417 C 
HETATM   31  F   UNL     1      -0.159   6.496 -29.874  1.00  0.00    -0.166 F 
HETATM   32  F   UNL     1       1.137   5.102 -30.920  1.00  0.00    -0.166 F 
HETATM   33  F   UNL     1       1.155   7.214 -31.446  1.00  0.00    -0.166 F 
ENDBRANCH  25  30
ENDBRANCH   1  23
TORSDOF 6
ENDMDL
