MODEL 1
REMARK VINA RESULT:      -7.1      0.000      0.000
REMARK  6 active torsions:
REMARK  status: ('A' for Active; 'I' for Inactive)
REMARK    1  A    between atoms: C_2  and  C_3 
REMARK    2  A    between atoms: C_3  and  N_4 
REMARK    3  A    between atoms: C_3  and  C_15 
REMARK       I    between atoms: N_4  and  C_5 
REMARK    4  A    between atoms: C_5  and  C_6 
REMARK    5  A    between atoms: C_6  and  C_7 
REMARK    6  A    between atoms: C_16  and  O_17 
ROOT
HETATM    1  C   UNL     1      -6.346   2.191 -32.650  1.00  0.00     0.128 C 
ENDROOT
BRANCH   1   2
HETATM    2  C   UNL     1      -6.238   2.322 -31.084  1.00  0.00    -0.026 C 
HETATM    3  C   UNL     1      -4.848   2.894 -30.716  1.00  0.00     0.016 C 
HETATM    4  C   UNL     1      -6.411   0.979 -30.350  1.00  0.00     0.016 C 
HETATM    5  C   UNL     1      -7.294   3.307 -30.539  1.00  0.00     0.016 C 
ENDBRANCH   1   2
BRANCH   1   6
HETATM    6  N   UNL     1      -5.367   3.057 -33.326  1.00  0.00    -0.351 N 
HETATM    7  C   UNL     1      -5.735   4.158 -34.065  1.00  0.00     0.222 C 
HETATM    8  O   UNL     1      -6.885   4.580 -34.144  1.00  0.00    -0.273 OA
HETATM    9  H   UNL     1      -4.403   2.760 -33.335  1.00  0.00     0.163 HD
BRANCH   7  10
HETATM   10  C   UNL     1      -4.581   4.856 -34.766  1.00  0.00     0.142 C 
BRANCH  10  11
HETATM   11  C   UNL     1      -3.482   5.318 -33.843  1.00  0.00    -0.032 A 
HETATM   12  C   UNL     1      -3.686   6.315 -32.890  1.00  0.00     0.126 A 
HETATM   13  N   UNL     1      -2.717   6.799 -32.077  1.00  0.00    -0.248 NA
HETATM   14  C   UNL     1      -1.486   6.279 -32.233  1.00  0.00     0.125 A 
HETATM   15 CL   UNL     1      -0.291   6.934 -31.194  1.00  0.00    -0.063 Cl
HETATM   16  C   UNL     1      -1.165   5.299 -33.156  1.00  0.00     0.045 A 
HETATM   17  C   UNL     1      -2.182   4.816 -33.976  1.00  0.00     0.012 A 
ENDBRANCH  10  11
ENDBRANCH   7  10
ENDBRANCH   1   6
BRANCH   1  18
HETATM   18  C   UNL     1      -6.246   0.761 -33.193  1.00  0.00    -0.001 A 
HETATM   19  C   UNL     1      -7.404   0.056 -33.598  1.00  0.00     0.076 A 
HETATM   20  C   UNL     1      -7.290  -1.247 -34.099  1.00  0.00     0.037 A 
HETATM   21  C   UNL     1      -6.044  -1.867 -34.193  1.00  0.00     0.003 A 
HETATM   22  C   UNL     1      -4.900  -1.191 -33.788  1.00  0.00     0.001 A 
HETATM   23  C   UNL     1      -5.000   0.109 -33.294  1.00  0.00     0.012 A 
BRANCH  19  24
HETATM   24  O   UNL     1      -8.594   0.721 -33.465  1.00  0.00    -0.355 OA
HETATM   25  C   UNL     1      -9.520   0.237 -32.501  1.00  0.00     0.210 C 
ENDBRANCH  19  24
ENDBRANCH   1  18
TORSDOF 6
ENDMDL
MODEL 2
REMARK VINA RESULT:      -7.1      1.444      2.337
REMARK  6 active torsions:
REMARK  status: ('A' for Active; 'I' for Inactive)
REMARK    1  A    between atoms: C_2  and  C_3 
REMARK    2  A    between atoms: C_3  and  N_4 
REMARK    3  A    between atoms: C_3  and  C_15 
REMARK       I    between atoms: N_4  and  C_5 
REMARK    4  A    between atoms: C_5  and  C_6 
REMARK    5  A    between atoms: C_6  and  C_7 
REMARK    6  A    between atoms: C_16  and  O_17 
ROOT
HETATM    1  C   UNL     1      -6.514   1.428 -32.925  1.00  0.00     0.128 C 
ENDROOT
BRANCH   1   2
HETATM    2  C   UNL     1      -6.800   1.492 -31.377  1.00  0.00    -0.026 C 
HETATM    3  C   UNL     1      -8.222   2.058 -31.146  1.00  0.00     0.016 C 
HETATM    4  C   UNL     1      -5.802   2.382 -30.611  1.00  0.00     0.016 C 
HETATM    5  C   UNL     1      -6.765   0.081 -30.751  1.00  0.00     0.016 C 
ENDBRANCH   1   2
BRANCH   1   6
HETATM    6  N   UNL     1      -5.571   2.478 -33.336  1.00  0.00    -0.351 N 
HETATM    7  C   UNL     1      -5.982   3.676 -33.877  1.00  0.00     0.222 C 
HETATM    8  O   UNL     1      -7.156   4.021 -33.969  1.00  0.00    -0.273 OA
HETATM    9  H   UNL     1      -4.587   2.259 -33.322  1.00  0.00     0.163 HD
BRANCH   7  10
HETATM   10  C   UNL     1      -4.848   4.580 -34.332  1.00  0.00     0.142 C 
BRANCH  10  11
HETATM   11  C   UNL     1      -3.798   4.836 -33.279  1.00  0.00    -0.032 A 
HETATM   12  C   UNL     1      -4.101   5.456 -32.067  1.00  0.00     0.126 A 
HETATM   13  N   UNL     1      -3.183   5.754 -31.117  1.00  0.00    -0.248 NA
HETATM   14  C   UNL     1      -1.906   5.436 -31.394  1.00  0.00     0.125 A 
HETATM   15 CL   UNL     1      -0.780   5.848 -30.168  1.00  0.00    -0.063 Cl
HETATM   16  C   UNL     1      -1.488   4.835 -32.568  1.00  0.00     0.045 A 
HETATM   17  C   UNL     1      -2.454   4.535 -33.526  1.00  0.00     0.012 A 
ENDBRANCH  10  11
ENDBRANCH   7  10
ENDBRANCH   1   6
BRANCH   1  18
HETATM   18  C   UNL     1      -6.043   0.064 -33.444  1.00  0.00    -0.001 A 
HETATM   19  C   UNL     1      -4.707  -0.361 -33.258  1.00  0.00     0.076 A 
HETATM   20  C   UNL     1      -4.299  -1.614 -33.733  1.00  0.00     0.037 A 
HETATM   21  C   UNL     1      -5.196  -2.447 -34.402  1.00  0.00     0.003 A 
HETATM   22  C   UNL     1      -6.508  -2.037 -34.604  1.00  0.00     0.001 A 
HETATM   23  C   UNL     1      -6.927  -0.795 -34.129  1.00  0.00     0.012 A 
BRANCH  19  24
HETATM   24  O   UNL     1      -3.879   0.514 -32.604  1.00  0.00    -0.355 OA
HETATM   25  C   UNL     1      -3.101   0.010 -31.527  1.00  0.00     0.210 C 
ENDBRANCH  19  24
ENDBRANCH   1  18
TORSDOF 6
ENDMDL
MODEL 3
REMARK VINA RESULT:      -6.9      3.358      7.539
REMARK  6 active torsions:
REMARK  status: ('A' for Active; 'I' for Inactive)
REMARK    1  A    between atoms: C_2  and  C_3 
REMARK    2  A    between atoms: C_3  and  N_4 
REMARK    3  A    between atoms: C_3  and  C_15 
REMARK       I    between atoms: N_4  and  C_5 
REMARK    4  A    between atoms: C_5  and  C_6 
REMARK    5  A    between atoms: C_6  and  C_7 
REMARK    6  A    between atoms: C_16  and  O_17 
ROOT
HETATM    1  C   UNL     1      -2.738   5.111 -32.324  1.00  0.00     0.128 C 
ENDROOT
BRANCH   1   2
HETATM    2  C   UNL     1      -2.756   5.556 -33.835  1.00  0.00    -0.026 C 
HETATM    3  C   UNL     1      -1.837   4.617 -34.653  1.00  0.00     0.016 C 
HETATM    4  C   UNL     1      -2.270   7.003 -34.048  1.00  0.00     0.016 C 
HETATM    5  C   UNL     1      -4.176   5.434 -34.429  1.00  0.00     0.016 C 
ENDBRANCH   1   2
BRANCH   1   6
HETATM    6  N   UNL     1      -2.680   3.647 -32.201  1.00  0.00    -0.351 N 
HETATM    7  C   UNL     1      -3.562   2.931 -31.424  1.00  0.00     0.222 C 
HETATM    8  O   UNL     1      -4.530   3.423 -30.853  1.00  0.00    -0.273 OA
HETATM    9  H   UNL     1      -1.893   3.170 -32.615  1.00  0.00     0.163 HD
BRANCH   7  10
HETATM   10  C   UNL     1      -3.266   1.442 -31.349  1.00  0.00     0.142 C 
BRANCH  10  11
HETATM   11  C   UNL     1      -4.119   0.594 -32.259  1.00  0.00    -0.032 A 
HETATM   12  C   UNL     1      -5.490   0.807 -32.401  1.00  0.00     0.126 A 
HETATM   13  N   UNL     1      -6.304   0.039 -33.163  1.00  0.00    -0.248 NA
HETATM   14  C   UNL     1      -5.729  -0.998 -33.798  1.00  0.00     0.125 A 
HETATM   15 CL   UNL     1      -6.802  -1.951 -34.738  1.00  0.00    -0.063 Cl
HETATM   16  C   UNL     1      -4.385  -1.315 -33.719  1.00  0.00     0.045 A 
HETATM   17  C   UNL     1      -3.570  -0.505 -32.931  1.00  0.00     0.012 A 
ENDBRANCH  10  11
ENDBRANCH   7  10
ENDBRANCH   1   6
BRANCH   1  18
HETATM   18  C   UNL     1      -1.641   5.755 -31.468  1.00  0.00    -0.001 A 
HETATM   19  C   UNL     1      -1.952   6.769 -30.533  1.00  0.00     0.076 A 
HETATM   20  C   UNL     1      -0.935   7.339 -29.755  1.00  0.00     0.037 A 
HETATM   21  C   UNL     1       0.389   6.925 -29.901  1.00  0.00     0.003 A 
HETATM   22  C   UNL     1       0.711   5.938 -30.824  1.00  0.00     0.001 A 
HETATM   23  C   UNL     1      -0.294   5.359 -31.599  1.00  0.00     0.012 A 
BRANCH  19  24
HETATM   24  O   UNL     1      -3.270   7.135 -30.453  1.00  0.00    -0.355 OA
HETATM   25  C   UNL     1      -3.950   6.899 -29.228  1.00  0.00     0.210 C 
ENDBRANCH  19  24
ENDBRANCH   1  18
TORSDOF 6
ENDMDL
MODEL 4
REMARK VINA RESULT:      -6.9      1.489      2.447
REMARK  6 active torsions:
REMARK  status: ('A' for Active; 'I' for Inactive)
REMARK    1  A    between atoms: C_2  and  C_3 
REMARK    2  A    between atoms: C_3  and  N_4 
REMARK    3  A    between atoms: C_3  and  C_15 
REMARK       I    between atoms: N_4  and  C_5 
REMARK    4  A    between atoms: C_5  and  C_6 
REMARK    5  A    between atoms: C_6  and  C_7 
REMARK    6  A    between atoms: C_16  and  O_17 
ROOT
HETATM    1  C   UNL     1      -6.252   2.429 -32.875  1.00  0.00     0.128 C 
ENDROOT
BRANCH   1   2
HETATM    2  C   UNL     1      -6.573   2.553 -31.338  1.00  0.00    -0.026 C 
HETATM    3  C   UNL     1      -7.818   3.454 -31.150  1.00  0.00     0.016 C 
HETATM    4  C   UNL     1      -5.416   3.161 -30.522  1.00  0.00     0.016 C 
HETATM    5  C   UNL     1      -6.915   1.174 -30.734  1.00  0.00     0.016 C 
ENDBRANCH   1   2
BRANCH   1   6
HETATM    6  N   UNL     1      -5.120   3.288 -33.253  1.00  0.00    -0.351 N 
HETATM    7  C   UNL     1      -5.279   4.458 -33.963  1.00  0.00     0.222 C 
HETATM    8  O   UNL     1      -6.369   4.943 -34.251  1.00  0.00    -0.273 OA
HETATM    9  H   UNL     1      -4.188   2.943 -33.080  1.00  0.00     0.163 HD
BRANCH   7  10
HETATM   10  C   UNL     1      -3.977   5.143 -34.342  1.00  0.00     0.142 C 
BRANCH  10  11
HETATM   11  C   UNL     1      -3.026   5.350 -33.190  1.00  0.00    -0.032 A 
HETATM   12  C   UNL     1      -1.798   4.693 -33.117  1.00  0.00     0.126 A 
HETATM   13  N   UNL     1      -0.937   4.806 -32.078  1.00  0.00    -0.248 NA
HETATM   14  C   UNL     1      -1.325   5.594 -31.059  1.00  0.00     0.125 A 
HETATM   15 CL   UNL     1      -0.210   5.692 -29.760  1.00  0.00    -0.063 Cl
HETATM   16  C   UNL     1      -2.526   6.279 -31.015  1.00  0.00     0.045 A 
HETATM   17  C   UNL     1      -3.390   6.149 -32.100  1.00  0.00     0.012 A 
ENDBRANCH  10  11
ENDBRANCH   7  10
ENDBRANCH   1   6
BRANCH   1  18
HETATM   18  C   UNL     1      -6.019   1.000 -33.379  1.00  0.00    -0.001 A 
HETATM   19  C   UNL     1      -4.814   0.316 -33.092  1.00  0.00     0.076 A 
HETATM   20  C   UNL     1      -4.625  -0.992 -33.555  1.00  0.00     0.037 A 
HETATM   21  C   UNL     1      -5.610  -1.629 -34.310  1.00  0.00     0.003 A 
HETATM   22  C   UNL     1      -6.793  -0.965 -34.611  1.00  0.00     0.001 A 
HETATM   23  C   UNL     1      -6.995   0.335 -34.149  1.00  0.00     0.012 A 
BRANCH  19  24
HETATM   24  O   UNL     1      -3.887   1.007 -32.357  1.00  0.00    -0.355 OA
HETATM   25  C   UNL     1      -3.234   0.319 -31.299  1.00  0.00     0.210 C 
ENDBRANCH  19  24
ENDBRANCH   1  18
TORSDOF 6
ENDMDL
MODEL 5
REMARK VINA RESULT:      -6.8      5.019      7.243
REMARK  6 active torsions:
REMARK  status: ('A' for Active; 'I' for Inactive)
REMARK    1  A    between atoms: C_2  and  C_3 
REMARK    2  A    between atoms: C_3  and  N_4 
REMARK    3  A    between atoms: C_3  and  C_15 
REMARK       I    between atoms: N_4  and  C_5 
REMARK    4  A    between atoms: C_5  and  C_6 
REMARK    5  A    between atoms: C_6  and  C_7 
REMARK    6  A    between atoms: C_16  and  O_17 
ROOT
HETATM    1  C   UNL     1     -10.558   2.027 -33.701  1.00  0.00     0.128 C 
ENDROOT
BRANCH   1   2
HETATM    2  C   UNL     1     -12.048   1.693 -34.088  1.00  0.00    -0.026 C 
HETATM    3  C   UNL     1     -12.392   0.266 -33.598  1.00  0.00     0.016 C 
HETATM    4  C   UNL     1     -12.308   1.752 -35.606  1.00  0.00     0.016 C 
HETATM    5  C   UNL     1     -13.029   2.661 -33.394  1.00  0.00     0.016 C 
ENDBRANCH   1   2
BRANCH   1   6
HETATM    6  N   UNL     1      -9.610   1.353 -34.600  1.00  0.00    -0.351 N 
HETATM    7  C   UNL     1      -8.641   0.486 -34.144  1.00  0.00     0.222 C 
HETATM    8  O   UNL     1      -8.545   0.116 -32.978  1.00  0.00    -0.273 OA
HETATM    9  H   UNL     1      -9.603   1.628 -35.570  1.00  0.00     0.163 HD
BRANCH   7  10
HETATM   10  C   UNL     1      -7.698  -0.022 -35.222  1.00  0.00     0.142 C 
BRANCH  10  11
HETATM   11  C   UNL     1      -6.700  -1.046 -34.740  1.00  0.00    -0.032 A 
HETATM   12  C   UNL     1      -5.517  -0.682 -34.098  1.00  0.00     0.126 A 
HETATM   13  N   UNL     1      -4.569  -1.561 -33.697  1.00  0.00    -0.248 NA
HETATM   14  C   UNL     1      -4.801  -2.859 -33.964  1.00  0.00     0.125 A 
HETATM   15 CL   UNL     1      -3.565  -3.932 -33.452  1.00  0.00    -0.063 Cl
HETATM   16  C   UNL     1      -5.930  -3.333 -34.608  1.00  0.00     0.045 A 
HETATM   17  C   UNL     1      -6.892  -2.407 -35.005  1.00  0.00     0.012 A 
ENDBRANCH  10  11
ENDBRANCH   7  10
ENDBRANCH   1   6
BRANCH   1  18
HETATM   18  C   UNL     1     -10.227   3.522 -33.613  1.00  0.00    -0.001 A 
HETATM   19  C   UNL     1      -9.955   4.133 -32.367  1.00  0.00     0.076 A 
HETATM   20  C   UNL     1      -9.647   5.498 -32.309  1.00  0.00     0.037 A 
HETATM   21  C   UNL     1      -9.618   6.270 -33.471  1.00  0.00     0.003 A 
HETATM   22  C   UNL     1      -9.896   5.686 -34.700  1.00  0.00     0.001 A 
HETATM   23  C   UNL     1     -10.196   4.326 -34.770  1.00  0.00     0.012 A 
BRANCH  19  24
HETATM   24  O   UNL     1     -10.014   3.317 -31.267  1.00  0.00    -0.355 OA
HETATM   25  C   UNL     1      -8.947   3.387 -30.332  1.00  0.00     0.210 C 
ENDBRANCH  19  24
ENDBRANCH   1  18
TORSDOF 6
ENDMDL
MODEL 6
REMARK VINA RESULT:      -6.7      1.842      2.595
REMARK  6 active torsions:
REMARK  status: ('A' for Active; 'I' for Inactive)
REMARK    1  A    between atoms: C_2  and  C_3 
REMARK    2  A    between atoms: C_3  and  N_4 
REMARK    3  A    between atoms: C_3  and  C_15 
REMARK       I    between atoms: N_4  and  C_5 
REMARK    4  A    between atoms: C_5  and  C_6 
REMARK    5  A    between atoms: C_6  and  C_7 
REMARK    6  A    between atoms: C_16  and  O_17 
ROOT
HETATM    1  C   UNL     1      -5.085   3.777 -33.194  1.00  0.00     0.128 C 
ENDROOT
BRANCH   1   2
HETATM    2  C   UNL     1      -6.017   4.671 -32.292  1.00  0.00    -0.026 C 
HETATM    3  C   UNL     1      -5.140   5.519 -31.340  1.00  0.00     0.016 C 
HETATM    4  C   UNL     1      -6.998   3.850 -31.432  1.00  0.00     0.016 C 
HETATM    5  C   UNL     1      -6.838   5.655 -33.152  1.00  0.00     0.016 C 
ENDBRANCH   1   2
BRANCH   1   6
HETATM    6  N   UNL     1      -3.769   4.403 -33.386  1.00  0.00    -0.351 N 
HETATM    7  C   UNL     1      -3.420   5.060 -34.545  1.00  0.00     0.222 C 
HETATM    8  O   UNL     1      -4.195   5.275 -35.472  1.00  0.00    -0.273 OA
HETATM    9  H   UNL     1      -3.064   4.244 -32.683  1.00  0.00     0.163 HD
BRANCH   7  10
HETATM   10  C   UNL     1      -1.980   5.545 -34.582  1.00  0.00     0.142 C 
BRANCH  10  11
HETATM   11  C   UNL     1      -1.448   6.010 -33.249  1.00  0.00    -0.032 A 
HETATM   12  C   UNL     1      -1.606   7.323 -32.807  1.00  0.00     0.126 A 
HETATM   13  N   UNL     1      -1.099   7.799 -31.645  1.00  0.00    -0.248 NA
HETATM   14  C   UNL     1      -0.389   6.933 -30.899  1.00  0.00     0.125 A 
HETATM   15 CL   UNL     1       0.245   7.585 -29.446  1.00  0.00    -0.063 Cl
HETATM   16  C   UNL     1      -0.155   5.614 -31.246  1.00  0.00     0.045 A 
HETATM   17  C   UNL     1      -0.692   5.150 -32.445  1.00  0.00     0.012 A 
ENDBRANCH  10  11
ENDBRANCH   7  10
ENDBRANCH   1   6
BRANCH   1  18
HETATM   18  C   UNL     1      -4.914   2.328 -32.721  1.00  0.00    -0.001 A 
HETATM   19  C   UNL     1      -5.657   1.279 -33.312  1.00  0.00     0.076 A 
HETATM   20  C   UNL     1      -5.480  -0.038 -32.870  1.00  0.00     0.037 A 
HETATM   21  C   UNL     1      -4.585  -0.329 -31.841  1.00  0.00     0.003 A 
HETATM   22  C   UNL     1      -3.858   0.693 -31.242  1.00  0.00     0.001 A 
HETATM   23  C   UNL     1      -4.020   2.007 -31.679  1.00  0.00     0.012 A 
BRANCH  19  24
HETATM   24  O   UNL     1      -6.527   1.640 -34.307  1.00  0.00    -0.355 OA
HETATM   25  C   UNL     1      -7.095   0.605 -35.098  1.00  0.00     0.210 C 
ENDBRANCH  19  24
ENDBRANCH   1  18
TORSDOF 6
ENDMDL
MODEL 7
REMARK VINA RESULT:      -6.6      3.325      6.731
REMARK  6 active torsions:
REMARK  status: ('A' for Active; 'I' for Inactive)
REMARK    1  A    between atoms: C_2  and  C_3 
REMARK    2  A    between atoms: C_3  and  N_4 
REMARK    3  A    between atoms: C_3  and  C_15 
REMARK       I    between atoms: N_4  and  C_5 
REMARK    4  A    between atoms: C_5  and  C_6 
REMARK    5  A    between atoms: C_6  and  C_7 
REMARK    6  A    between atoms: C_16  and  O_17 
ROOT
HETATM    1  C   UNL     1      -4.779   4.357 -31.505  1.00  0.00     0.128 C 
ENDROOT
BRANCH   1   2
HETATM    2  C   UNL     1      -5.273   5.634 -30.725  1.00  0.00    -0.026 C 
HETATM    3  C   UNL     1      -6.677   6.032 -31.241  1.00  0.00     0.016 C 
HETATM    4  C   UNL     1      -4.340   6.848 -30.895  1.00  0.00     0.016 C 
HETATM    5  C   UNL     1      -5.410   5.339 -29.216  1.00  0.00     0.016 C 
ENDBRANCH   1   2
BRANCH   1   6
HETATM    6  N   UNL     1      -5.908   3.497 -31.888  1.00  0.00    -0.351 N 
HETATM    7  C   UNL     1      -6.209   2.327 -31.228  1.00  0.00     0.222 C 
HETATM    8  O   UNL     1      -5.641   1.949 -30.207  1.00  0.00    -0.273 OA
HETATM    9  H   UNL     1      -6.404   3.722 -32.737  1.00  0.00     0.163 HD
BRANCH   7  10
HETATM   10  C   UNL     1      -7.348   1.533 -31.846  1.00  0.00     0.142 C 
BRANCH  10  11
HETATM   11  C   UNL     1      -6.903   0.398 -32.734  1.00  0.00    -0.032 A 
HETATM   12  C   UNL     1      -6.026  -0.590 -32.289  1.00  0.00     0.126 A 
HETATM   13  N   UNL     1      -5.558  -1.596 -33.065  1.00  0.00    -0.248 NA
HETATM   14  C   UNL     1      -5.968  -1.607 -34.346  1.00  0.00     0.125 A 
HETATM   15 CL   UNL     1      -5.337  -2.889 -35.294  1.00  0.00    -0.063 Cl
HETATM   16  C   UNL     1      -6.822  -0.670 -34.901  1.00  0.00     0.045 A 
HETATM   17  C   UNL     1      -7.293   0.351 -34.078  1.00  0.00     0.012 A 
ENDBRANCH  10  11
ENDBRANCH   7  10
ENDBRANCH   1   6
BRANCH   1  18
HETATM   18  C   UNL     1      -3.895   4.641 -32.725  1.00  0.00    -0.001 A 
HETATM   19  C   UNL     1      -2.486   4.554 -32.636  1.00  0.00     0.076 A 
HETATM   20  C   UNL     1      -1.697   4.809 -33.766  1.00  0.00     0.037 A 
HETATM   21  C   UNL     1      -2.286   5.162 -34.980  1.00  0.00     0.003 A 
HETATM   22  C   UNL     1      -3.667   5.264 -35.078  1.00  0.00     0.001 A 
HETATM   23  C   UNL     1      -4.463   5.005 -33.963  1.00  0.00     0.012 A 
BRANCH  19  24
HETATM   24  O   UNL     1      -1.977   4.215 -31.410  1.00  0.00    -0.355 OA
HETATM   25  C   UNL     1      -0.976   5.056 -30.853  1.00  0.00     0.210 C 
ENDBRANCH  19  24
ENDBRANCH   1  18
TORSDOF 6
ENDMDL
MODEL 8
REMARK VINA RESULT:      -6.6      4.082      6.309
REMARK  6 active torsions:
REMARK  status: ('A' for Active; 'I' for Inactive)
REMARK    1  A    between atoms: C_2  and  C_3 
REMARK    2  A    between atoms: C_3  and  N_4 
REMARK    3  A    between atoms: C_3  and  C_15 
REMARK       I    between atoms: N_4  and  C_5 
REMARK    4  A    between atoms: C_5  and  C_6 
REMARK    5  A    between atoms: C_6  and  C_7 
REMARK    6  A    between atoms: C_16  and  O_17 
ROOT
HETATM    1  C   UNL     1      -9.641   3.885 -32.976  1.00  0.00     0.128 C 
ENDROOT
BRANCH   1   2
HETATM    2  C   UNL     1     -10.069   4.327 -31.526  1.00  0.00    -0.026 C 
HETATM    3  C   UNL     1     -11.613   4.421 -31.459  1.00  0.00     0.016 C 
HETATM    4  C   UNL     1      -9.490   5.693 -31.112  1.00  0.00     0.016 C 
HETATM    5  C   UNL     1      -9.631   3.281 -30.479  1.00  0.00     0.016 C 
ENDBRANCH   1   2
BRANCH   1   6
HETATM    6  N   UNL     1      -8.343   3.194 -32.961  1.00  0.00    -0.351 N 
HETATM    7  C   UNL     1      -7.243   3.663 -33.643  1.00  0.00     0.222 C 
HETATM    8  O   UNL     1      -7.208   4.738 -34.233  1.00  0.00    -0.273 OA
HETATM    9  H   UNL     1      -8.299   2.286 -32.524  1.00  0.00     0.163 HD
BRANCH   7  10
HETATM   10  C   UNL     1      -6.031   2.748 -33.583  1.00  0.00     0.142 C 
BRANCH  10  11
HETATM   11  C   UNL     1      -6.342   1.290 -33.816  1.00  0.00    -0.032 A 
HETATM   12  C   UNL     1      -5.859   0.287 -32.977  1.00  0.00     0.126 A 
HETATM   13  N   UNL     1      -6.067  -1.036 -33.177  1.00  0.00    -0.248 NA
HETATM   14  C   UNL     1      -6.772  -1.375 -34.271  1.00  0.00     0.125 A 
HETATM   15 CL   UNL     1      -6.996  -3.061 -34.490  1.00  0.00    -0.063 Cl
HETATM   16  C   UNL     1      -7.286  -0.468 -35.181  1.00  0.00     0.045 A 
HETATM   17  C   UNL     1      -7.061   0.887 -34.948  1.00  0.00     0.012 A 
ENDBRANCH  10  11
ENDBRANCH   7  10
ENDBRANCH   1   6
BRANCH   1  18
HETATM   18  C   UNL     1     -10.676   3.045 -33.734  1.00  0.00    -0.001 A 
HETATM   19  C   UNL     1     -11.385   3.584 -34.832  1.00  0.00     0.076 A 
HETATM   20  C   UNL     1     -12.320   2.797 -35.516  1.00  0.00     0.037 A 
HETATM   21  C   UNL     1     -12.572   1.484 -35.117  1.00  0.00     0.003 A 
HETATM   22  C   UNL     1     -11.893   0.945 -34.032  1.00  0.00     0.001 A 
HETATM   23  C   UNL     1     -10.954   1.717 -33.348  1.00  0.00     0.012 A 
BRANCH  19  24
HETATM   24  O   UNL     1     -11.096   4.883 -35.160  1.00  0.00    -0.355 OA
HETATM   25  C   UNL     1     -12.102   5.862 -34.937  1.00  0.00     0.210 C 
ENDBRANCH  19  24
ENDBRANCH   1  18
TORSDOF 6
ENDMDL
MODEL 9
REMARK VINA RESULT:      -6.2     16.957     18.592
REMARK  6 active torsions:
REMARK  status: ('A' for Active; 'I' for Inactive)
REMARK    1  A    between atoms: C_2  and  C_3 
REMARK    2  A    between atoms: C_3  and  N_4 
REMARK    3  A    between atoms: C_3  and  C_15 
REMARK       I    between atoms: N_4  and  C_5 
REMARK    4  A    between atoms: C_5  and  C_6 
REMARK    5  A    between atoms: C_6  and  C_7 
REMARK    6  A    between atoms: C_16  and  O_17 
ROOT
HETATM    1  C   UNL     1      -7.317 -13.918 -38.771  1.00  0.00     0.128 C 
ENDROOT
BRANCH   1   2
HETATM    2  C   UNL     1      -6.078 -13.423 -39.608  1.00  0.00    -0.026 C 
HETATM    3  C   UNL     1      -5.572 -12.083 -39.023  1.00  0.00     0.016 C 
HETATM    4  C   UNL     1      -6.401 -13.201 -41.098  1.00  0.00     0.016 C 
HETATM    5  C   UNL     1      -4.912 -14.430 -39.514  1.00  0.00     0.016 C 
ENDBRANCH   1   2
BRANCH   1   6
HETATM    6  N   UNL     1      -7.280 -13.387 -37.400  1.00  0.00    -0.351 N 
HETATM    7  C   UNL     1      -7.007 -14.176 -36.305  1.00  0.00     0.222 C 
HETATM    8  O   UNL     1      -6.669 -15.353 -36.374  1.00  0.00    -0.273 OA
HETATM    9  H   UNL     1      -7.578 -12.434 -37.256  1.00  0.00     0.163 HD
BRANCH   7  10
HETATM   10  C   UNL     1      -7.120 -13.457 -34.971  1.00  0.00     0.142 C 
BRANCH  10  11
HETATM   11  C   UNL     1      -6.677 -14.276 -33.785  1.00  0.00    -0.032 A 
HETATM   12  C   UNL     1      -7.414 -15.364 -33.319  1.00  0.00     0.126 A 
HETATM   13  N   UNL     1      -7.083 -16.094 -32.228  1.00  0.00    -0.248 NA
HETATM   14  C   UNL     1      -5.979 -15.712 -31.561  1.00  0.00     0.125 A 
HETATM   15 CL   UNL     1      -5.611 -16.656 -30.178  1.00  0.00    -0.063 Cl
HETATM   16  C   UNL     1      -5.182 -14.640 -31.921  1.00  0.00     0.045 A 
HETATM   17  C   UNL     1      -5.542 -13.910 -33.051  1.00  0.00     0.012 A 
ENDBRANCH  10  11
ENDBRANCH   7  10
ENDBRANCH   1   6
BRANCH   1  18
HETATM   18  C   UNL     1      -8.685 -13.641 -39.406  1.00  0.00    -0.001 A 
HETATM   19  C   UNL     1      -9.480 -14.698 -39.907  1.00  0.00     0.076 A 
HETATM   20  C   UNL     1     -10.731 -14.423 -40.476  1.00  0.00     0.037 A 
HETATM   21  C   UNL     1     -11.199 -13.113 -40.566  1.00  0.00     0.003 A 
HETATM   22  C   UNL     1     -10.424 -12.063 -40.089  1.00  0.00     0.001 A 
HETATM   23  C   UNL     1      -9.180 -12.325 -39.514  1.00  0.00     0.012 A 
BRANCH  19  24
HETATM   24  O   UNL     1      -8.952 -15.957 -39.797  1.00  0.00    -0.355 OA
HETATM   25  C   UNL     1      -9.846 -17.031 -39.539  1.00  0.00     0.210 C 
ENDBRANCH  19  24
ENDBRANCH   1  18
TORSDOF 6
ENDMDL
MODEL 10
REMARK VINA RESULT:      -6.2     17.086     19.315
REMARK  6 active torsions:
REMARK  status: ('A' for Active; 'I' for Inactive)
REMARK    1  A    between atoms: C_2  and  C_3 
REMARK    2  A    between atoms: C_3  and  N_4 
REMARK    3  A    between atoms: C_3  and  C_15 
REMARK       I    between atoms: N_4  and  C_5 
REMARK    4  A    between atoms: C_5  and  C_6 
REMARK    5  A    between atoms: C_6  and  C_7 
REMARK    6  A    between atoms: C_16  and  O_17 
ROOT
HETATM    1  C   UNL     1      -3.053 -14.434 -39.006  1.00  0.00     0.128 C 
ENDROOT
BRANCH   1   2
HETATM    2  C   UNL     1      -1.713 -13.621 -38.851  1.00  0.00    -0.026 C 
HETATM    3  C   UNL     1      -0.800 -14.336 -37.826  1.00  0.00     0.016 C 
HETATM    4  C   UNL     1      -1.934 -12.175 -38.366  1.00  0.00     0.016 C 
HETATM    5  C   UNL     1      -0.942 -13.568 -40.187  1.00  0.00     0.016 C 
ENDBRANCH   1   2
BRANCH   1   6
HETATM    6  N   UNL     1      -4.142 -13.820 -38.232  1.00  0.00    -0.351 N 
HETATM    7  C   UNL     1      -5.006 -14.556 -37.452  1.00  0.00     0.222 C 
HETATM    8  O   UNL     1      -4.889 -15.759 -37.245  1.00  0.00    -0.273 OA
HETATM    9  H   UNL     1      -4.325 -12.839 -38.373  1.00  0.00     0.163 HD
BRANCH   7  10
HETATM   10  C   UNL     1      -6.123 -13.744 -36.818  1.00  0.00     0.142 C 
BRANCH  10  11
HETATM   11  C   UNL     1      -7.354 -13.605 -37.678  1.00  0.00    -0.032 A 
HETATM   12  C   UNL     1      -8.250 -14.657 -37.865  1.00  0.00     0.126 A 
HETATM   13  N   UNL     1      -9.337 -14.596 -38.669  1.00  0.00    -0.248 NA
HETATM   14  C   UNL     1      -9.531 -13.441 -39.331  1.00  0.00     0.125 A 
HETATM   15 CL   UNL     1     -10.910 -13.416 -40.349  1.00  0.00    -0.063 Cl
HETATM   16  C   UNL     1      -8.700 -12.338 -39.236  1.00  0.00     0.045 A 
HETATM   17  C   UNL     1      -7.592 -12.427 -38.397  1.00  0.00     0.012 A 
ENDBRANCH  10  11
ENDBRANCH   7  10
ENDBRANCH   1   6
BRANCH   1  18
HETATM   18  C   UNL     1      -3.505 -14.675 -40.451  1.00  0.00    -0.001 A 
HETATM   19  C   UNL     1      -3.142 -15.857 -41.138  1.00  0.00     0.076 A 
HETATM   20  C   UNL     1      -3.573 -16.061 -42.455  1.00  0.00     0.037 A 
HETATM   21  C   UNL     1      -4.349 -15.103 -43.106  1.00  0.00     0.003 A 
HETATM   22  C   UNL     1      -4.703 -13.931 -42.448  1.00  0.00     0.001 A 
HETATM   23  C   UNL     1      -4.287 -13.721 -41.134  1.00  0.00     0.012 A 
BRANCH  19  24
HETATM   24  O   UNL     1      -2.367 -16.747 -40.442  1.00  0.00    -0.355 OA
HETATM   25  C   UNL     1      -1.134 -17.148 -41.022  1.00  0.00     0.210 C 
ENDBRANCH  19  24
ENDBRANCH   1  18
TORSDOF 6
ENDMDL
