MODEL 1
REMARK VINA RESULT:     -10.0      0.000      0.000
REMARK  8 active torsions:
REMARK  status: ('A' for Active; 'I' for Inactive)
REMARK    1  A    between atoms: C_6  and  N_7 
REMARK       I    between atoms: N_7  and  C_8 
REMARK    2  A    between atoms: C_8  and  C_9 
REMARK    3  A    between atoms: C_9  and  S_10 
REMARK    4  A    between atoms: S_10  and  C_11 
REMARK    5  A    between atoms: N_12  and  C_13 
REMARK    6  A    between atoms: C_13  and  C_14 
REMARK    7  A    between atoms: C_14  and  C_15 
REMARK       I    between atoms: C_15  and  N_16 
REMARK    8  A    between atoms: N_16  and  C_17 
ROOT
HETATM    1  C   UNL     1      -6.477   2.848 -31.433  1.00  0.00     0.172 A 
HETATM    2  N   UNL     1      -6.560   3.749 -32.479  1.00  0.00    -0.292 N 
HETATM    3  C   UNL     1      -7.609   3.651 -33.398  1.00  0.00     0.262 A 
HETATM    4  O   UNL     1      -7.819   4.472 -34.288  1.00  0.00    -0.267 OA
HETATM    5  C   UNL     1      -8.512   2.501 -33.260  1.00  0.00     0.061 A 
HETATM    6  C   UNL     1      -8.306   1.647 -32.181  1.00  0.00     0.075 A 
HETATM    7  C   UNL     1      -9.526   2.262 -34.194  1.00  0.00     0.019 A 
HETATM    8  C   UNL     1     -10.338   1.138 -34.055  1.00  0.00     0.001 A 
HETATM    9  C   UNL     1     -10.127   0.260 -32.994  1.00  0.00     0.002 A 
HETATM   10  C   UNL     1      -9.113   0.514 -32.064  1.00  0.00     0.032 A 
HETATM   11  N   UNL     1      -7.305   1.876 -31.229  1.00  0.00    -0.224 NA
ENDROOT
BRANCH   1  12
HETATM   12  S   UNL     1      -5.181   2.988 -30.272  1.00  0.00    -0.082 SA
BRANCH  12  13
HETATM   13  C   UNL     1      -3.849   2.231 -31.221  1.00  0.00     0.185 C 
BRANCH  13  14
HETATM   14  C   UNL     1      -4.076   0.758 -31.509  1.00  0.00     0.231 C 
HETATM   15  N   UNL     1      -4.094   0.446 -32.857  1.00  0.00    -0.326 N 
HETATM   16  H   UNL     1      -3.613   1.094 -33.481  1.00  0.00     0.169 HD
HETATM   17  O   UNL     1      -4.327  -0.018 -30.590  1.00  0.00    -0.272 OA
BRANCH  15  18
HETATM   18  C   UNL     1      -4.663  -0.697 -33.457  1.00  0.00     0.036 A 
HETATM   19  C   UNL     1      -4.028  -1.938 -33.531  1.00  0.00     0.053 A 
HETATM   20  C   UNL     1      -4.699  -3.048 -34.063  1.00  0.00     0.042 A 
HETATM   21  C   UNL     1      -6.014  -2.938 -34.537  1.00  0.00    -0.040 A 
HETATM   22 CL   UNL     1      -3.860  -4.561 -34.086  1.00  0.00    -0.084 Cl
HETATM   23  C   UNL     1      -6.773  -4.121 -35.068  1.00  0.00     0.050 C 
HETATM   24  C   UNL     1      -6.641  -1.689 -34.468  1.00  0.00     0.011 A 
HETATM   25  C   UNL     1      -5.972  -0.583 -33.935  1.00  0.00     0.030 A 
ENDBRANCH  15  18
ENDBRANCH  13  14
ENDBRANCH  12  13
ENDBRANCH   1  12
BRANCH   2  26
HETATM   26  C   UNL     1      -5.640   4.879 -32.698  1.00  0.00     0.144 C 
BRANCH  26  27
HETATM   27  C   UNL     1      -4.530   4.532 -33.693  1.00  0.00     0.123 C 
BRANCH  27  28
HETATM   28  C   UNL     1      -3.621   5.723 -33.892  1.00  0.00     0.219 C 
HETATM   29  N   UNL     1      -3.165   6.275 -32.715  1.00  0.00    -0.356 N 
HETATM   30  H   UNL     1      -3.373   5.812 -31.839  1.00  0.00     0.162 HD
HETATM   31  O   UNL     1      -3.304   6.135 -35.004  1.00  0.00    -0.274 OA
BRANCH  29  32
HETATM   32  C   UNL     1      -2.298   7.448 -32.694  1.00  0.00     0.084 C 
HETATM   33  C   UNL     1      -2.519   8.269 -31.416  1.00  0.00     0.025 C 
HETATM   34  C   UNL     1      -1.912   7.618 -30.173  1.00  0.00     0.002 C 
HETATM   35  C   UNL     1      -0.441   7.276 -30.379  1.00  0.00     0.000 C 
HETATM   36  C   UNL     1      -0.236   6.407 -31.616  1.00  0.00     0.002 C 
HETATM   37  C   UNL     1      -0.824   7.061 -32.865  1.00  0.00     0.025 C 
ENDBRANCH  29  32
ENDBRANCH  27  28
ENDBRANCH  26  27
ENDBRANCH   2  26
TORSDOF 8
ENDMDL
MODEL 2
REMARK VINA RESULT:      -9.7      1.468      6.264
REMARK  8 active torsions:
REMARK  status: ('A' for Active; 'I' for Inactive)
REMARK    1  A    between atoms: C_6  and  N_7 
REMARK       I    between atoms: N_7  and  C_8 
REMARK    2  A    between atoms: C_8  and  C_9 
REMARK    3  A    between atoms: C_9  and  S_10 
REMARK    4  A    between atoms: S_10  and  C_11 
REMARK    5  A    between atoms: N_12  and  C_13 
REMARK    6  A    between atoms: C_13  and  C_14 
REMARK    7  A    between atoms: C_14  and  C_15 
REMARK       I    between atoms: C_15  and  N_16 
REMARK    8  A    between atoms: N_16  and  C_17 
ROOT
HETATM    1  C   UNL     1      -4.173   3.756 -32.113  1.00  0.00     0.172 A 
HETATM    2  N   UNL     1      -4.573   4.253 -33.340  1.00  0.00    -0.292 N 
HETATM    3  C   UNL     1      -3.763   5.170 -34.016  1.00  0.00     0.262 A 
HETATM    4  O   UNL     1      -3.988   5.576 -35.153  1.00  0.00    -0.267 OA
HETATM    5  C   UNL     1      -2.566   5.647 -33.311  1.00  0.00     0.061 A 
HETATM    6  C   UNL     1      -2.287   5.092 -32.067  1.00  0.00     0.075 A 
HETATM    7  C   UNL     1      -1.752   6.643 -33.863  1.00  0.00     0.019 A 
HETATM    8  C   UNL     1      -0.647   7.102 -33.148  1.00  0.00     0.001 A 
HETATM    9  C   UNL     1      -0.369   6.573 -31.889  1.00  0.00     0.002 A 
HETATM   10  C   UNL     1      -1.189   5.574 -31.352  1.00  0.00     0.032 A 
HETATM   11  N   UNL     1      -3.082   4.086 -31.503  1.00  0.00    -0.224 NA
ENDROOT
BRANCH   1  12
HETATM   12  S   UNL     1      -5.175   2.591 -31.284  1.00  0.00    -0.082 SA
BRANCH  12  13
HETATM   13  C   UNL     1      -3.918   1.373 -30.852  1.00  0.00     0.185 C 
BRANCH  13  14
HETATM   14  C   UNL     1      -3.722   0.307 -31.914  1.00  0.00     0.231 C 
HETATM   15  N   UNL     1      -4.858   0.043 -32.659  1.00  0.00    -0.326 N 
HETATM   16  H   UNL     1      -5.559   0.783 -32.700  1.00  0.00     0.169 HD
HETATM   17  O   UNL     1      -2.662  -0.311 -31.980  1.00  0.00    -0.272 OA
BRANCH  15  18
HETATM   18  C   UNL     1      -5.130  -1.121 -33.411  1.00  0.00     0.036 A 
HETATM   19  C   UNL     1      -4.286  -2.231 -33.463  1.00  0.00     0.053 A 
HETATM   20  C   UNL     1      -4.671  -3.384 -34.160  1.00  0.00     0.042 A 
HETATM   21  C   UNL     1      -5.904  -3.447 -34.826  1.00  0.00    -0.040 A 
HETATM   22 CL   UNL     1      -3.589  -4.734 -34.147  1.00  0.00    -0.084 Cl
HETATM   23  C   UNL     1      -6.363  -4.686 -35.541  1.00  0.00     0.050 C 
HETATM   24  C   UNL     1      -6.741  -2.326 -34.777  1.00  0.00     0.011 A 
HETATM   25  C   UNL     1      -6.356  -1.178 -34.079  1.00  0.00     0.030 A 
ENDBRANCH  15  18
ENDBRANCH  13  14
ENDBRANCH  12  13
ENDBRANCH   1  12
BRANCH   2  26
HETATM   26  C   UNL     1      -5.798   3.855 -34.057  1.00  0.00     0.144 C 
BRANCH  26  27
HETATM   27  C   UNL     1      -6.895   4.918 -33.956  1.00  0.00     0.123 C 
BRANCH  27  28
HETATM   28  C   UNL     1      -7.901   4.527 -32.898  1.00  0.00     0.219 C 
HETATM   29  N   UNL     1      -8.601   3.379 -33.197  1.00  0.00    -0.356 N 
HETATM   30  H   UNL     1      -8.341   2.840 -34.013  1.00  0.00     0.162 HD
HETATM   31  O   UNL     1      -8.052   5.166 -31.861  1.00  0.00    -0.274 OA
BRANCH  29  32
HETATM   32  C   UNL     1      -9.636   2.851 -32.314  1.00  0.00     0.084 C 
HETATM   33  C   UNL     1     -10.774   2.215 -33.125  1.00  0.00     0.025 C 
HETATM   34  C   UNL     1     -10.395   0.862 -33.729  1.00  0.00     0.002 C 
HETATM   35  C   UNL     1      -9.850  -0.092 -32.673  1.00  0.00     0.000 C 
HETATM   36  C   UNL     1      -8.678   0.523 -31.915  1.00  0.00     0.002 C 
HETATM   37  C   UNL     1      -9.055   1.866 -31.292  1.00  0.00     0.025 C 
ENDBRANCH  29  32
ENDBRANCH  27  28
ENDBRANCH  26  27
ENDBRANCH   2  26
TORSDOF 8
ENDMDL
MODEL 3
REMARK VINA RESULT:      -9.5      3.519      6.737
REMARK  8 active torsions:
REMARK  status: ('A' for Active; 'I' for Inactive)
REMARK    1  A    between atoms: C_6  and  N_7 
REMARK       I    between atoms: N_7  and  C_8 
REMARK    2  A    between atoms: C_8  and  C_9 
REMARK    3  A    between atoms: C_9  and  S_10 
REMARK    4  A    between atoms: S_10  and  C_11 
REMARK    5  A    between atoms: N_12  and  C_13 
REMARK    6  A    between atoms: C_13  and  C_14 
REMARK    7  A    between atoms: C_14  and  C_15 
REMARK       I    between atoms: C_15  and  N_16 
REMARK    8  A    between atoms: N_16  and  C_17 
ROOT
HETATM    1  C   UNL     1      -6.171  -0.438 -32.897  1.00  0.00     0.172 A 
HETATM    2  N   UNL     1      -5.002  -0.679 -32.198  1.00  0.00    -0.292 N 
HETATM    3  C   UNL     1      -4.236  -1.809 -32.494  1.00  0.00     0.262 A 
HETATM    4  O   UNL     1      -3.134  -2.039 -32.001  1.00  0.00    -0.267 OA
HETATM    5  C   UNL     1      -4.792  -2.754 -33.472  1.00  0.00     0.061 A 
HETATM    6  C   UNL     1      -5.992  -2.414 -34.086  1.00  0.00     0.075 A 
HETATM    7  C   UNL     1      -4.148  -3.964 -33.755  1.00  0.00     0.019 A 
HETATM    8  C   UNL     1      -4.725  -4.856 -34.656  1.00  0.00     0.001 A 
HETATM    9  C   UNL     1      -5.940  -4.539 -35.260  1.00  0.00     0.002 A 
HETATM   10  C   UNL     1      -6.571  -3.324 -34.972  1.00  0.00     0.032 A 
HETATM   11  N   UNL     1      -6.646  -1.203 -33.826  1.00  0.00    -0.224 NA
ENDROOT
BRANCH   1  12
HETATM   12  S   UNL     1      -7.114   0.988 -32.542  1.00  0.00    -0.082 SA
BRANCH  12  13
HETATM   13  C   UNL     1      -8.326   0.880 -33.871  1.00  0.00     0.185 C 
BRANCH  13  14
HETATM   14  C   UNL     1      -9.729   0.569 -33.383  1.00  0.00     0.231 C 
HETATM   15  N   UNL     1     -10.721   1.270 -34.044  1.00  0.00    -0.326 N 
HETATM   16  H   UNL     1     -10.493   1.614 -34.977  1.00  0.00     0.169 HD
HETATM   17  O   UNL     1      -9.895  -0.162 -32.409  1.00  0.00    -0.272 OA
BRANCH  15  18
HETATM   18  C   UNL     1     -12.033   1.520 -33.588  1.00  0.00     0.036 A 
HETATM   19  C   UNL     1     -12.434   2.708 -32.974  1.00  0.00     0.053 A 
HETATM   20  C   UNL     1     -13.778   2.913 -32.632  1.00  0.00     0.042 A 
HETATM   21  C   UNL     1     -14.745   1.931 -32.889  1.00  0.00    -0.040 A 
HETATM   22 CL   UNL     1     -14.204   4.426 -31.910  1.00  0.00    -0.084 Cl
HETATM   23  C   UNL     1     -16.200   2.142 -32.576  1.00  0.00     0.050 C 
HETATM   24  C   UNL     1     -14.335   0.738 -33.496  1.00  0.00     0.011 A 
HETATM   25  C   UNL     1     -12.995   0.537 -33.839  1.00  0.00     0.030 A 
ENDBRANCH  15  18
ENDBRANCH  13  14
ENDBRANCH  12  13
ENDBRANCH   1  12
BRANCH   2  26
HETATM   26  C   UNL     1      -4.438   0.205 -31.162  1.00  0.00     0.144 C 
BRANCH  26  27
HETATM   27  C   UNL     1      -3.316   1.091 -31.712  1.00  0.00     0.123 C 
BRANCH  27  28
HETATM   28  C   UNL     1      -3.716   2.546 -31.629  1.00  0.00     0.219 C 
HETATM   29  N   UNL     1      -3.196   3.321 -32.642  1.00  0.00    -0.356 N 
HETATM   30  H   UNL     1      -2.691   2.875 -33.397  1.00  0.00     0.162 HD
HETATM   31  O   UNL     1      -4.455   2.979 -30.751  1.00  0.00    -0.274 OA
BRANCH  29  32
HETATM   32  C   UNL     1      -3.443   4.757 -32.723  1.00  0.00     0.084 C 
HETATM   33  C   UNL     1      -2.326   5.545 -32.026  1.00  0.00     0.025 C 
HETATM   34  C   UNL     1      -1.025   5.576 -32.828  1.00  0.00     0.002 C 
HETATM   35  C   UNL     1      -1.255   6.062 -34.254  1.00  0.00     0.000 C 
HETATM   36  C   UNL     1      -2.322   5.234 -34.962  1.00  0.00     0.002 C 
HETATM   37  C   UNL     1      -3.631   5.214 -34.176  1.00  0.00     0.025 C 
ENDBRANCH  29  32
ENDBRANCH  27  28
ENDBRANCH  26  27
ENDBRANCH   2  26
TORSDOF 8
ENDMDL
MODEL 4
REMARK VINA RESULT:      -9.4      1.187      1.505
REMARK  8 active torsions:
REMARK  status: ('A' for Active; 'I' for Inactive)
REMARK    1  A    between atoms: C_6  and  N_7 
REMARK       I    between atoms: N_7  and  C_8 
REMARK    2  A    between atoms: C_8  and  C_9 
REMARK    3  A    between atoms: C_9  and  S_10 
REMARK    4  A    between atoms: S_10  and  C_11 
REMARK    5  A    between atoms: N_12  and  C_13 
REMARK    6  A    between atoms: C_13  and  C_14 
REMARK    7  A    between atoms: C_14  and  C_15 
REMARK       I    between atoms: C_15  and  N_16 
REMARK    8  A    between atoms: N_16  and  C_17 
ROOT
HETATM    1  C   UNL     1      -6.618   2.788 -31.388  1.00  0.00     0.172 A 
HETATM    2  N   UNL     1      -6.687   3.736 -32.392  1.00  0.00    -0.292 N 
HETATM    3  C   UNL     1      -7.713   3.672 -33.339  1.00  0.00     0.262 A 
HETATM    4  O   UNL     1      -7.912   4.531 -34.194  1.00  0.00    -0.267 OA
HETATM    5  C   UNL     1      -8.607   2.507 -33.275  1.00  0.00     0.061 A 
HETATM    6  C   UNL     1      -8.417   1.606 -32.233  1.00  0.00     0.075 A 
HETATM    7  C   UNL     1      -9.597   2.302 -34.243  1.00  0.00     0.019 A 
HETATM    8  C   UNL     1     -10.400   1.166 -34.175  1.00  0.00     0.001 A 
HETATM    9  C   UNL     1     -10.204   0.241 -33.151  1.00  0.00     0.002 A 
HETATM   10  C   UNL     1      -9.214   0.461 -32.188  1.00  0.00     0.032 A 
HETATM   11  N   UNL     1      -7.440   1.799 -31.248  1.00  0.00    -0.224 NA
ENDROOT
BRANCH   1  12
HETATM   12  S   UNL     1      -5.350   2.886 -30.191  1.00  0.00    -0.082 SA
BRANCH  12  13
HETATM   13  C   UNL     1      -3.950   2.368 -31.200  1.00  0.00     0.185 C 
BRANCH  13  14
HETATM   14  C   UNL     1      -4.001   0.903 -31.594  1.00  0.00     0.231 C 
HETATM   15  N   UNL     1      -4.299   0.692 -32.929  1.00  0.00    -0.326 N 
HETATM   16  H   UNL     1      -4.095   1.460 -33.569  1.00  0.00     0.169 HD
HETATM   17  O   UNL     1      -3.892   0.029 -30.737  1.00  0.00    -0.272 OA
BRANCH  15  18
HETATM   18  C   UNL     1      -4.807  -0.490 -33.509  1.00  0.00     0.036 A 
HETATM   19  C   UNL     1      -4.122  -1.706 -33.532  1.00  0.00     0.053 A 
HETATM   20  C   UNL     1      -4.734  -2.857 -34.047  1.00  0.00     0.042 A 
HETATM   21  C   UNL     1      -6.039  -2.813 -34.557  1.00  0.00    -0.040 A 
HETATM   22 CL   UNL     1      -3.837  -4.335 -34.006  1.00  0.00    -0.084 Cl
HETATM   23  C   UNL     1      -6.737  -4.039 -35.072  1.00  0.00     0.050 C 
HETATM   24  C   UNL     1      -6.717  -1.588 -34.540  1.00  0.00     0.011 A 
HETATM   25  C   UNL     1      -6.106  -0.442 -34.023  1.00  0.00     0.030 A 
ENDBRANCH  15  18
ENDBRANCH  13  14
ENDBRANCH  12  13
ENDBRANCH   1  12
BRANCH   2  26
HETATM   26  C   UNL     1      -5.775   4.885 -32.537  1.00  0.00     0.144 C 
BRANCH  26  27
HETATM   27  C   UNL     1      -6.307   6.134 -31.830  1.00  0.00     0.123 C 
BRANCH  27  28
HETATM   28  C   UNL     1      -5.192   6.812 -31.066  1.00  0.00     0.219 C 
HETATM   29  N   UNL     1      -4.010   6.895 -31.770  1.00  0.00    -0.356 N 
HETATM   30  H   UNL     1      -3.990   6.604 -32.739  1.00  0.00     0.162 HD
HETATM   31  O   UNL     1      -5.345   7.267 -29.937  1.00  0.00    -0.274 OA
BRANCH  29  32
HETATM   32  C   UNL     1      -2.808   7.491 -31.196  1.00  0.00     0.084 C 
HETATM   33  C   UNL     1      -2.043   6.468 -30.345  1.00  0.00     0.025 C 
HETATM   34  C   UNL     1      -1.303   5.425 -31.183  1.00  0.00     0.002 C 
HETATM   35  C   UNL     1      -0.404   6.077 -32.227  1.00  0.00     0.000 C 
HETATM   36  C   UNL     1      -1.185   7.045 -33.111  1.00  0.00     0.002 C 
HETATM   37  C   UNL     1      -1.911   8.102 -32.281  1.00  0.00     0.025 C 
ENDBRANCH  29  32
ENDBRANCH  27  28
ENDBRANCH  26  27
ENDBRANCH   2  26
TORSDOF 8
ENDMDL
MODEL 5
REMARK VINA RESULT:      -9.1      2.597      4.914
REMARK  8 active torsions:
REMARK  status: ('A' for Active; 'I' for Inactive)
REMARK    1  A    between atoms: C_6  and  N_7 
REMARK       I    between atoms: N_7  and  C_8 
REMARK    2  A    between atoms: C_8  and  C_9 
REMARK    3  A    between atoms: C_9  and  S_10 
REMARK    4  A    between atoms: S_10  and  C_11 
REMARK    5  A    between atoms: N_12  and  C_13 
REMARK    6  A    between atoms: C_13  and  C_14 
REMARK    7  A    between atoms: C_14  and  C_15 
REMARK       I    between atoms: C_15  and  N_16 
REMARK    8  A    between atoms: N_16  and  C_17 
ROOT
HETATM    1  C   UNL     1      -4.997   4.502 -31.589  1.00  0.00     0.172 A 
HETATM    2  N   UNL     1      -5.079   5.694 -30.893  1.00  0.00    -0.292 N 
HETATM    3  C   UNL     1      -4.273   6.773 -31.267  1.00  0.00     0.262 A 
HETATM    4  O   UNL     1      -4.360   7.896 -30.776  1.00  0.00    -0.267 OA
HETATM    5  C   UNL     1      -3.283   6.531 -32.325  1.00  0.00     0.061 A 
HETATM    6  C   UNL     1      -3.280   5.279 -32.929  1.00  0.00     0.075 A 
HETATM    7  C   UNL     1      -2.363   7.519 -32.693  1.00  0.00     0.019 A 
HETATM    8  C   UNL     1      -1.411   7.241 -33.672  1.00  0.00     0.001 A 
HETATM    9  C   UNL     1      -1.379   5.982 -34.268  1.00  0.00     0.002 A 
HETATM   10  C   UNL     1      -2.308   5.006 -33.894  1.00  0.00     0.032 A 
HETATM   11  N   UNL     1      -4.200   4.281 -32.584  1.00  0.00    -0.224 NA
ENDROOT
BRANCH   1  12
HETATM   12  S   UNL     1      -6.024   3.164 -31.138  1.00  0.00    -0.082 SA
BRANCH  12  13
HETATM   13  C   UNL     1      -4.761   1.925 -30.793  1.00  0.00     0.185 C 
BRANCH  13  14
HETATM   14  C   UNL     1      -5.177   0.517 -31.181  1.00  0.00     0.231 C 
HETATM   15  N   UNL     1      -4.445  -0.015 -32.227  1.00  0.00    -0.326 N 
HETATM   16  H   UNL     1      -3.518   0.383 -32.384  1.00  0.00     0.169 HD
HETATM   17  O   UNL     1      -6.156  -0.004 -30.653  1.00  0.00    -0.272 OA
BRANCH  15  18
HETATM   18  C   UNL     1      -4.820  -1.083 -33.070  1.00  0.00     0.036 A 
HETATM   19  C   UNL     1      -4.091  -2.265 -33.205  1.00  0.00     0.053 A 
HETATM   20  C   UNL     1      -4.579  -3.315 -33.994  1.00  0.00     0.042 A 
HETATM   21  C   UNL     1      -5.802  -3.201 -34.670  1.00  0.00    -0.040 A 
HETATM   22 CL   UNL     1      -3.637  -4.764 -34.082  1.00  0.00    -0.084 Cl
HETATM   23  C   UNL     1      -6.372  -4.328 -35.485  1.00  0.00     0.050 C 
HETATM   24  C   UNL     1      -6.524  -2.009 -34.539  1.00  0.00     0.011 A 
HETATM   25  C   UNL     1      -6.036  -0.964 -33.749  1.00  0.00     0.030 A 
ENDBRANCH  15  18
ENDBRANCH  13  14
ENDBRANCH  12  13
ENDBRANCH   1  12
BRANCH   2  26
HETATM   26  C   UNL     1      -6.009   5.963 -29.782  1.00  0.00     0.144 C 
BRANCH  26  27
HETATM   27  C   UNL     1      -5.496   5.400 -28.454  1.00  0.00     0.123 C 
BRANCH  27  28
HETATM   28  C   UNL     1      -4.812   6.488 -27.658  1.00  0.00     0.219 C 
HETATM   29  N   UNL     1      -3.472   6.626 -27.948  1.00  0.00    -0.356 N 
HETATM   30  H   UNL     1      -3.073   6.090 -28.707  1.00  0.00     0.162 HD
HETATM   31  O   UNL     1      -5.411   7.193 -26.852  1.00  0.00    -0.274 OA
BRANCH  29  32
HETATM   32  C   UNL     1      -2.630   7.603 -27.266  1.00  0.00     0.084 C 
HETATM   33  C   UNL     1      -1.421   6.921 -26.612  1.00  0.00     0.025 C 
HETATM   34  C   UNL     1      -0.356   6.491 -27.622  1.00  0.00     0.002 C 
HETATM   35  C   UNL     1       0.065   7.647 -28.522  1.00  0.00     0.000 C 
HETATM   36  C   UNL     1      -1.136   8.280 -29.218  1.00  0.00     0.002 C 
HETATM   37  C   UNL     1      -2.195   8.729 -28.214  1.00  0.00     0.025 C 
ENDBRANCH  29  32
ENDBRANCH  27  28
ENDBRANCH  26  27
ENDBRANCH   2  26
TORSDOF 8
ENDMDL
MODEL 6
REMARK VINA RESULT:      -8.9      3.152      6.102
REMARK  8 active torsions:
REMARK  status: ('A' for Active; 'I' for Inactive)
REMARK    1  A    between atoms: C_6  and  N_7 
REMARK       I    between atoms: N_7  and  C_8 
REMARK    2  A    between atoms: C_8  and  C_9 
REMARK    3  A    between atoms: C_9  and  S_10 
REMARK    4  A    between atoms: S_10  and  C_11 
REMARK    5  A    between atoms: N_12  and  C_13 
REMARK    6  A    between atoms: C_13  and  C_14 
REMARK    7  A    between atoms: C_14  and  C_15 
REMARK       I    between atoms: C_15  and  N_16 
REMARK    8  A    between atoms: N_16  and  C_17 
ROOT
HETATM    1  C   UNL     1      -5.655   1.124 -33.088  1.00  0.00     0.172 A 
HETATM    2  N   UNL     1      -4.601   1.024 -32.197  1.00  0.00    -0.292 N 
HETATM    3  C   UNL     1      -3.837  -0.145 -32.155  1.00  0.00     0.262 A 
HETATM    4  O   UNL     1      -2.821  -0.276 -31.476  1.00  0.00    -0.267 OA
HETATM    5  C   UNL     1      -4.282  -1.264 -32.997  1.00  0.00     0.061 A 
HETATM    6  C   UNL     1      -5.375  -1.048 -33.829  1.00  0.00     0.075 A 
HETATM    7  C   UNL     1      -3.642  -2.508 -32.943  1.00  0.00     0.019 A 
HETATM    8  C   UNL     1      -4.117  -3.559 -33.725  1.00  0.00     0.001 A 
HETATM    9  C   UNL     1      -5.227  -3.365 -34.545  1.00  0.00     0.002 A 
HETATM   10  C   UNL     1      -5.853  -2.115 -34.592  1.00  0.00     0.032 A 
HETATM   11  N   UNL     1      -6.020   0.192 -33.907  1.00  0.00    -0.224 NA
ENDROOT
BRANCH   1  12
HETATM   12  S   UNL     1      -6.592   2.596 -33.157  1.00  0.00    -0.082 SA
BRANCH  12  13
HETATM   13  C   UNL     1      -7.800   2.120 -34.407  1.00  0.00     0.185 C 
BRANCH  13  14
HETATM   14  C   UNL     1      -9.132   1.685 -33.824  1.00  0.00     0.231 C 
HETATM   15  N   UNL     1     -10.230   2.151 -34.525  1.00  0.00    -0.326 N 
HETATM   16  H   UNL     1     -10.075   2.397 -35.503  1.00  0.00     0.169 HD
HETATM   17  O   UNL     1      -9.168   1.072 -32.759  1.00  0.00    -0.272 OA
BRANCH  15  18
HETATM   18  C   UNL     1     -11.552   2.276 -34.048  1.00  0.00     0.036 A 
HETATM   19  C   UNL     1     -12.612   1.471 -34.468  1.00  0.00     0.053 A 
HETATM   20  C   UNL     1     -13.878   1.598 -33.878  1.00  0.00     0.042 A 
HETATM   21  C   UNL     1     -14.110   2.538 -32.864  1.00  0.00    -0.040 A 
HETATM   22 CL   UNL     1     -15.132   0.539 -34.424  1.00  0.00    -0.084 Cl
HETATM   23  C   UNL     1     -15.442   2.664 -32.182  1.00  0.00     0.050 C 
HETATM   24  C   UNL     1     -13.044   3.348 -32.454  1.00  0.00     0.011 A 
HETATM   25  C   UNL     1     -11.782   3.218 -33.041  1.00  0.00     0.030 A 
ENDBRANCH  15  18
ENDBRANCH  13  14
ENDBRANCH  12  13
ENDBRANCH   1  12
BRANCH   2  26
HETATM   26  C   UNL     1      -4.158   2.095 -31.286  1.00  0.00     0.144 C 
BRANCH  26  27
HETATM   27  C   UNL     1      -3.028   2.933 -31.891  1.00  0.00     0.123 C 
BRANCH  27  28
HETATM   28  C   UNL     1      -3.240   4.395 -31.573  1.00  0.00     0.219 C 
HETATM   29  N   UNL     1      -2.069   5.097 -31.391  1.00  0.00    -0.356 N 
HETATM   30  H   UNL     1      -1.185   4.639 -31.572  1.00  0.00     0.162 HD
HETATM   31  O   UNL     1      -4.355   4.903 -31.511  1.00  0.00    -0.274 OA
BRANCH  29  32
HETATM   32  C   UNL     1      -2.061   6.516 -31.050  1.00  0.00     0.084 C 
HETATM   33  C   UNL     1      -1.963   6.713 -29.531  1.00  0.00     0.025 C 
HETATM   34  C   UNL     1      -0.567   6.423 -28.978  1.00  0.00     0.002 C 
HETATM   35  C   UNL     1       0.506   7.209 -29.722  1.00  0.00     0.000 C 
HETATM   36  C   UNL     1       0.443   6.959 -31.225  1.00  0.00     0.002 C 
HETATM   37  C   UNL     1      -0.943   7.265 -31.787  1.00  0.00     0.025 C 
ENDBRANCH  29  32
ENDBRANCH  27  28
ENDBRANCH  26  27
ENDBRANCH   2  26
TORSDOF 8
ENDMDL
MODEL 7
REMARK VINA RESULT:      -8.8      3.343      8.868
REMARK  8 active torsions:
REMARK  status: ('A' for Active; 'I' for Inactive)
REMARK    1  A    between atoms: C_6  and  N_7 
REMARK       I    between atoms: N_7  and  C_8 
REMARK    2  A    between atoms: C_8  and  C_9 
REMARK    3  A    between atoms: C_9  and  S_10 
REMARK    4  A    between atoms: S_10  and  C_11 
REMARK    5  A    between atoms: N_12  and  C_13 
REMARK    6  A    between atoms: C_13  and  C_14 
REMARK    7  A    between atoms: C_14  and  C_15 
REMARK       I    between atoms: C_15  and  N_16 
REMARK    8  A    between atoms: N_16  and  C_17 
ROOT
HETATM    1  C   UNL     1      -5.426   1.729 -32.749  1.00  0.00     0.172 A 
HETATM    2  N   UNL     1      -6.544   1.834 -33.557  1.00  0.00    -0.292 N 
HETATM    3  C   UNL     1      -6.990   0.720 -34.273  1.00  0.00     0.262 A 
HETATM    4  O   UNL     1      -8.031   0.696 -34.925  1.00  0.00    -0.267 OA
HETATM    5  C   UNL     1      -6.158  -0.489 -34.212  1.00  0.00     0.061 A 
HETATM    6  C   UNL     1      -5.040  -0.460 -33.385  1.00  0.00     0.075 A 
HETATM    7  C   UNL     1      -6.467  -1.619 -34.979  1.00  0.00     0.019 A 
HETATM    8  C   UNL     1      -5.633  -2.733 -34.928  1.00  0.00     0.001 A 
HETATM    9  C   UNL     1      -4.496  -2.710 -34.123  1.00  0.00     0.002 A 
HETATM   10  C   UNL     1      -4.201  -1.576 -33.359  1.00  0.00     0.032 A 
HETATM   11  N   UNL     1      -4.720   0.655 -32.601  1.00  0.00    -0.224 NA
ENDROOT
BRANCH   1  12
HETATM   12  S   UNL     1      -4.886   3.115 -31.835  1.00  0.00    -0.082 SA
BRANCH  12  13
HETATM   13  C   UNL     1      -3.959   3.975 -33.119  1.00  0.00     0.185 C 
BRANCH  13  14
HETATM   14  C   UNL     1      -2.630   4.526 -32.637  1.00  0.00     0.231 C 
HETATM   15  N   UNL     1      -2.615   4.857 -31.293  1.00  0.00    -0.326 N 
HETATM   16  H   UNL     1      -3.300   4.388 -30.700  1.00  0.00     0.169 HD
HETATM   17  O   UNL     1      -1.724   4.742 -33.438  1.00  0.00    -0.272 OA
BRANCH  15  18
HETATM   18  C   UNL     1      -1.721   5.735 -30.644  1.00  0.00     0.036 A 
HETATM   19  C   UNL     1      -2.045   7.037 -30.261  1.00  0.00     0.053 A 
HETATM   20  C   UNL     1      -1.129   7.814 -29.539  1.00  0.00     0.042 A 
HETATM   21  C   UNL     1       0.132   7.309 -29.194  1.00  0.00    -0.040 A 
HETATM   22 CL   UNL     1      -1.619   9.405 -29.066  1.00  0.00    -0.084 Cl
HETATM   23  C   UNL     1       1.115   8.102 -28.380  1.00  0.00     0.050 C 
HETATM   24  C   UNL     1       0.455   6.005 -29.590  1.00  0.00     0.011 A 
HETATM   25  C   UNL     1      -0.461   5.230 -30.307  1.00  0.00     0.030 A 
ENDBRANCH  15  18
ENDBRANCH  13  14
ENDBRANCH  12  13
ENDBRANCH   1  12
BRANCH   2  26
HETATM   26  C   UNL     1      -7.372   3.044 -33.703  1.00  0.00     0.144 C 
BRANCH  26  27
HETATM   27  C   UNL     1      -8.709   2.917 -32.966  1.00  0.00     0.123 C 
BRANCH  27  28
HETATM   28  C   UNL     1      -9.836   3.397 -33.851  1.00  0.00     0.219 C 
HETATM   29  N   UNL     1     -11.029   2.743 -33.631  1.00  0.00    -0.356 N 
HETATM   30  H   UNL     1     -11.100   2.089 -32.862  1.00  0.00     0.162 HD
HETATM   31  O   UNL     1      -9.697   4.302 -34.668  1.00  0.00    -0.274 OA
BRANCH  29  32
HETATM   32  C   UNL     1     -12.230   3.043 -34.404  1.00  0.00     0.084 C 
HETATM   33  C   UNL     1     -12.648   1.836 -35.256  1.00  0.00     0.025 C 
HETATM   34  C   UNL     1     -13.280   0.713 -34.434  1.00  0.00     0.002 C 
HETATM   35  C   UNL     1     -14.430   1.224 -33.574  1.00  0.00     0.000 C 
HETATM   36  C   UNL     1     -13.991   2.382 -32.683  1.00  0.00     0.002 C 
HETATM   37  C   UNL     1     -13.376   3.516 -33.500  1.00  0.00     0.025 C 
ENDBRANCH  29  32
ENDBRANCH  27  28
ENDBRANCH  26  27
ENDBRANCH   2  26
TORSDOF 8
ENDMDL
MODEL 8
REMARK VINA RESULT:      -8.8      3.588      6.998
REMARK  8 active torsions:
REMARK  status: ('A' for Active; 'I' for Inactive)
REMARK    1  A    between atoms: C_6  and  N_7 
REMARK       I    between atoms: N_7  and  C_8 
REMARK    2  A    between atoms: C_8  and  C_9 
REMARK    3  A    between atoms: C_9  and  S_10 
REMARK    4  A    between atoms: S_10  and  C_11 
REMARK    5  A    between atoms: N_12  and  C_13 
REMARK    6  A    between atoms: C_13  and  C_14 
REMARK    7  A    between atoms: C_14  and  C_15 
REMARK       I    between atoms: C_15  and  N_16 
REMARK    8  A    between atoms: N_16  and  C_17 
ROOT
HETATM    1  C   UNL     1      -6.298  -0.590 -34.448  1.00  0.00     0.172 A 
HETATM    2  N   UNL     1      -5.257  -0.217 -33.617  1.00  0.00    -0.292 N 
HETATM    3  C   UNL     1      -4.281  -1.153 -33.264  1.00  0.00     0.262 A 
HETATM    4  O   UNL     1      -3.268  -0.879 -32.624  1.00  0.00    -0.267 OA
HETATM    5  C   UNL     1      -4.489  -2.536 -33.714  1.00  0.00     0.061 A 
HETATM    6  C   UNL     1      -5.592  -2.791 -34.522  1.00  0.00     0.075 A 
HETATM    7  C   UNL     1      -3.621  -3.562 -33.322  1.00  0.00     0.019 A 
HETATM    8  C   UNL     1      -3.872  -4.869 -33.733  1.00  0.00     0.001 A 
HETATM    9  C   UNL     1      -4.988  -5.144 -34.522  1.00  0.00     0.002 A 
HETATM   10  C   UNL     1      -5.844  -4.108 -34.910  1.00  0.00     0.032 A 
HETATM   11  N   UNL     1      -6.465  -1.777 -34.935  1.00  0.00    -0.224 NA
ENDROOT
BRANCH   1  12
HETATM   12  S   UNL     1      -7.502   0.587 -34.908  1.00  0.00    -0.082 SA
BRANCH  12  13
HETATM   13  C   UNL     1      -8.747   0.245 -33.651  1.00  0.00     0.185 C 
BRANCH  13  14
HETATM   14  C   UNL     1     -10.045   1.001 -33.867  1.00  0.00     0.231 C 
HETATM   15  N   UNL     1      -9.907   2.144 -34.634  1.00  0.00    -0.326 N 
HETATM   16  H   UNL     1      -9.102   2.179 -35.260  1.00  0.00     0.169 HD
HETATM   17  O   UNL     1     -11.071   0.643 -33.293  1.00  0.00    -0.272 OA
BRANCH  15  18
HETATM   18  C   UNL     1     -10.787   3.247 -34.682  1.00  0.00     0.036 A 
HETATM   19  C   UNL     1     -10.645   4.393 -33.898  1.00  0.00     0.053 A 
HETATM   20  C   UNL     1     -11.509   5.483 -34.071  1.00  0.00     0.042 A 
HETATM   21  C   UNL     1     -12.537   5.445 -35.023  1.00  0.00    -0.040 A 
HETATM   22 CL   UNL     1     -11.247   6.883 -33.089  1.00  0.00    -0.084 Cl
HETATM   23  C   UNL     1     -13.448   6.616 -35.263  1.00  0.00     0.050 C 
HETATM   24  C   UNL     1     -12.680   4.289 -35.799  1.00  0.00     0.011 A 
HETATM   25  C   UNL     1     -11.815   3.204 -35.628  1.00  0.00     0.030 A 
ENDBRANCH  15  18
ENDBRANCH  13  14
ENDBRANCH  12  13
ENDBRANCH   1  12
BRANCH   2  26
HETATM   26  C   UNL     1      -5.042   1.141 -33.087  1.00  0.00     0.144 C 
BRANCH  26  27
HETATM   27  C   UNL     1      -5.512   1.273 -31.635  1.00  0.00     0.123 C 
BRANCH  27  28
HETATM   28  C   UNL     1      -4.978   2.551 -31.031  1.00  0.00     0.219 C 
HETATM   29  N   UNL     1      -4.166   3.268 -31.882  1.00  0.00    -0.356 N 
HETATM   30  H   UNL     1      -4.064   2.964 -32.842  1.00  0.00     0.162 HD
HETATM   31  O   UNL     1      -5.268   2.917 -29.897  1.00  0.00    -0.274 OA
BRANCH  29  32
HETATM   32  C   UNL     1      -3.529   4.517 -31.475  1.00  0.00     0.084 C 
HETATM   33  C   UNL     1      -2.043   4.523 -31.857  1.00  0.00     0.025 C 
HETATM   34  C   UNL     1      -1.810   4.723 -33.355  1.00  0.00     0.002 C 
HETATM   35  C   UNL     1      -2.534   5.958 -33.878  1.00  0.00     0.000 C 
HETATM   36  C   UNL     1      -4.023   5.915 -33.550  1.00  0.00     0.002 C 
HETATM   37  C   UNL     1      -4.263   5.735 -32.052  1.00  0.00     0.025 C 
ENDBRANCH  29  32
ENDBRANCH  27  28
ENDBRANCH  26  27
ENDBRANCH   2  26
TORSDOF 8
ENDMDL
MODEL 9
REMARK VINA RESULT:      -8.7      2.995      5.306
REMARK  8 active torsions:
REMARK  status: ('A' for Active; 'I' for Inactive)
REMARK    1  A    between atoms: C_6  and  N_7 
REMARK       I    between atoms: N_7  and  C_8 
REMARK    2  A    between atoms: C_8  and  C_9 
REMARK    3  A    between atoms: C_9  and  S_10 
REMARK    4  A    between atoms: S_10  and  C_11 
REMARK    5  A    between atoms: N_12  and  C_13 
REMARK    6  A    between atoms: C_13  and  C_14 
REMARK    7  A    between atoms: C_14  and  C_15 
REMARK       I    between atoms: C_15  and  N_16 
REMARK    8  A    between atoms: N_16  and  C_17 
ROOT
HETATM    1  C   UNL     1      -5.862   3.317 -33.531  1.00  0.00     0.172 A 
HETATM    2  N   UNL     1      -5.313   2.861 -32.346  1.00  0.00    -0.292 N 
HETATM    3  C   UNL     1      -5.255   1.488 -32.090  1.00  0.00     0.262 A 
HETATM    4  O   UNL     1      -4.688   0.995 -31.118  1.00  0.00    -0.267 OA
HETATM    5  C   UNL     1      -5.901   0.600 -33.066  1.00  0.00     0.061 A 
HETATM    6  C   UNL     1      -6.445   1.183 -34.205  1.00  0.00     0.075 A 
HETATM    7  C   UNL     1      -5.986  -0.779 -32.843  1.00  0.00     0.019 A 
HETATM    8  C   UNL     1      -6.642  -1.586 -33.769  1.00  0.00     0.001 A 
HETATM    9  C   UNL     1      -7.214  -1.013 -34.904  1.00  0.00     0.002 A 
HETATM   10  C   UNL     1      -7.117   0.366 -35.116  1.00  0.00     0.032 A 
HETATM   11  N   UNL     1      -6.360   2.559 -34.453  1.00  0.00    -0.224 NA
ENDROOT
BRANCH   1  12
HETATM   12  S   UNL     1      -5.909   5.031 -33.859  1.00  0.00    -0.082 SA
BRANCH  12  13
HETATM   13  C   UNL     1      -7.361   5.478 -32.890  1.00  0.00     0.185 C 
BRANCH  13  14
HETATM   14  C   UNL     1      -8.651   4.890 -33.430  1.00  0.00     0.231 C 
HETATM   15  N   UNL     1      -9.359   4.145 -32.503  1.00  0.00    -0.326 N 
HETATM   16  H   UNL     1      -9.180   4.351 -31.520  1.00  0.00     0.169 HD
HETATM   17  O   UNL     1      -8.930   5.003 -34.621  1.00  0.00    -0.272 OA
BRANCH  15  18
HETATM   18  C   UNL     1     -10.339   3.165 -32.770  1.00  0.00     0.036 A 
HETATM   19  C   UNL     1     -11.713   3.412 -32.760  1.00  0.00     0.053 A 
HETATM   20  C   UNL     1     -12.618   2.406 -33.126  1.00  0.00     0.042 A 
HETATM   21  C   UNL     1     -12.168   1.132 -33.500  1.00  0.00    -0.040 A 
HETATM   22 CL   UNL     1     -14.303   2.799 -33.127  1.00  0.00    -0.084 Cl
HETATM   23  C   UNL     1     -13.112   0.050 -33.941  1.00  0.00     0.050 C 
HETATM   24  C   UNL     1     -10.790   0.888 -33.498  1.00  0.00     0.011 A 
HETATM   25  C   UNL     1      -9.888   1.894 -33.136  1.00  0.00     0.030 A 
ENDBRANCH  15  18
ENDBRANCH  13  14
ENDBRANCH  12  13
ENDBRANCH   1  12
BRANCH   2  26
HETATM   26  C   UNL     1      -4.713   3.716 -31.307  1.00  0.00     0.144 C 
BRANCH  26  27
HETATM   27  C   UNL     1      -3.196   3.847 -31.475  1.00  0.00     0.123 C 
BRANCH  27  28
HETATM   28  C   UNL     1      -2.778   5.290 -31.308  1.00  0.00     0.219 C 
HETATM   29  N   UNL     1      -1.691   5.459 -30.478  1.00  0.00    -0.356 N 
HETATM   30  H   UNL     1      -1.203   4.643 -30.132  1.00  0.00     0.162 HD
HETATM   31  O   UNL     1      -3.346   6.214 -31.883  1.00  0.00    -0.274 OA
BRANCH  29  32
HETATM   32  C   UNL     1      -1.152   6.779 -30.168  1.00  0.00     0.084 C 
HETATM   33  C   UNL     1      -1.907   7.416 -28.993  1.00  0.00     0.025 C 
HETATM   34  C   UNL     1      -1.552   6.792 -27.643  1.00  0.00     0.002 C 
HETATM   35  C   UNL     1      -0.046   6.781 -27.408  1.00  0.00     0.000 C 
HETATM   36  C   UNL     1       0.694   6.089 -28.550  1.00  0.00     0.002 C 
HETATM   37  C   UNL     1       0.358   6.719 -29.899  1.00  0.00     0.025 C 
ENDBRANCH  29  32
ENDBRANCH  27  28
ENDBRANCH  26  27
ENDBRANCH   2  26
TORSDOF 8
ENDMDL
MODEL 10
REMARK VINA RESULT:      -8.6      4.036      6.667
REMARK  8 active torsions:
REMARK  status: ('A' for Active; 'I' for Inactive)
REMARK    1  A    between atoms: C_6  and  N_7 
REMARK       I    between atoms: N_7  and  C_8 
REMARK    2  A    between atoms: C_8  and  C_9 
REMARK    3  A    between atoms: C_9  and  S_10 
REMARK    4  A    between atoms: S_10  and  C_11 
REMARK    5  A    between atoms: N_12  and  C_13 
REMARK    6  A    between atoms: C_13  and  C_14 
REMARK    7  A    between atoms: C_14  and  C_15 
REMARK       I    between atoms: C_15  and  N_16 
REMARK    8  A    between atoms: N_16  and  C_17 
ROOT
HETATM    1  C   UNL     1      -7.365   2.299 -33.348  1.00  0.00     0.172 A 
HETATM    2  N   UNL     1      -6.163   2.773 -32.855  1.00  0.00    -0.292 N 
HETATM    3  C   UNL     1      -5.038   1.944 -32.853  1.00  0.00     0.262 A 
HETATM    4  O   UNL     1      -3.911   2.318 -32.536  1.00  0.00    -0.267 OA
HETATM    5  C   UNL     1      -5.235   0.552 -33.277  1.00  0.00     0.061 A 
HETATM    6  C   UNL     1      -6.500   0.188 -33.725  1.00  0.00     0.075 A 
HETATM    7  C   UNL     1      -4.192  -0.379 -33.209  1.00  0.00     0.019 A 
HETATM    8  C   UNL     1      -4.425  -1.702 -33.580  1.00  0.00     0.001 A 
HETATM    9  C   UNL     1      -5.695  -2.086 -34.007  1.00  0.00     0.002 A 
HETATM   10  C   UNL     1      -6.727  -1.144 -34.075  1.00  0.00     0.032 A 
HETATM   11  N   UNL     1      -7.554   1.107 -33.812  1.00  0.00    -0.224 NA
ENDROOT
BRANCH   1  12
HETATM   12  S   UNL     1      -8.762   3.346 -33.374  1.00  0.00    -0.082 SA
BRANCH  12  13
HETATM   13  C   UNL     1      -9.793   2.436 -34.540  1.00  0.00     0.185 C 
BRANCH  13  14
HETATM   14  C   UNL     1     -11.076   1.908 -33.925  1.00  0.00     0.231 C 
HETATM   15  N   UNL     1     -12.195   2.662 -34.228  1.00  0.00    -0.326 N 
HETATM   16  H   UNL     1     -12.146   3.232 -35.073  1.00  0.00     0.169 HD
HETATM   17  O   UNL     1     -11.040   0.959 -33.145  1.00  0.00    -0.272 OA
BRANCH  15  18
HETATM   18  C   UNL     1     -13.416   2.692 -33.521  1.00  0.00     0.036 A 
HETATM   19  C   UNL     1     -13.838   3.766 -32.736  1.00  0.00     0.053 A 
HETATM   20  C   UNL     1     -15.107   3.756 -32.140  1.00  0.00     0.042 A 
HETATM   21  C   UNL     1     -15.974   2.668 -32.309  1.00  0.00    -0.040 A 
HETATM   22 CL   UNL     1     -15.574   5.140 -31.214  1.00  0.00    -0.084 Cl
HETATM   23  C   UNL     1     -17.357   2.650 -31.722  1.00  0.00     0.050 C 
HETATM   24  C   UNL     1     -15.541   1.590 -33.090  1.00  0.00     0.011 A 
HETATM   25  C   UNL     1     -14.277   1.603 -33.686  1.00  0.00     0.030 A 
ENDBRANCH  15  18
ENDBRANCH  13  14
ENDBRANCH  12  13
ENDBRANCH   1  12
BRANCH   2  26
HETATM   26  C   UNL     1      -5.933   4.141 -32.357  1.00  0.00     0.144 C 
BRANCH  26  27
HETATM   27  C   UNL     1      -5.928   5.172 -33.489  1.00  0.00     0.123 C 
BRANCH  27  28
HETATM   28  C   UNL     1      -4.545   5.277 -34.089  1.00  0.00     0.219 C 
HETATM   29  N   UNL     1      -3.542   5.387 -33.152  1.00  0.00    -0.356 N 
HETATM   30  H   UNL     1      -3.770   5.292 -32.170  1.00  0.00     0.162 HD
HETATM   31  O   UNL     1      -4.345   5.242 -35.299  1.00  0.00    -0.274 OA
BRANCH  29  32
HETATM   32  C   UNL     1      -2.140   5.527 -33.531  1.00  0.00     0.084 C 
HETATM   33  C   UNL     1      -1.797   6.994 -33.825  1.00  0.00     0.025 C 
HETATM   34  C   UNL     1      -1.692   7.850 -32.563  1.00  0.00     0.002 C 
HETATM   35  C   UNL     1      -0.736   7.238 -31.546  1.00  0.00     0.000 C 
HETATM   36  C   UNL     1      -1.120   5.801 -31.210  1.00  0.00     0.002 C 
HETATM   37  C   UNL     1      -1.208   4.935 -32.465  1.00  0.00     0.025 C 
ENDBRANCH  29  32
ENDBRANCH  27  28
ENDBRANCH  26  27
ENDBRANCH   2  26
TORSDOF 8
ENDMDL
