MODEL 1
REMARK VINA RESULT:      -8.9      0.000      0.000
REMARK  6 active torsions:
REMARK  status: ('A' for Active; 'I' for Inactive)
REMARK    1  A    between atoms: C_2  and  N_3 
REMARK    2  A    between atoms: C_2  and  C_12 
REMARK       I    between atoms: N_3  and  C_4 
REMARK    3  A    between atoms: C_4  and  C_5 
REMARK    4  A    between atoms: C_12  and  C_13 
REMARK       I    between atoms: C_13  and  N_14 
REMARK    5  A    between atoms: N_14  and  C_15 
REMARK    6  A    between atoms: C_17  and  C_18 
ROOT
HETATM    1  C   UNL     1      -5.776   1.322 -30.901  1.00  0.00     0.224 C 
HETATM    2  N   UNL     1      -5.367   1.292 -32.221  1.00  0.00    -0.327 N 
HETATM    3  O   UNL     1      -6.522   0.518 -30.349  1.00  0.00    -0.273 OA
HETATM    4  H   UNL     1      -4.674   1.977 -32.501  1.00  0.00     0.169 HD
ENDROOT
BRANCH   1   5
HETATM    5  C   UNL     1      -5.166   2.456 -30.106  1.00  0.00     0.128 C 
BRANCH   5   6
HETATM    6  C   UNL     1      -5.149   3.745 -30.934  1.00  0.00     0.089 C 
HETATM    7  C   UNL     1      -6.303   4.682 -30.571  1.00  0.00     0.032 C 
BRANCH   6   8
HETATM    8  N   UNL     1      -3.858   4.426 -30.842  1.00  0.00    -0.352 N 
HETATM    9  C   UNL     1      -2.808   4.191 -31.707  1.00  0.00     0.252 C 
HETATM   10  O   UNL     1      -2.839   3.343 -32.591  1.00  0.00    -0.268 OA
HETATM   11  H   UNL     1      -3.841   5.275 -30.292  1.00  0.00     0.163 HD
BRANCH   9  12
HETATM   12  C   UNL     1      -1.623   5.083 -31.557  1.00  0.00     0.032 A 
HETATM   13  C   UNL     1      -0.593   4.807 -30.647  1.00  0.00     0.017 A 
HETATM   14  C   UNL     1       0.486   5.688 -30.524  1.00  0.00     0.001 A 
HETATM   15  C   UNL     1       0.545   6.836 -31.313  1.00  0.00     0.000 A 
HETATM   16  C   UNL     1      -0.467   7.104 -32.235  1.00  0.00     0.001 A 
HETATM   17  C   UNL     1      -1.547   6.227 -32.359  1.00  0.00     0.017 A 
ENDBRANCH   9  12
ENDBRANCH   6   8
ENDBRANCH   5   6
ENDBRANCH   1   5
BRANCH   2  18
HETATM   18  C   UNL     1      -5.799   0.404 -33.229  1.00  0.00     0.035 A 
HETATM   19  C   UNL     1      -5.358  -0.919 -33.345  1.00  0.00     0.042 A 
HETATM   20  C   UNL     1      -5.847  -1.766 -34.354  1.00  0.00    -0.021 A 
HETATM   21  C   UNL     1      -6.784  -1.260 -35.263  1.00  0.00     0.012 A 
HETATM   22  C   UNL     1      -7.228   0.060 -35.161  1.00  0.00     0.003 A 
HETATM   23  C   UNL     1      -6.742   0.884 -34.145  1.00  0.00     0.029 A 
BRANCH  20  24
HETATM   24  C   UNL     1      -5.397  -3.149 -34.425  1.00  0.00     0.010 A 
HETATM   25  C   UNL     1      -6.054  -4.311 -34.899  1.00  0.00     0.152 A 
HETATM   26  N   UNL     1      -5.302  -5.410 -34.798  1.00  0.00    -0.187 NA
HETATM   27  N   UNL     1      -4.165  -4.962 -34.247  1.00  0.00    -0.289 N 
HETATM   28  H   UNL     1      -3.425  -5.631 -34.061  1.00  0.00     0.188 HD
HETATM   29  C   UNL     1      -4.169  -3.618 -34.006  1.00  0.00     0.123 A 
ENDBRANCH  20  24
ENDBRANCH   2  18
TORSDOF 6
ENDMDL
MODEL 2
REMARK VINA RESULT:      -8.7      4.143      7.797
REMARK  6 active torsions:
REMARK  status: ('A' for Active; 'I' for Inactive)
REMARK    1  A    between atoms: C_2  and  N_3 
REMARK    2  A    between atoms: C_2  and  C_12 
REMARK       I    between atoms: N_3  and  C_4 
REMARK    3  A    between atoms: C_4  and  C_5 
REMARK    4  A    between atoms: C_12  and  C_13 
REMARK       I    between atoms: C_13  and  N_14 
REMARK    5  A    between atoms: N_14  and  C_15 
REMARK    6  A    between atoms: C_17  and  C_18 
ROOT
HETATM    1  C   UNL     1      -7.521   1.955 -31.366  1.00  0.00     0.224 C 
HETATM    2  N   UNL     1      -7.958   1.605 -32.629  1.00  0.00    -0.327 N 
HETATM    3  O   UNL     1      -8.106   2.677 -30.564  1.00  0.00    -0.273 OA
HETATM    4  H   UNL     1      -7.403   0.924 -33.134  1.00  0.00     0.169 HD
ENDROOT
BRANCH   1   5
HETATM    5  C   UNL     1      -6.208   1.307 -30.982  1.00  0.00     0.128 C 
BRANCH   5   6
HETATM    6  C   UNL     1      -5.343   1.067 -32.224  1.00  0.00     0.089 C 
HETATM    7  C   UNL     1      -3.915   1.585 -32.046  1.00  0.00     0.032 C 
BRANCH   6   8
HETATM    8  N   UNL     1      -5.356  -0.340 -32.622  1.00  0.00    -0.352 N 
HETATM    9  C   UNL     1      -5.816  -0.783 -33.846  1.00  0.00     0.252 C 
HETATM   10  O   UNL     1      -6.316  -0.044 -34.687  1.00  0.00    -0.268 OA
HETATM   11  H   UNL     1      -4.767  -0.961 -32.082  1.00  0.00     0.163 HD
BRANCH   9  12
HETATM   12  C   UNL     1      -5.614  -2.231 -34.138  1.00  0.00     0.032 A 
HETATM   13  C   UNL     1      -4.390  -2.874 -33.906  1.00  0.00     0.017 A 
HETATM   14  C   UNL     1      -4.241  -4.228 -34.220  1.00  0.00     0.001 A 
HETATM   15  C   UNL     1      -5.312  -4.944 -34.755  1.00  0.00     0.000 A 
HETATM   16  C   UNL     1      -6.537  -4.314 -34.968  1.00  0.00     0.001 A 
HETATM   17  C   UNL     1      -6.689  -2.961 -34.657  1.00  0.00     0.017 A 
ENDBRANCH   9  12
ENDBRANCH   6   8
ENDBRANCH   5   6
ENDBRANCH   1   5
BRANCH   2  18
HETATM   18  C   UNL     1      -9.106   2.083 -33.298  1.00  0.00     0.035 A 
HETATM   19  C   UNL     1     -10.309   1.375 -33.387  1.00  0.00     0.042 A 
HETATM   20  C   UNL     1     -11.428   1.916 -34.044  1.00  0.00    -0.021 A 
HETATM   21  C   UNL     1     -11.319   3.185 -34.625  1.00  0.00     0.012 A 
HETATM   22  C   UNL     1     -10.122   3.899 -34.546  1.00  0.00     0.003 A 
HETATM   23  C   UNL     1      -9.024   3.353 -33.881  1.00  0.00     0.029 A 
BRANCH  20  24
HETATM   24  C   UNL     1     -12.677   1.169 -34.087  1.00  0.00     0.010 A 
HETATM   25  C   UNL     1     -13.951   1.529 -34.592  1.00  0.00     0.152 A 
HETATM   26  N   UNL     1     -14.859   0.561 -34.449  1.00  0.00    -0.187 NA
HETATM   27  N   UNL     1     -14.176  -0.420 -33.840  1.00  0.00    -0.289 N 
HETATM   28  H   UNL     1     -14.669  -1.278 -33.614  1.00  0.00     0.188 HD
HETATM   29  C   UNL     1     -12.869  -0.108 -33.603  1.00  0.00     0.123 A 
ENDBRANCH  20  24
ENDBRANCH   2  18
TORSDOF 6
ENDMDL
MODEL 3
REMARK VINA RESULT:      -8.7      1.726      2.301
REMARK  6 active torsions:
REMARK  status: ('A' for Active; 'I' for Inactive)
REMARK    1  A    between atoms: C_2  and  N_3 
REMARK    2  A    between atoms: C_2  and  C_12 
REMARK       I    between atoms: N_3  and  C_4 
REMARK    3  A    between atoms: C_4  and  C_5 
REMARK    4  A    between atoms: C_12  and  C_13 
REMARK       I    between atoms: C_13  and  N_14 
REMARK    5  A    between atoms: N_14  and  C_15 
REMARK    6  A    between atoms: C_17  and  C_18 
ROOT
HETATM    1  C   UNL     1      -3.874   1.858 -32.225  1.00  0.00     0.224 C 
HETATM    2  N   UNL     1      -5.200   1.810 -32.611  1.00  0.00    -0.327 N 
HETATM    3  O   UNL     1      -2.967   1.139 -32.635  1.00  0.00    -0.273 OA
HETATM    4  H   UNL     1      -5.809   2.534 -32.249  1.00  0.00     0.169 HD
ENDROOT
BRANCH   1   5
HETATM    5  C   UNL     1      -3.573   2.963 -31.235  1.00  0.00     0.128 C 
BRANCH   5   6
HETATM    6  C   UNL     1      -2.519   3.920 -31.801  1.00  0.00     0.089 C 
HETATM    7  C   UNL     1      -3.053   4.743 -32.976  1.00  0.00     0.032 C 
BRANCH   6   8
HETATM    8  N   UNL     1      -1.958   4.778 -30.758  1.00  0.00    -0.352 N 
HETATM    9  C   UNL     1      -0.629   5.148 -30.708  1.00  0.00     0.252 C 
HETATM   10  O   UNL     1       0.216   4.739 -31.496  1.00  0.00    -0.268 OA
HETATM   11  H   UNL     1      -2.623   5.318 -30.221  1.00  0.00     0.163 HD
BRANCH   9  12
HETATM   12  C   UNL     1      -0.266   6.147 -29.662  1.00  0.00     0.032 A 
HETATM   13  C   UNL     1       0.598   5.838 -28.603  1.00  0.00     0.017 A 
HETATM   14  C   UNL     1       0.888   6.800 -27.632  1.00  0.00     0.001 A 
HETATM   15  C   UNL     1       0.327   8.075 -27.722  1.00  0.00     0.000 A 
HETATM   16  C   UNL     1      -0.517   8.394 -28.785  1.00  0.00     0.001 A 
HETATM   17  C   UNL     1      -0.810   7.433 -29.756  1.00  0.00     0.017 A 
ENDBRANCH   9  12
ENDBRANCH   6   8
ENDBRANCH   5   6
ENDBRANCH   1   5
BRANCH   2  18
HETATM   18  C   UNL     1      -5.806   0.865 -33.468  1.00  0.00     0.035 A 
HETATM   19  C   UNL     1      -5.406  -0.472 -33.563  1.00  0.00     0.042 A 
HETATM   20  C   UNL     1      -6.068  -1.372 -34.415  1.00  0.00    -0.021 A 
HETATM   21  C   UNL     1      -7.139  -0.907 -35.188  1.00  0.00     0.012 A 
HETATM   22  C   UNL     1      -7.544   0.427 -35.104  1.00  0.00     0.003 A 
HETATM   23  C   UNL     1      -6.884   1.305 -34.244  1.00  0.00     0.029 A 
BRANCH  20  24
HETATM   24  C   UNL     1      -5.652  -2.767 -34.463  1.00  0.00     0.010 A 
HETATM   25  C   UNL     1      -6.352  -3.925 -34.882  1.00  0.00     0.152 A 
HETATM   26  N   UNL     1      -5.622  -5.039 -34.778  1.00  0.00    -0.187 NA
HETATM   27  N   UNL     1      -4.456  -4.603 -34.280  1.00  0.00    -0.289 N 
HETATM   28  H   UNL     1      -3.725  -5.285 -34.102  1.00  0.00     0.188 HD
HETATM   29  C   UNL     1      -4.421  -3.254 -34.076  1.00  0.00     0.123 A 
ENDBRANCH  20  24
ENDBRANCH   2  18
TORSDOF 6
ENDMDL
MODEL 4
REMARK VINA RESULT:      -8.5      2.254      8.832
REMARK  6 active torsions:
REMARK  status: ('A' for Active; 'I' for Inactive)
REMARK    1  A    between atoms: C_2  and  N_3 
REMARK    2  A    between atoms: C_2  and  C_12 
REMARK       I    between atoms: N_3  and  C_4 
REMARK    3  A    between atoms: C_4  and  C_5 
REMARK    4  A    between atoms: C_12  and  C_13 
REMARK       I    between atoms: C_13  and  N_14 
REMARK    5  A    between atoms: N_14  and  C_15 
REMARK    6  A    between atoms: C_17  and  C_18 
ROOT
HETATM    1  C   UNL     1      -5.272   3.120 -32.223  1.00  0.00     0.224 C 
HETATM    2  N   UNL     1      -4.016   2.998 -32.787  1.00  0.00    -0.327 N 
HETATM    3  O   UNL     1      -5.716   4.100 -31.632  1.00  0.00    -0.273 OA
HETATM    4  H   UNL     1      -3.834   2.158 -33.323  1.00  0.00     0.169 HD
ENDROOT
BRANCH   1   5
HETATM    5  C   UNL     1      -6.149   1.905 -32.438  1.00  0.00     0.128 C 
BRANCH   5   6
HETATM    6  C   UNL     1      -5.552   0.680 -31.737  1.00  0.00     0.089 C 
HETATM    7  C   UNL     1      -6.056   0.532 -30.300  1.00  0.00     0.032 C 
BRANCH   6   8
HETATM    8  N   UNL     1      -5.772  -0.541 -32.510  1.00  0.00    -0.352 N 
HETATM    9  C   UNL     1      -4.805  -1.129 -33.300  1.00  0.00     0.252 C 
HETATM   10  O   UNL     1      -3.693  -0.645 -33.478  1.00  0.00    -0.268 OA
HETATM   11  H   UNL     1      -6.571  -1.100 -32.241  1.00  0.00     0.163 HD
BRANCH   9  12
HETATM   12  C   UNL     1      -5.158  -2.450 -33.896  1.00  0.00     0.032 A 
HETATM   13  C   UNL     1      -4.259  -3.525 -33.909  1.00  0.00     0.017 A 
HETATM   14  C   UNL     1      -4.627  -4.736 -34.502  1.00  0.00     0.001 A 
HETATM   15  C   UNL     1      -5.892  -4.881 -35.071  1.00  0.00     0.000 A 
HETATM   16  C   UNL     1      -6.797  -3.821 -35.042  1.00  0.00     0.001 A 
HETATM   17  C   UNL     1      -6.433  -2.608 -34.451  1.00  0.00     0.017 A 
ENDBRANCH   9  12
ENDBRANCH   6   8
ENDBRANCH   5   6
ENDBRANCH   1   5
BRANCH   2  18
HETATM   18  C   UNL     1      -2.953   3.924 -32.711  1.00  0.00     0.035 A 
HETATM   19  C   UNL     1      -2.286   4.251 -31.526  1.00  0.00     0.042 A 
HETATM   20  C   UNL     1      -1.215   5.161 -31.518  1.00  0.00    -0.021 A 
HETATM   21  C   UNL     1      -0.825   5.754 -32.725  1.00  0.00     0.012 A 
HETATM   22  C   UNL     1      -1.486   5.438 -33.913  1.00  0.00     0.003 A 
HETATM   23  C   UNL     1      -2.539   4.524 -33.906  1.00  0.00     0.029 A 
BRANCH  20  24
HETATM   24  C   UNL     1      -0.517   5.452 -30.273  1.00  0.00     0.010 A 
HETATM   25  C   UNL     1      -0.740   6.459 -29.303  1.00  0.00     0.152 A 
HETATM   26  N   UNL     1       0.121   6.400 -28.284  1.00  0.00    -0.187 NA
HETATM   27  N   UNL     1       0.910   5.364 -28.603  1.00  0.00    -0.289 N 
HETATM   28  H   UNL     1       1.665   5.122 -27.968  1.00  0.00     0.188 HD
HETATM   29  C   UNL     1       0.570   4.761 -29.780  1.00  0.00     0.123 A 
ENDBRANCH  20  24
ENDBRANCH   2  18
TORSDOF 6
ENDMDL
MODEL 5
REMARK VINA RESULT:      -8.4      2.219      3.761
REMARK  6 active torsions:
REMARK  status: ('A' for Active; 'I' for Inactive)
REMARK    1  A    between atoms: C_2  and  N_3 
REMARK    2  A    between atoms: C_2  and  C_12 
REMARK       I    between atoms: N_3  and  C_4 
REMARK    3  A    between atoms: C_4  and  C_5 
REMARK    4  A    between atoms: C_12  and  C_13 
REMARK       I    between atoms: C_13  and  N_14 
REMARK    5  A    between atoms: N_14  and  C_15 
REMARK    6  A    between atoms: C_17  and  C_18 
ROOT
HETATM    1  C   UNL     1      -3.265   3.767 -31.892  1.00  0.00     0.224 C 
HETATM    2  N   UNL     1      -4.496   3.281 -32.288  1.00  0.00    -0.327 N 
HETATM    3  O   UNL     1      -2.393   3.146 -31.290  1.00  0.00    -0.273 OA
HETATM    4  H   UNL     1      -5.068   3.893 -32.859  1.00  0.00     0.169 HD
ENDROOT
BRANCH   1   5
HETATM    5  C   UNL     1      -3.015   5.198 -32.317  1.00  0.00     0.128 C 
BRANCH   5   6
HETATM    6  C   UNL     1      -1.517   5.518 -32.275  1.00  0.00     0.089 C 
HETATM    7  C   UNL     1      -1.076   6.390 -33.452  1.00  0.00     0.032 C 
BRANCH   6   8
HETATM    8  N   UNL     1      -1.131   6.112 -30.995  1.00  0.00    -0.352 N 
HETATM    9  C   UNL     1      -0.077   5.656 -30.230  1.00  0.00     0.252 C 
HETATM   10  O   UNL     1       0.592   4.671 -30.520  1.00  0.00    -0.268 OA
HETATM   11  H   UNL     1      -1.487   7.041 -30.811  1.00  0.00     0.163 HD
BRANCH   9  12
HETATM   12  C   UNL     1       0.266   6.475 -29.031  1.00  0.00     0.032 A 
HETATM   13  C   UNL     1       0.864   7.738 -29.139  1.00  0.00     0.017 A 
HETATM   14  C   UNL     1       1.191   8.457 -27.985  1.00  0.00     0.001 A 
HETATM   15  C   UNL     1       0.911   7.925 -26.727  1.00  0.00     0.000 A 
HETATM   16  C   UNL     1       0.297   6.678 -26.615  1.00  0.00     0.001 A 
HETATM   17  C   UNL     1      -0.029   5.956 -27.766  1.00  0.00     0.017 A 
ENDBRANCH   9  12
ENDBRANCH   6   8
ENDBRANCH   5   6
ENDBRANCH   1   5
BRANCH   2  18
HETATM   18  C   UNL     1      -5.049   2.015 -31.997  1.00  0.00     0.035 A 
HETATM   19  C   UNL     1      -5.084   0.951 -32.904  1.00  0.00     0.042 A 
HETATM   20  C   UNL     1      -5.623  -0.296 -32.546  1.00  0.00    -0.021 A 
HETATM   21  C   UNL     1      -6.141  -0.461 -31.256  1.00  0.00     0.012 A 
HETATM   22  C   UNL     1      -6.116   0.595 -30.343  1.00  0.00     0.003 A 
HETATM   23  C   UNL     1      -5.566   1.824 -30.711  1.00  0.00     0.029 A 
BRANCH  20  24
HETATM   24  C   UNL     1      -5.610  -1.395 -33.502  1.00  0.00     0.010 A 
HETATM   25  C   UNL     1      -6.675  -2.056 -34.163  1.00  0.00     0.152 A 
HETATM   26  N   UNL     1      -6.257  -3.028 -34.977  1.00  0.00    -0.187 NA
HETATM   27  N   UNL     1      -4.924  -3.005 -34.832  1.00  0.00    -0.289 N 
HETATM   28  H   UNL     1      -4.373  -3.675 -35.359  1.00  0.00     0.188 HD
HETATM   29  C   UNL     1      -4.487  -2.047 -33.964  1.00  0.00     0.123 A 
ENDBRANCH  20  24
ENDBRANCH   2  18
TORSDOF 6
ENDMDL
MODEL 6
REMARK VINA RESULT:      -8.2      4.183      8.242
REMARK  6 active torsions:
REMARK  status: ('A' for Active; 'I' for Inactive)
REMARK    1  A    between atoms: C_2  and  N_3 
REMARK    2  A    between atoms: C_2  and  C_12 
REMARK       I    between atoms: N_3  and  C_4 
REMARK    3  A    between atoms: C_4  and  C_5 
REMARK    4  A    between atoms: C_12  and  C_13 
REMARK       I    between atoms: C_13  and  N_14 
REMARK    5  A    between atoms: N_14  and  C_15 
REMARK    6  A    between atoms: C_17  and  C_18 
ROOT
HETATM    1  C   UNL     1      -6.637   1.786 -33.148  1.00  0.00     0.224 C 
HETATM    2  N   UNL     1      -7.790   1.962 -32.408  1.00  0.00    -0.327 N 
HETATM    3  O   UNL     1      -6.570   1.499 -34.340  1.00  0.00    -0.273 OA
HETATM    4  H   UNL     1      -7.677   2.289 -31.455  1.00  0.00     0.169 HD
ENDROOT
BRANCH   1   5
HETATM    5  C   UNL     1      -5.369   2.035 -32.359  1.00  0.00     0.128 C 
BRANCH   5   6
HETATM    6  C   UNL     1      -4.907   0.749 -31.665  1.00  0.00     0.089 C 
HETATM    7  C   UNL     1      -5.382   0.672 -30.212  1.00  0.00     0.032 C 
BRANCH   6   8
HETATM    8  N   UNL     1      -5.300  -0.439 -32.420  1.00  0.00    -0.352 N 
HETATM    9  C   UNL     1      -4.463  -1.096 -33.299  1.00  0.00     0.252 C 
HETATM   10  O   UNL     1      -3.335  -0.705 -33.576  1.00  0.00    -0.268 OA
HETATM   11  H   UNL     1      -6.116  -0.933 -32.081  1.00  0.00     0.163 HD
BRANCH   9  12
HETATM   12  C   UNL     1      -4.979  -2.375 -33.866  1.00  0.00     0.032 A 
HETATM   13  C   UNL     1      -4.204  -3.542 -33.898  1.00  0.00     0.017 A 
HETATM   14  C   UNL     1      -4.723  -4.711 -34.464  1.00  0.00     0.001 A 
HETATM   15  C   UNL     1      -6.016  -4.721 -34.985  1.00  0.00     0.000 A 
HETATM   16  C   UNL     1      -6.799  -3.568 -34.936  1.00  0.00     0.001 A 
HETATM   17  C   UNL     1      -6.283  -2.398 -34.374  1.00  0.00     0.017 A 
ENDBRANCH   9  12
ENDBRANCH   6   8
ENDBRANCH   5   6
ENDBRANCH   1   5
BRANCH   2  18
HETATM   18  C   UNL     1      -9.119   1.749 -32.834  1.00  0.00     0.035 A 
HETATM   19  C   UNL     1      -9.952   2.758 -33.329  1.00  0.00     0.042 A 
HETATM   20  C   UNL     1     -11.258   2.478 -33.765  1.00  0.00    -0.021 A 
HETATM   21  C   UNL     1     -11.728   1.162 -33.685  1.00  0.00     0.012 A 
HETATM   22  C   UNL     1     -10.907   0.147 -33.189  1.00  0.00     0.003 A 
HETATM   23  C   UNL     1      -9.608   0.439 -32.771  1.00  0.00     0.029 A 
BRANCH  20  24
HETATM   24  C   UNL     1     -12.087   3.544 -34.310  1.00  0.00     0.010 A 
HETATM   25  C   UNL     1     -11.994   4.251 -35.534  1.00  0.00     0.152 A 
HETATM   26  N   UNL     1     -12.953   5.170 -35.678  1.00  0.00    -0.187 NA
HETATM   27  N   UNL     1     -13.657   5.066 -34.541  1.00  0.00    -0.289 N 
HETATM   28  H   UNL     1     -14.452   5.683 -34.412  1.00  0.00     0.188 HD
HETATM   29  C   UNL     1     -13.183   4.109 -33.692  1.00  0.00     0.123 A 
ENDBRANCH  20  24
ENDBRANCH   2  18
TORSDOF 6
ENDMDL
MODEL 7
REMARK VINA RESULT:      -8.1      4.199      7.357
REMARK  6 active torsions:
REMARK  status: ('A' for Active; 'I' for Inactive)
REMARK    1  A    between atoms: C_2  and  N_3 
REMARK    2  A    between atoms: C_2  and  C_12 
REMARK       I    between atoms: N_3  and  C_4 
REMARK    3  A    between atoms: C_4  and  C_5 
REMARK    4  A    between atoms: C_12  and  C_13 
REMARK       I    between atoms: C_13  and  N_14 
REMARK    5  A    between atoms: N_14  and  C_15 
REMARK    6  A    between atoms: C_17  and  C_18 
ROOT
HETATM    1  C   UNL     1      -7.065   3.194 -33.216  1.00  0.00     0.224 C 
HETATM    2  N   UNL     1      -8.360   3.530 -32.871  1.00  0.00    -0.327 N 
HETATM    3  O   UNL     1      -6.685   2.769 -34.304  1.00  0.00    -0.273 OA
HETATM    4  H   UNL     1      -8.497   3.955 -31.962  1.00  0.00     0.169 HD
ENDROOT
BRANCH   1   5
HETATM    5  C   UNL     1      -6.062   3.447 -32.112  1.00  0.00     0.128 C 
BRANCH   5   6
HETATM    6  C   UNL     1      -5.690   2.135 -31.412  1.00  0.00     0.089 C 
HETATM    7  C   UNL     1      -6.537   1.884 -30.162  1.00  0.00     0.032 C 
BRANCH   6   8
HETATM    8  N   UNL     1      -5.747   1.001 -32.333  1.00  0.00    -0.352 N 
HETATM    9  C   UNL     1      -4.953  -0.121 -32.211  1.00  0.00     0.252 C 
HETATM   10  O   UNL     1      -4.082  -0.242 -31.357  1.00  0.00    -0.268 OA
HETATM   11  H   UNL     1      -6.575   0.937 -32.910  1.00  0.00     0.163 HD
BRANCH   9  12
HETATM   12  C   UNL     1      -5.252  -1.241 -33.149  1.00  0.00     0.032 A 
HETATM   13  C   UNL     1      -4.273  -2.164 -33.544  1.00  0.00     0.017 A 
HETATM   14  C   UNL     1      -4.595  -3.182 -34.446  1.00  0.00     0.001 A 
HETATM   15  C   UNL     1      -5.893  -3.288 -34.946  1.00  0.00     0.000 A 
HETATM   16  C   UNL     1      -6.875  -2.385 -34.540  1.00  0.00     0.001 A 
HETATM   17  C   UNL     1      -6.556  -1.366 -33.640  1.00  0.00     0.017 A 
ENDBRANCH   9  12
ENDBRANCH   6   8
ENDBRANCH   5   6
ENDBRANCH   1   5
BRANCH   2  18
HETATM   18  C   UNL     1      -9.524   3.357 -33.652  1.00  0.00     0.035 A 
HETATM   19  C   UNL     1     -10.423   2.298 -33.490  1.00  0.00     0.042 A 
HETATM   20  C   UNL     1     -11.580   2.195 -34.281  1.00  0.00    -0.021 A 
HETATM   21  C   UNL     1     -11.820   3.172 -35.254  1.00  0.00     0.012 A 
HETATM   22  C   UNL     1     -10.928   4.232 -35.428  1.00  0.00     0.003 A 
HETATM   23  C   UNL     1      -9.789   4.326 -34.627  1.00  0.00     0.029 A 
BRANCH  20  24
HETATM   24  C   UNL     1     -12.516   1.101 -34.062  1.00  0.00     0.010 A 
HETATM   25  C   UNL     1     -12.331  -0.163 -33.450  1.00  0.00     0.152 A 
HETATM   26  N   UNL     1     -13.444  -0.902 -33.437  1.00  0.00    -0.187 NA
HETATM   27  N   UNL     1     -14.343  -0.121 -34.053  1.00  0.00    -0.289 N 
HETATM   28  H   UNL     1     -15.286  -0.478 -34.173  1.00  0.00     0.188 HD
HETATM   29  C   UNL     1     -13.841   1.086 -34.444  1.00  0.00     0.123 A 
ENDBRANCH  20  24
ENDBRANCH   2  18
TORSDOF 6
ENDMDL
MODEL 8
REMARK VINA RESULT:      -7.9     15.613     17.895
REMARK  6 active torsions:
REMARK  status: ('A' for Active; 'I' for Inactive)
REMARK    1  A    between atoms: C_2  and  N_3 
REMARK    2  A    between atoms: C_2  and  C_12 
REMARK       I    between atoms: N_3  and  C_4 
REMARK    3  A    between atoms: C_4  and  C_5 
REMARK    4  A    between atoms: C_12  and  C_13 
REMARK       I    between atoms: C_13  and  N_14 
REMARK    5  A    between atoms: N_14  and  C_15 
REMARK    6  A    between atoms: C_17  and  C_18 
ROOT
HETATM    1  C   UNL     1      -4.048 -12.961 -36.915  1.00  0.00     0.224 C 
HETATM    2  N   UNL     1      -3.243 -13.988 -37.372  1.00  0.00    -0.327 N 
HETATM    3  O   UNL     1      -4.452 -12.004 -37.568  1.00  0.00    -0.273 OA
HETATM    4  H   UNL     1      -3.072 -14.755 -36.732  1.00  0.00     0.169 HD
ENDROOT
BRANCH   1   5
HETATM    5  C   UNL     1      -4.473 -13.126 -35.471  1.00  0.00     0.128 C 
BRANCH   5   6
HETATM    6  C   UNL     1      -5.866 -13.760 -35.390  1.00  0.00     0.089 C 
HETATM    7  C   UNL     1      -6.600 -13.385 -34.101  1.00  0.00     0.032 C 
BRANCH   6   8
HETATM    8  N   UNL     1      -6.668 -13.446 -36.572  1.00  0.00    -0.352 N 
HETATM    9  C   UNL     1      -7.492 -14.358 -37.199  1.00  0.00     0.252 C 
HETATM   10  O   UNL     1      -7.579 -15.533 -36.861  1.00  0.00    -0.268 OA
HETATM   11  H   UNL     1      -6.813 -12.463 -36.763  1.00  0.00     0.163 HD
BRANCH   9  12
HETATM   12  C   UNL     1      -8.348 -13.823 -38.296  1.00  0.00     0.032 A 
HETATM   13  C   UNL     1      -8.220 -12.510 -38.769  1.00  0.00     0.017 A 
HETATM   14  C   UNL     1      -9.064 -12.045 -39.781  1.00  0.00     0.001 A 
HETATM   15  C   UNL     1     -10.027 -12.891 -40.332  1.00  0.00     0.000 A 
HETATM   16  C   UNL     1     -10.144 -14.205 -39.880  1.00  0.00     0.001 A 
HETATM   17  C   UNL     1      -9.304 -14.671 -38.867  1.00  0.00     0.017 A 
ENDBRANCH   9  12
ENDBRANCH   6   8
ENDBRANCH   5   6
ENDBRANCH   1   5
BRANCH   2  18
HETATM   18  C   UNL     1      -2.636 -14.096 -38.642  1.00  0.00     0.035 A 
HETATM   19  C   UNL     1      -3.339 -14.360 -39.822  1.00  0.00     0.042 A 
HETATM   20  C   UNL     1      -2.682 -14.429 -41.063  1.00  0.00    -0.021 A 
HETATM   21  C   UNL     1      -1.296 -14.238 -41.103  1.00  0.00     0.012 A 
HETATM   22  C   UNL     1      -0.583 -13.978 -39.931  1.00  0.00     0.003 A 
HETATM   23  C   UNL     1      -1.252 -13.901 -38.709  1.00  0.00     0.029 A 
BRANCH  20  24
HETATM   24  C   UNL     1      -3.447 -14.668 -42.278  1.00  0.00     0.010 A 
HETATM   25  C   UNL     1      -3.153 -15.464 -43.413  1.00  0.00     0.152 A 
HETATM   26  N   UNL     1      -4.118 -15.430 -44.336  1.00  0.00    -0.187 NA
HETATM   27  N   UNL     1      -5.029 -14.602 -43.804  1.00  0.00    -0.289 N 
HETATM   28  H   UNL     1      -5.870 -14.408 -44.338  1.00  0.00     0.188 HD
HETATM   29  C   UNL     1      -4.678 -14.121 -42.576  1.00  0.00     0.123 A 
ENDBRANCH  20  24
ENDBRANCH   2  18
TORSDOF 6
ENDMDL
MODEL 9
REMARK VINA RESULT:      -7.9     16.053     17.101
REMARK  6 active torsions:
REMARK  status: ('A' for Active; 'I' for Inactive)
REMARK    1  A    between atoms: C_2  and  N_3 
REMARK    2  A    between atoms: C_2  and  C_12 
REMARK       I    between atoms: N_3  and  C_4 
REMARK    3  A    between atoms: C_4  and  C_5 
REMARK    4  A    between atoms: C_12  and  C_13 
REMARK       I    between atoms: C_13  and  N_14 
REMARK    5  A    between atoms: N_14  and  C_15 
REMARK    6  A    between atoms: C_17  and  C_18 
ROOT
HETATM    1  C   UNL     1      -5.601 -14.208 -36.318  1.00  0.00     0.224 C 
HETATM    2  N   UNL     1      -5.661 -12.988 -36.965  1.00  0.00    -0.327 N 
HETATM    3  O   UNL     1      -5.928 -15.298 -36.780  1.00  0.00    -0.273 OA
HETATM    4  H   UNL     1      -5.266 -12.192 -36.479  1.00  0.00     0.169 HD
ENDROOT
BRANCH   1   5
HETATM    5  C   UNL     1      -5.018 -14.123 -34.923  1.00  0.00     0.128 C 
BRANCH   5   6
HETATM    6  C   UNL     1      -3.616 -14.741 -34.888  1.00  0.00     0.089 C 
HETATM    7  C   UNL     1      -3.641 -16.212 -34.466  1.00  0.00     0.032 C 
BRANCH   6   8
HETATM    8  N   UNL     1      -2.918 -14.562 -36.161  1.00  0.00    -0.352 N 
HETATM    9  C   UNL     1      -1.543 -14.533 -36.279  1.00  0.00     0.252 C 
HETATM   10  O   UNL     1      -0.782 -14.590 -35.321  1.00  0.00    -0.268 OA
HETATM   11  H   UNL     1      -3.465 -14.729 -36.996  1.00  0.00     0.163 HD
BRANCH   9  12
HETATM   12  C   UNL     1      -1.006 -14.493 -37.670  1.00  0.00     0.032 A 
HETATM   13  C   UNL     1       0.278 -14.958 -37.986  1.00  0.00     0.017 A 
HETATM   14  C   UNL     1       0.748 -14.876 -39.300  1.00  0.00     0.001 A 
HETATM   15  C   UNL     1      -0.064 -14.342 -40.300  1.00  0.00     0.000 A 
HETATM   16  C   UNL     1      -1.350 -13.897 -39.995  1.00  0.00     0.001 A 
HETATM   17  C   UNL     1      -1.821 -13.976 -38.682  1.00  0.00     0.017 A 
ENDBRANCH   9  12
ENDBRANCH   6   8
ENDBRANCH   5   6
ENDBRANCH   1   5
BRANCH   2  18
HETATM   18  C   UNL     1      -6.204 -12.725 -38.241  1.00  0.00     0.035 A 
HETATM   19  C   UNL     1      -7.558 -12.874 -38.559  1.00  0.00     0.042 A 
HETATM   20  C   UNL     1      -8.044 -12.569 -39.842  1.00  0.00    -0.021 A 
HETATM   21  C   UNL     1      -7.144 -12.119 -40.815  1.00  0.00     0.012 A 
HETATM   22  C   UNL     1      -5.789 -11.971 -40.510  1.00  0.00     0.003 A 
HETATM   23  C   UNL     1      -5.324 -12.267 -39.228  1.00  0.00     0.029 A 
BRANCH  20  24
HETATM   24  C   UNL     1      -9.466 -12.698 -40.130  1.00  0.00     0.010 A 
HETATM   25  C   UNL     1     -10.293 -13.846 -40.202  1.00  0.00     0.152 A 
HETATM   26  N   UNL     1     -11.563 -13.554 -40.495  1.00  0.00    -0.187 NA
HETATM   27  N   UNL     1     -11.554 -12.219 -40.626  1.00  0.00    -0.289 N 
HETATM   28  H   UNL     1     -12.425 -11.755 -40.861  1.00  0.00     0.188 HD
HETATM   29  C   UNL     1     -10.327 -11.659 -40.416  1.00  0.00     0.123 A 
ENDBRANCH  20  24
ENDBRANCH   2  18
TORSDOF 6
ENDMDL
MODEL 10
REMARK VINA RESULT:      -7.7      4.390      7.870
REMARK  6 active torsions:
REMARK  status: ('A' for Active; 'I' for Inactive)
REMARK    1  A    between atoms: C_2  and  N_3 
REMARK    2  A    between atoms: C_2  and  C_12 
REMARK       I    between atoms: N_3  and  C_4 
REMARK    3  A    between atoms: C_4  and  C_5 
REMARK    4  A    between atoms: C_12  and  C_13 
REMARK       I    between atoms: C_13  and  N_14 
REMARK    5  A    between atoms: N_14  and  C_15 
REMARK    6  A    between atoms: C_17  and  C_18 
ROOT
HETATM    1  C   UNL     1      -7.937   1.257 -31.887  1.00  0.00     0.224 C 
HETATM    2  N   UNL     1      -6.592   1.068 -31.628  1.00  0.00    -0.327 N 
HETATM    3  O   UNL     1      -8.621   0.632 -32.693  1.00  0.00    -0.273 OA
HETATM    4  H   UNL     1      -6.193   1.603 -30.866  1.00  0.00     0.169 HD
ENDROOT
BRANCH   1   5
HETATM    5  C   UNL     1      -8.574   2.323 -31.022  1.00  0.00     0.128 C 
BRANCH   5   6
HETATM    6  C   UNL     1      -9.468   3.237 -31.866  1.00  0.00     0.089 C 
HETATM    7  C   UNL     1      -8.740   3.789 -33.093  1.00  0.00     0.032 C 
BRANCH   6   8
HETATM    8  N   UNL     1     -10.716   2.572 -32.239  1.00  0.00    -0.352 N 
HETATM    9  C   UNL     1     -11.847   3.247 -32.652  1.00  0.00     0.252 C 
HETATM   10  O   UNL     1     -11.930   4.469 -32.682  1.00  0.00    -0.268 OA
HETATM   11  H   UNL     1     -10.648   1.584 -32.448  1.00  0.00     0.163 HD
BRANCH   9  12
HETATM   12  C   UNL     1     -12.975   2.401 -33.137  1.00  0.00     0.032 A 
HETATM   13  C   UNL     1     -14.275   2.529 -32.628  1.00  0.00     0.017 A 
HETATM   14  C   UNL     1     -15.294   1.695 -33.096  1.00  0.00     0.001 A 
HETATM   15  C   UNL     1     -15.023   0.742 -34.078  1.00  0.00     0.000 A 
HETATM   16  C   UNL     1     -13.736   0.626 -34.602  1.00  0.00     0.001 A 
HETATM   17  C   UNL     1     -12.715   1.456 -34.136  1.00  0.00     0.017 A 
ENDBRANCH   9  12
ENDBRANCH   6   8
ENDBRANCH   5   6
ENDBRANCH   1   5
BRANCH   2  18
HETATM   18  C   UNL     1      -5.707   0.199 -32.301  1.00  0.00     0.035 A 
HETATM   19  C   UNL     1      -6.097  -1.008 -32.892  1.00  0.00     0.042 A 
HETATM   20  C   UNL     1      -5.174  -1.819 -33.574  1.00  0.00    -0.021 A 
HETATM   21  C   UNL     1      -3.838  -1.405 -33.646  1.00  0.00     0.012 A 
HETATM   22  C   UNL     1      -3.436  -0.205 -33.056  1.00  0.00     0.003 A 
HETATM   23  C   UNL     1      -4.368   0.594 -32.393  1.00  0.00     0.029 A 
BRANCH  20  24
HETATM   24  C   UNL     1      -5.619  -3.050 -34.211  1.00  0.00     0.010 A 
HETATM   25  C   UNL     1      -4.922  -4.253 -34.483  1.00  0.00     0.152 A 
HETATM   26  N   UNL     1      -5.682  -5.169 -35.088  1.00  0.00    -0.187 NA
HETATM   27  N   UNL     1      -6.866  -4.553 -35.220  1.00  0.00    -0.289 N 
HETATM   28  H   UNL     1      -7.622  -5.059 -35.670  1.00  0.00     0.188 HD
HETATM   29  C   UNL     1      -6.882  -3.287 -34.711  1.00  0.00     0.123 A 
ENDBRANCH  20  24
ENDBRANCH   2  18
TORSDOF 6
ENDMDL
