MODEL 1
REMARK VINA RESULT:      -7.9      0.000      0.000
REMARK  7 active torsions:
REMARK  status: ('A' for Active; 'I' for Inactive)
REMARK    1  A    between atoms: C_2  and  S_3 
REMARK    2  A    between atoms: C_2  and  C_20 
REMARK    3  A    between atoms: S_3  and  C_4 
REMARK    4  A    between atoms: C_4  and  C_5 
REMARK       I    between atoms: C_5  and  N_6 
REMARK    5  A    between atoms: N_6  and  C_7 
REMARK    6  A    between atoms: C_10  and  C_11 
REMARK       I    between atoms: C_11  and  N_12 
REMARK    7  A    between atoms: N_12  and  C_13 
ROOT
HETATM    1  C   UNL     1      -7.507   3.961 -33.307  1.00  0.00     0.231 C 
HETATM    2  N   UNL     1      -6.695   3.443 -32.309  1.00  0.00    -0.327 N 
HETATM    3  O   UNL     1      -7.178   4.793 -34.149  1.00  0.00    -0.272 OA
HETATM    4  H   UNL     1      -7.115   2.765 -31.685  1.00  0.00     0.169 HD
ENDROOT
BRANCH   1   5
HETATM    5  C   UNL     1      -8.926   3.407 -33.277  1.00  0.00     0.177 C 
BRANCH   5   6
HETATM    6  S   UNL     1      -9.205   2.529 -31.704  1.00  0.00    -0.147 SA
BRANCH   6   7
HETATM    7  C   UNL     1      -9.463   0.847 -32.382  1.00  0.00     0.113 C 
HETATM    8  C   UNL     1     -10.331   0.928 -33.636  1.00  0.00     0.029 C 
BRANCH   7   9
HETATM    9  C   UNL     1      -8.148   0.183 -32.651  1.00  0.00     0.118 A 
HETATM   10  N   UNL     1      -7.029   0.366 -31.976  1.00  0.00    -0.232 NA
HETATM   11  C   UNL     1      -6.104  -0.468 -32.556  1.00  0.00     0.085 A 
HETATM   12  C   UNL     1      -6.660  -1.156 -33.629  1.00  0.00     0.062 A 
HETATM   13  C   UNL     1      -4.762  -0.695 -32.219  1.00  0.00     0.034 A 
HETATM   14  N   UNL     1      -7.956  -0.713 -33.677  1.00  0.00    -0.342 N 
HETATM   15  C   UNL     1      -5.949  -2.073 -34.404  1.00  0.00     0.032 A 
HETATM   16  H   UNL     1      -8.656  -0.997 -34.348  1.00  0.00     0.167 HD
HETATM   17  C   UNL     1      -4.611  -2.289 -34.052  1.00  0.00     0.002 A 
HETATM   18  C   UNL     1      -4.025  -1.614 -32.978  1.00  0.00     0.002 A 
ENDBRANCH   7   9
ENDBRANCH   6   7
ENDBRANCH   5   6
ENDBRANCH   1   5
BRANCH   2  19
HETATM   19  C   UNL     1      -5.352   3.779 -32.039  1.00  0.00     0.034 A 
HETATM   20  C   UNL     1      -4.255   3.054 -32.511  1.00  0.00     0.030 A 
HETATM   21  C   UNL     1      -2.946   3.468 -32.227  1.00  0.00     0.019 A 
HETATM   22  C   UNL     1      -2.717   4.626 -31.479  1.00  0.00     0.032 A 
HETATM   23  C   UNL     1      -3.814   5.336 -30.976  1.00  0.00     0.019 A 
HETATM   24  C   UNL     1      -5.120   4.914 -31.253  1.00  0.00     0.030 A 
BRANCH  22  25
HETATM   25  C   UNL     1      -1.346   5.135 -31.180  1.00  0.00     0.251 C 
HETATM   26  N   UNL     1      -1.226   5.970 -30.086  1.00  0.00    -0.353 N 
HETATM   27  H   UNL     1      -2.014   6.050 -29.459  1.00  0.00     0.163 HD
HETATM   28  O   UNL     1      -0.402   4.771 -31.871  1.00  0.00    -0.268 OA
BRANCH  26  29
HETATM   29  C   UNL     1       0.048   6.469 -29.577  1.00  0.00     0.076 C 
HETATM   30  C   UNL     1      -0.091   7.861 -28.968  1.00  0.00     0.032 C 
HETATM   31  C   UNL     1       0.730   5.498 -28.617  1.00  0.00     0.032 C 
ENDBRANCH  26  29
ENDBRANCH  22  25
ENDBRANCH   2  19
TORSDOF 7
ENDMDL
MODEL 2
REMARK VINA RESULT:      -7.4      1.784      2.341
REMARK  7 active torsions:
REMARK  status: ('A' for Active; 'I' for Inactive)
REMARK    1  A    between atoms: C_2  and  S_3 
REMARK    2  A    between atoms: C_2  and  C_20 
REMARK    3  A    between atoms: S_3  and  C_4 
REMARK    4  A    between atoms: C_4  and  C_5 
REMARK       I    between atoms: C_5  and  N_6 
REMARK    5  A    between atoms: N_6  and  C_7 
REMARK    6  A    between atoms: C_10  and  C_11 
REMARK       I    between atoms: C_11  and  N_12 
REMARK    7  A    between atoms: N_12  and  C_13 
ROOT
HETATM    1  C   UNL     1      -6.931   2.234 -32.385  1.00  0.00     0.231 C 
HETATM    2  N   UNL     1      -6.250   3.341 -32.867  1.00  0.00    -0.327 N 
HETATM    3  O   UNL     1      -6.604   1.544 -31.422  1.00  0.00    -0.272 OA
HETATM    4  H   UNL     1      -6.645   3.804 -33.676  1.00  0.00     0.169 HD
ENDROOT
BRANCH   1   5
HETATM    5  C   UNL     1      -8.183   1.901 -33.188  1.00  0.00     0.177 C 
BRANCH   5   6
HETATM    6  S   UNL     1      -8.529   0.115 -33.067  1.00  0.00    -0.147 SA
BRANCH   6   7
HETATM    7  C   UNL     1      -7.777  -0.408 -34.653  1.00  0.00     0.113 C 
HETATM    8  C   UNL     1      -7.184   0.807 -35.363  1.00  0.00     0.029 C 
BRANCH   7   9
HETATM    9  C   UNL     1      -6.756  -1.477 -34.421  1.00  0.00     0.118 A 
HETATM   10  N   UNL     1      -5.610  -1.339 -33.782  1.00  0.00    -0.232 NA
HETATM   11  C   UNL     1      -5.026  -2.582 -33.790  1.00  0.00     0.085 A 
HETATM   12  C   UNL     1      -5.816  -3.497 -34.475  1.00  0.00     0.062 A 
HETATM   13  C   UNL     1      -3.814  -3.009 -33.228  1.00  0.00     0.034 A 
HETATM   14  N   UNL     1      -6.903  -2.767 -34.879  1.00  0.00    -0.342 N 
HETATM   15  C   UNL     1      -5.468  -4.839 -34.641  1.00  0.00     0.032 A 
HETATM   16  H   UNL     1      -7.684  -3.114 -35.418  1.00  0.00     0.167 HD
HETATM   17  C   UNL     1      -4.256  -5.248 -34.072  1.00  0.00     0.002 A 
HETATM   18  C   UNL     1      -3.441  -4.352 -33.376  1.00  0.00     0.002 A 
ENDBRANCH   7   9
ENDBRANCH   6   7
ENDBRANCH   5   6
ENDBRANCH   1   5
BRANCH   2  19
HETATM   19  C   UNL     1      -5.041   3.880 -32.378  1.00  0.00     0.034 A 
HETATM   20  C   UNL     1      -4.965   4.986 -31.528  1.00  0.00     0.030 A 
HETATM   21  C   UNL     1      -3.728   5.447 -31.057  1.00  0.00     0.019 A 
HETATM   22  C   UNL     1      -2.547   4.794 -31.420  1.00  0.00     0.032 A 
HETATM   23  C   UNL     1      -2.615   3.705 -32.298  1.00  0.00     0.019 A 
HETATM   24  C   UNL     1      -3.853   3.255 -32.774  1.00  0.00     0.030 A 
BRANCH  22  25
HETATM   25  C   UNL     1      -1.205   5.215 -30.918  1.00  0.00     0.251 C 
HETATM   26  N   UNL     1      -1.176   5.818 -29.676  1.00  0.00    -0.353 N 
HETATM   27  H   UNL     1      -2.013   5.786 -29.111  1.00  0.00     0.163 HD
HETATM   28  O   UNL     1      -0.207   4.979 -31.589  1.00  0.00    -0.268 OA
BRANCH  26  29
HETATM   29  C   UNL     1       0.051   6.189 -28.978  1.00  0.00     0.076 C 
HETATM   30  C   UNL     1       0.596   7.529 -29.465  1.00  0.00     0.032 C 
HETATM   31  C   UNL     1      -0.092   6.156 -27.459  1.00  0.00     0.032 C 
ENDBRANCH  26  29
ENDBRANCH  22  25
ENDBRANCH   2  19
TORSDOF 7
ENDMDL
MODEL 3
REMARK VINA RESULT:      -7.3      2.276      3.209
REMARK  7 active torsions:
REMARK  status: ('A' for Active; 'I' for Inactive)
REMARK    1  A    between atoms: C_2  and  S_3 
REMARK    2  A    between atoms: C_2  and  C_20 
REMARK    3  A    between atoms: S_3  and  C_4 
REMARK    4  A    between atoms: C_4  and  C_5 
REMARK       I    between atoms: C_5  and  N_6 
REMARK    5  A    between atoms: N_6  and  C_7 
REMARK    6  A    between atoms: C_10  and  C_11 
REMARK       I    between atoms: C_11  and  N_12 
REMARK    7  A    between atoms: N_12  and  C_13 
ROOT
HETATM    1  C   UNL     1     -10.015   4.747 -32.988  1.00  0.00     0.231 C 
HETATM    2  N   UNL     1      -9.127   3.822 -32.461  1.00  0.00    -0.327 N 
HETATM    3  O   UNL     1      -9.716   5.809 -33.530  1.00  0.00    -0.272 OA
HETATM    4  H   UNL     1      -9.528   2.992 -32.040  1.00  0.00     0.169 HD
ENDROOT
BRANCH   1   5
HETATM    5  C   UNL     1     -11.474   4.341 -32.829  1.00  0.00     0.177 C 
BRANCH   5   6
HETATM    6  S   UNL     1     -12.010   3.402 -34.297  1.00  0.00    -0.147 SA
BRANCH   6   7
HETATM    7  C   UNL     1     -11.936   1.719 -33.576  1.00  0.00     0.113 C 
HETATM    8  C   UNL     1     -12.926   0.809 -34.299  1.00  0.00     0.029 C 
BRANCH   7   9
HETATM    9  C   UNL     1     -10.538   1.186 -33.633  1.00  0.00     0.118 A 
HETATM   10  N   UNL     1      -9.830   0.738 -32.614  1.00  0.00    -0.232 NA
HETATM   11  C   UNL     1      -8.632   0.327 -33.144  1.00  0.00     0.085 A 
HETATM   12  C   UNL     1      -8.591   0.555 -34.514  1.00  0.00     0.062 A 
HETATM   13  C   UNL     1      -7.522  -0.255 -32.514  1.00  0.00     0.034 A 
HETATM   14  N   UNL     1      -9.809   1.115 -34.798  1.00  0.00    -0.342 N 
HETATM   15  C   UNL     1      -7.493   0.234 -35.314  1.00  0.00     0.032 A 
HETATM   16  H   UNL     1     -10.125   1.421 -35.708  1.00  0.00     0.167 HD
HETATM   17  C   UNL     1      -6.396  -0.349 -34.668  1.00  0.00     0.002 A 
HETATM   18  C   UNL     1      -6.407  -0.591 -33.292  1.00  0.00     0.002 A 
ENDBRANCH   7   9
ENDBRANCH   6   7
ENDBRANCH   5   6
ENDBRANCH   1   5
BRANCH   2  19
HETATM   19  C   UNL     1      -7.720   3.919 -32.409  1.00  0.00     0.034 A 
HETATM   20  C   UNL     1      -7.005   4.315 -31.277  1.00  0.00     0.030 A 
HETATM   21  C   UNL     1      -5.604   4.358 -31.291  1.00  0.00     0.019 A 
HETATM   22  C   UNL     1      -4.898   3.987 -32.439  1.00  0.00     0.032 A 
HETATM   23  C   UNL     1      -5.612   3.621 -33.586  1.00  0.00     0.019 A 
HETATM   24  C   UNL     1      -7.011   3.590 -33.570  1.00  0.00     0.030 A 
BRANCH  22  25
HETATM   25  C   UNL     1      -3.406   3.975 -32.498  1.00  0.00     0.251 C 
HETATM   26  N   UNL     1      -2.816   4.926 -33.307  1.00  0.00    -0.353 N 
HETATM   27  H   UNL     1      -3.395   5.670 -33.668  1.00  0.00     0.163 HD
HETATM   28  O   UNL     1      -2.780   3.171 -31.816  1.00  0.00    -0.268 OA
BRANCH  26  29
HETATM   29  C   UNL     1      -1.375   5.137 -33.399  1.00  0.00     0.076 C 
HETATM   30  C   UNL     1      -0.954   5.569 -34.801  1.00  0.00     0.032 C 
HETATM   31  C   UNL     1      -0.841   6.088 -32.331  1.00  0.00     0.032 C 
ENDBRANCH  26  29
ENDBRANCH  22  25
ENDBRANCH   2  19
TORSDOF 7
ENDMDL
MODEL 4
REMARK VINA RESULT:      -7.3      3.784      6.708
REMARK  7 active torsions:
REMARK  status: ('A' for Active; 'I' for Inactive)
REMARK    1  A    between atoms: C_2  and  S_3 
REMARK    2  A    between atoms: C_2  and  C_20 
REMARK    3  A    between atoms: S_3  and  C_4 
REMARK    4  A    between atoms: C_4  and  C_5 
REMARK       I    between atoms: C_5  and  N_6 
REMARK    5  A    between atoms: N_6  and  C_7 
REMARK    6  A    between atoms: C_10  and  C_11 
REMARK       I    between atoms: C_11  and  N_12 
REMARK    7  A    between atoms: N_12  and  C_13 
ROOT
HETATM    1  C   UNL     1     -10.812   1.210 -33.928  1.00  0.00     0.231 C 
HETATM    2  N   UNL     1      -9.560   1.512 -34.440  1.00  0.00    -0.327 N 
HETATM    3  O   UNL     1     -11.093   0.243 -33.224  1.00  0.00    -0.272 OA
HETATM    4  H   UNL     1      -9.488   2.346 -35.010  1.00  0.00     0.169 HD
ENDROOT
BRANCH   1   5
HETATM    5  C   UNL     1     -11.886   2.212 -34.333  1.00  0.00     0.177 C 
BRANCH   5   6
HETATM    6  S   UNL     1     -12.389   3.189 -32.878  1.00  0.00    -0.147 SA
BRANCH   6   7
HETATM    7  C   UNL     1     -11.267   4.617 -33.118  1.00  0.00     0.113 C 
HETATM    8  C   UNL     1     -11.899   5.871 -32.516  1.00  0.00     0.029 C 
BRANCH   7   9
HETATM    9  C   UNL     1      -9.921   4.330 -32.531  1.00  0.00     0.118 A 
HETATM   10  N   UNL     1      -8.756   4.492 -33.130  1.00  0.00    -0.232 NA
HETATM   11  C   UNL     1      -7.807   4.134 -32.204  1.00  0.00     0.085 A 
HETATM   12  C   UNL     1      -8.402   3.715 -31.020  1.00  0.00     0.062 A 
HETATM   13  C   UNL     1      -6.408   4.142 -32.301  1.00  0.00     0.034 A 
HETATM   14  N   UNL     1      -9.747   3.835 -31.259  1.00  0.00    -0.342 N 
HETATM   15  C   UNL     1      -7.678   3.292 -29.904  1.00  0.00     0.032 A 
HETATM   16  H   UNL     1     -10.487   3.604 -30.612  1.00  0.00     0.167 HD
HETATM   17  C   UNL     1      -6.283   3.309 -30.019  1.00  0.00     0.002 A 
HETATM   18  C   UNL     1      -5.655   3.727 -31.195  1.00  0.00     0.002 A 
ENDBRANCH   7   9
ENDBRANCH   6   7
ENDBRANCH   5   6
ENDBRANCH   1   5
BRANCH   2  19
HETATM   19  C   UNL     1      -8.371   0.766 -34.288  1.00  0.00     0.034 A 
HETATM   20  C   UNL     1      -7.755   0.058 -35.321  1.00  0.00     0.030 A 
HETATM   21  C   UNL     1      -6.557  -0.635 -35.102  1.00  0.00     0.019 A 
HETATM   22  C   UNL     1      -5.948  -0.614 -33.844  1.00  0.00     0.032 A 
HETATM   23  C   UNL     1      -6.580   0.068 -32.797  1.00  0.00     0.019 A 
HETATM   24  C   UNL     1      -7.782   0.750 -33.018  1.00  0.00     0.030 A 
BRANCH  22  25
HETATM   25  C   UNL     1      -4.652  -1.300 -33.563  1.00  0.00     0.251 C 
HETATM   26  N   UNL     1      -4.705  -2.671 -33.404  1.00  0.00    -0.353 N 
HETATM   27  H   UNL     1      -5.561  -3.147 -33.652  1.00  0.00     0.163 HD
HETATM   28  O   UNL     1      -3.617  -0.645 -33.526  1.00  0.00    -0.268 OA
BRANCH  26  29
HETATM   29  C   UNL     1      -3.528  -3.518 -33.239  1.00  0.00     0.076 C 
HETATM   30  C   UNL     1      -3.042  -3.537 -31.792  1.00  0.00     0.032 C 
HETATM   31  C   UNL     1      -3.726  -4.929 -33.787  1.00  0.00     0.032 C 
ENDBRANCH  26  29
ENDBRANCH  22  25
ENDBRANCH   2  19
TORSDOF 7
ENDMDL
MODEL 5
REMARK VINA RESULT:      -7.3      2.971      7.594
REMARK  7 active torsions:
REMARK  status: ('A' for Active; 'I' for Inactive)
REMARK    1  A    between atoms: C_2  and  S_3 
REMARK    2  A    between atoms: C_2  and  C_20 
REMARK    3  A    between atoms: S_3  and  C_4 
REMARK    4  A    between atoms: C_4  and  C_5 
REMARK       I    between atoms: C_5  and  N_6 
REMARK    5  A    between atoms: N_6  and  C_7 
REMARK    6  A    between atoms: C_10  and  C_11 
REMARK       I    between atoms: C_11  and  N_12 
REMARK    7  A    between atoms: N_12  and  C_13 
ROOT
HETATM    1  C   UNL     1      -6.539   3.518 -30.185  1.00  0.00     0.231 C 
HETATM    2  N   UNL     1      -7.221   2.749 -31.116  1.00  0.00    -0.327 N 
HETATM    3  O   UNL     1      -5.361   3.388 -29.861  1.00  0.00    -0.272 OA
HETATM    4  H   UNL     1      -8.196   2.978 -31.271  1.00  0.00     0.169 HD
ENDROOT
BRANCH   1   5
HETATM    5  C   UNL     1      -7.406   4.593 -29.541  1.00  0.00     0.177 C 
BRANCH   5   6
HETATM    6  S   UNL     1      -6.657   6.231 -29.821  1.00  0.00    -0.147 SA
BRANCH   6   7
HETATM    7  C   UNL     1      -6.872   6.312 -31.638  1.00  0.00     0.113 C 
HETATM    8  C   UNL     1      -7.413   7.686 -32.029  1.00  0.00     0.029 C 
BRANCH   7   9
HETATM    9  C   UNL     1      -5.584   5.998 -32.333  1.00  0.00     0.118 A 
HETATM   10  N   UNL     1      -5.425   5.783 -33.625  1.00  0.00    -0.232 NA
HETATM   11  C   UNL     1      -4.080   5.568 -33.805  1.00  0.00     0.085 A 
HETATM   12  C   UNL     1      -3.403   5.623 -32.593  1.00  0.00     0.062 A 
HETATM   13  C   UNL     1      -3.359   5.318 -34.981  1.00  0.00     0.034 A 
HETATM   14  N   UNL     1      -4.383   5.884 -31.671  1.00  0.00    -0.342 N 
HETATM   15  C   UNL     1      -2.024   5.441 -32.475  1.00  0.00     0.032 A 
HETATM   16  H   UNL     1      -4.250   5.980 -30.674  1.00  0.00     0.167 HD
HETATM   17  C   UNL     1      -1.320   5.196 -33.660  1.00  0.00     0.002 A 
HETATM   18  C   UNL     1      -1.973   5.136 -34.893  1.00  0.00     0.002 A 
ENDBRANCH   7   9
ENDBRANCH   6   7
ENDBRANCH   5   6
ENDBRANCH   1   5
BRANCH   2  19
HETATM   19  C   UNL     1      -6.720   1.654 -31.852  1.00  0.00     0.034 A 
HETATM   20  C   UNL     1      -6.528   1.666 -33.235  1.00  0.00     0.030 A 
HETATM   21  C   UNL     1      -5.995   0.549 -33.895  1.00  0.00     0.019 A 
HETATM   22  C   UNL     1      -5.633  -0.592 -33.173  1.00  0.00     0.032 A 
HETATM   23  C   UNL     1      -5.855  -0.619 -31.791  1.00  0.00     0.019 A 
HETATM   24  C   UNL     1      -6.397   0.495 -31.138  1.00  0.00     0.030 A 
BRANCH  22  25
HETATM   25  C   UNL     1      -5.025  -1.794 -33.816  1.00  0.00     0.251 C 
HETATM   26  N   UNL     1      -5.902  -2.773 -34.241  1.00  0.00    -0.353 N 
HETATM   27  H   UNL     1      -6.889  -2.556 -34.253  1.00  0.00     0.163 HD
HETATM   28  O   UNL     1      -3.811  -1.846 -33.976  1.00  0.00    -0.268 OA
BRANCH  26  29
HETATM   29  C   UNL     1      -5.500  -3.959 -34.990  1.00  0.00     0.076 C 
HETATM   30  C   UNL     1      -4.657  -4.907 -34.141  1.00  0.00     0.032 C 
HETATM   31  C   UNL     1      -6.676  -4.681 -35.643  1.00  0.00     0.032 C 
ENDBRANCH  26  29
ENDBRANCH  22  25
ENDBRANCH   2  19
TORSDOF 7
ENDMDL
MODEL 6
REMARK VINA RESULT:      -7.2      3.077      8.000
REMARK  7 active torsions:
REMARK  status: ('A' for Active; 'I' for Inactive)
REMARK    1  A    between atoms: C_2  and  S_3 
REMARK    2  A    between atoms: C_2  and  C_20 
REMARK    3  A    between atoms: S_3  and  C_4 
REMARK    4  A    between atoms: C_4  and  C_5 
REMARK       I    between atoms: C_5  and  N_6 
REMARK    5  A    between atoms: N_6  and  C_7 
REMARK    6  A    between atoms: C_10  and  C_11 
REMARK       I    between atoms: C_11  and  N_12 
REMARK    7  A    between atoms: N_12  and  C_13 
ROOT
HETATM    1  C   UNL     1      -6.484   4.717 -29.395  1.00  0.00     0.231 C 
HETATM    2  N   UNL     1      -5.705   3.590 -29.183  1.00  0.00    -0.327 N 
HETATM    3  O   UNL     1      -6.943   5.088 -30.472  1.00  0.00    -0.272 OA
HETATM    4  H   UNL     1      -5.397   3.419 -28.234  1.00  0.00     0.169 HD
ENDROOT
BRANCH   1   5
HETATM    5  C   UNL     1      -6.737   5.521 -28.125  1.00  0.00     0.177 C 
BRANCH   5   6
HETATM    6  S   UNL     1      -5.162   5.781 -27.244  1.00  0.00    -0.147 SA
BRANCH   6   7
HETATM    7  C   UNL     1      -4.632   7.314 -28.096  1.00  0.00     0.113 C 
HETATM    8  C   UNL     1      -4.423   8.424 -27.068  1.00  0.00     0.029 C 
BRANCH   7   9
HETATM    9  C   UNL     1      -3.401   7.062 -28.910  1.00  0.00     0.118 A 
HETATM   10  N   UNL     1      -2.222   7.628 -28.738  1.00  0.00    -0.232 NA
HETATM   11  C   UNL     1      -1.400   7.072 -29.688  1.00  0.00     0.085 A 
HETATM   12  C   UNL     1      -2.097   6.167 -30.479  1.00  0.00     0.062 A 
HETATM   13  C   UNL     1      -0.037   7.291 -29.936  1.00  0.00     0.034 A 
HETATM   14  N   UNL     1      -3.370   6.190 -29.974  1.00  0.00    -0.342 N 
HETATM   15  C   UNL     1      -1.512   5.452 -31.526  1.00  0.00     0.032 A 
HETATM   16  H   UNL     1      -4.156   5.656 -30.318  1.00  0.00     0.167 HD
HETATM   17  C   UNL     1      -0.150   5.681 -31.757  1.00  0.00     0.002 A 
HETATM   18  C   UNL     1       0.578   6.584 -30.978  1.00  0.00     0.002 A 
ENDBRANCH   7   9
ENDBRANCH   6   7
ENDBRANCH   5   6
ENDBRANCH   1   5
BRANCH   2  19
HETATM   19  C   UNL     1      -5.259   2.665 -30.152  1.00  0.00     0.034 A 
HETATM   20  C   UNL     1      -4.230   2.921 -31.060  1.00  0.00     0.030 A 
HETATM   21  C   UNL     1      -3.819   1.940 -31.974  1.00  0.00     0.019 A 
HETATM   22  C   UNL     1      -4.424   0.681 -31.978  1.00  0.00     0.032 A 
HETATM   23  C   UNL     1      -5.478   0.432 -31.091  1.00  0.00     0.019 A 
HETATM   24  C   UNL     1      -5.892   1.417 -30.188  1.00  0.00     0.030 A 
BRANCH  22  25
HETATM   25  C   UNL     1      -4.001  -0.414 -32.901  1.00  0.00     0.251 C 
HETATM   26  N   UNL     1      -4.928  -1.410 -33.139  1.00  0.00    -0.353 N 
HETATM   27  H   UNL     1      -5.877  -1.261 -32.827  1.00  0.00     0.163 HD
HETATM   28  O   UNL     1      -2.895  -0.367 -33.428  1.00  0.00    -0.268 OA
BRANCH  26  29
HETATM   29  C   UNL     1      -4.733  -2.493 -34.097  1.00  0.00     0.076 C 
HETATM   30  C   UNL     1      -3.924  -3.640 -33.499  1.00  0.00     0.032 C 
HETATM   31  C   UNL     1      -6.039  -2.985 -34.716  1.00  0.00     0.032 C 
ENDBRANCH  26  29
ENDBRANCH  22  25
ENDBRANCH   2  19
TORSDOF 7
ENDMDL
MODEL 7
REMARK VINA RESULT:      -7.1      2.818      9.290
REMARK  7 active torsions:
REMARK  status: ('A' for Active; 'I' for Inactive)
REMARK    1  A    between atoms: C_2  and  S_3 
REMARK    2  A    between atoms: C_2  and  C_20 
REMARK    3  A    between atoms: S_3  and  C_4 
REMARK    4  A    between atoms: C_4  and  C_5 
REMARK       I    between atoms: C_5  and  N_6 
REMARK    5  A    between atoms: N_6  and  C_7 
REMARK    6  A    between atoms: C_10  and  C_11 
REMARK       I    between atoms: C_11  and  N_12 
REMARK    7  A    between atoms: N_12  and  C_13 
ROOT
HETATM    1  C   UNL     1      -3.986   5.927 -32.722  1.00  0.00     0.231 C 
HETATM    2  N   UNL     1      -4.246   4.872 -31.861  1.00  0.00    -0.327 N 
HETATM    3  O   UNL     1      -3.971   5.872 -33.950  1.00  0.00    -0.272 OA
HETATM    4  H   UNL     1      -4.217   5.074 -30.868  1.00  0.00     0.169 HD
ENDROOT
BRANCH   1   5
HETATM    5  C   UNL     1      -3.690   7.235 -32.000  1.00  0.00     0.177 C 
BRANCH   5   6
HETATM    6  S   UNL     1      -1.903   7.586 -32.082  1.00  0.00    -0.147 SA
BRANCH   6   7
HETATM    7  C   UNL     1      -1.312   6.195 -31.047  1.00  0.00     0.113 C 
HETATM    8  C   UNL     1      -0.465   5.249 -31.896  1.00  0.00     0.029 C 
BRANCH   7   9
HETATM    9  C   UNL     1      -0.561   6.708 -29.859  1.00  0.00     0.118 A 
HETATM   10  N   UNL     1       0.372   7.641 -29.867  1.00  0.00    -0.232 NA
HETATM   11  C   UNL     1       0.750   7.803 -28.556  1.00  0.00     0.085 A 
HETATM   12  C   UNL     1       0.055   6.930 -27.728  1.00  0.00     0.062 A 
HETATM   13  C   UNL     1       1.685   8.683 -27.992  1.00  0.00     0.034 A 
HETATM   14  N   UNL     1      -0.761   6.234 -28.582  1.00  0.00    -0.342 N 
HETATM   15  C   UNL     1       0.236   6.874 -26.345  1.00  0.00     0.032 A 
HETATM   16  H   UNL     1      -1.405   5.501 -28.322  1.00  0.00     0.167 HD
HETATM   17  C   UNL     1       1.172   7.762 -25.799  1.00  0.00     0.002 A 
HETATM   18  C   UNL     1       1.885   8.652 -26.606  1.00  0.00     0.002 A 
ENDBRANCH   7   9
ENDBRANCH   6   7
ENDBRANCH   5   6
ENDBRANCH   1   5
BRANCH   2  19
HETATM   19  C   UNL     1      -4.512   3.530 -32.207  1.00  0.00     0.034 A 
HETATM   20  C   UNL     1      -3.538   2.531 -32.269  1.00  0.00     0.030 A 
HETATM   21  C   UNL     1      -3.884   1.211 -32.590  1.00  0.00     0.019 A 
HETATM   22  C   UNL     1      -5.216   0.870 -32.840  1.00  0.00     0.032 A 
HETATM   23  C   UNL     1      -6.190   1.875 -32.812  1.00  0.00     0.019 A 
HETATM   24  C   UNL     1      -5.839   3.194 -32.501  1.00  0.00     0.030 A 
BRANCH  22  25
HETATM   25  C   UNL     1      -5.647  -0.526 -33.148  1.00  0.00     0.251 C 
HETATM   26  N   UNL     1      -4.663  -1.391 -33.585  1.00  0.00    -0.353 N 
HETATM   27  H   UNL     1      -3.700  -1.094 -33.509  1.00  0.00     0.163 HD
HETATM   28  O   UNL     1      -6.815  -0.852 -32.967  1.00  0.00    -0.268 OA
BRANCH  26  29
HETATM   29  C   UNL     1      -4.875  -2.815 -33.822  1.00  0.00     0.076 C 
HETATM   30  C   UNL     1      -5.343  -3.088 -35.249  1.00  0.00     0.032 C 
HETATM   31  C   UNL     1      -3.666  -3.669 -33.451  1.00  0.00     0.032 C 
ENDBRANCH  26  29
ENDBRANCH  22  25
ENDBRANCH   2  19
TORSDOF 7
ENDMDL
MODEL 8
REMARK VINA RESULT:      -6.9      3.475      6.870
REMARK  7 active torsions:
REMARK  status: ('A' for Active; 'I' for Inactive)
REMARK    1  A    between atoms: C_2  and  S_3 
REMARK    2  A    between atoms: C_2  and  C_20 
REMARK    3  A    between atoms: S_3  and  C_4 
REMARK    4  A    between atoms: C_4  and  C_5 
REMARK       I    between atoms: C_5  and  N_6 
REMARK    5  A    between atoms: N_6  and  C_7 
REMARK    6  A    between atoms: C_10  and  C_11 
REMARK       I    between atoms: C_11  and  N_12 
REMARK    7  A    between atoms: N_12  and  C_13 
ROOT
HETATM    1  C   UNL     1     -10.110   2.451 -32.911  1.00  0.00     0.231 C 
HETATM    2  N   UNL     1      -8.747   2.215 -32.813  1.00  0.00    -0.327 N 
HETATM    3  O   UNL     1     -10.937   1.711 -33.438  1.00  0.00    -0.272 OA
HETATM    4  H   UNL     1      -8.192   2.926 -32.352  1.00  0.00     0.169 HD
ENDROOT
BRANCH   1   5
HETATM    5  C   UNL     1     -10.536   3.778 -32.295  1.00  0.00     0.177 C 
BRANCH   5   6
HETATM    6  S   UNL     1     -10.020   3.835 -30.548  1.00  0.00    -0.147 SA
BRANCH   6   7
HETATM    7  C   UNL     1      -8.725   5.122 -30.697  1.00  0.00     0.113 C 
HETATM    8  C   UNL     1      -8.698   5.970 -29.426  1.00  0.00     0.029 C 
BRANCH   7   9
HETATM    9  C   UNL     1      -7.396   4.498 -30.984  1.00  0.00     0.118 A 
HETATM   10  N   UNL     1      -6.906   3.409 -30.422  1.00  0.00    -0.232 NA
HETATM   11  C   UNL     1      -5.685   3.200 -31.014  1.00  0.00     0.085 A 
HETATM   12  C   UNL     1      -5.405   4.199 -31.939  1.00  0.00     0.062 A 
HETATM   13  C   UNL     1      -4.752   2.172 -30.814  1.00  0.00     0.034 A 
HETATM   14  N   UNL     1      -6.502   5.019 -31.890  1.00  0.00    -0.342 N 
HETATM   15  C   UNL     1      -4.230   4.241 -32.692  1.00  0.00     0.032 A 
HETATM   16  H   UNL     1      -6.637   5.863 -32.430  1.00  0.00     0.167 HD
HETATM   17  C   UNL     1      -3.312   3.205 -32.481  1.00  0.00     0.002 A 
HETATM   18  C   UNL     1      -3.566   2.186 -31.560  1.00  0.00     0.002 A 
ENDBRANCH   7   9
ENDBRANCH   6   7
ENDBRANCH   5   6
ENDBRANCH   1   5
BRANCH   2  19
HETATM   19  C   UNL     1      -8.033   1.107 -33.317  1.00  0.00     0.034 A 
HETATM   20  C   UNL     1      -7.885   0.826 -34.677  1.00  0.00     0.030 A 
HETATM   21  C   UNL     1      -7.133  -0.278 -35.104  1.00  0.00     0.019 A 
HETATM   22  C   UNL     1      -6.504  -1.108 -34.172  1.00  0.00     0.032 A 
HETATM   23  C   UNL     1      -6.678  -0.848 -32.807  1.00  0.00     0.019 A 
HETATM   24  C   UNL     1      -7.438   0.249 -32.385  1.00  0.00     0.030 A 
BRANCH  22  25
HETATM   25  C   UNL     1      -5.659  -2.273 -34.570  1.00  0.00     0.251 C 
HETATM   26  N   UNL     1      -4.724  -2.697 -33.647  1.00  0.00    -0.353 N 
HETATM   27  H   UNL     1      -4.775  -2.322 -32.710  1.00  0.00     0.163 HD
HETATM   28  O   UNL     1      -5.851  -2.817 -35.651  1.00  0.00    -0.268 OA
BRANCH  26  29
HETATM   29  C   UNL     1      -3.893  -3.884 -33.815  1.00  0.00     0.076 C 
HETATM   30  C   UNL     1      -3.082  -4.191 -32.559  1.00  0.00     0.032 C 
HETATM   31  C   UNL     1      -4.681  -5.103 -34.289  1.00  0.00     0.032 C 
ENDBRANCH  26  29
ENDBRANCH  22  25
ENDBRANCH   2  19
TORSDOF 7
ENDMDL
MODEL 9
REMARK VINA RESULT:      -6.8      3.132      8.360
REMARK  7 active torsions:
REMARK  status: ('A' for Active; 'I' for Inactive)
REMARK    1  A    between atoms: C_2  and  S_3 
REMARK    2  A    between atoms: C_2  and  C_20 
REMARK    3  A    between atoms: S_3  and  C_4 
REMARK    4  A    between atoms: C_4  and  C_5 
REMARK       I    between atoms: C_5  and  N_6 
REMARK    5  A    between atoms: N_6  and  C_7 
REMARK    6  A    between atoms: C_10  and  C_11 
REMARK       I    between atoms: C_11  and  N_12 
REMARK    7  A    between atoms: N_12  and  C_13 
ROOT
HETATM    1  C   UNL     1      -4.465   6.712 -28.125  1.00  0.00     0.231 C 
HETATM    2  N   UNL     1      -4.036   6.015 -29.245  1.00  0.00    -0.327 N 
HETATM    3  O   UNL     1      -5.626   7.010 -27.859  1.00  0.00    -0.272 OA
HETATM    4  H   UNL     1      -3.040   5.850 -29.326  1.00  0.00     0.169 HD
ENDROOT
BRANCH   1   5
HETATM    5  C   UNL     1      -3.327   7.121 -27.198  1.00  0.00     0.177 C 
BRANCH   5   6
HETATM    6  S   UNL     1      -2.455   8.560 -27.899  1.00  0.00    -0.147 SA
BRANCH   6   7
HETATM    7  C   UNL     1      -0.942   7.700 -28.472  1.00  0.00     0.113 C 
HETATM    8  C   UNL     1      -0.577   6.594 -27.484  1.00  0.00     0.029 C 
BRANCH   7   9
HETATM    9  C   UNL     1      -1.133   7.173 -29.860  1.00  0.00     0.118 A 
HETATM   10  N   UNL     1      -1.068   5.908 -30.231  1.00  0.00    -0.232 NA
HETATM   11  C   UNL     1      -1.338   5.901 -31.578  1.00  0.00     0.085 A 
HETATM   12  C   UNL     1      -1.543   7.192 -32.050  1.00  0.00     0.062 A 
HETATM   13  C   UNL     1      -1.427   4.824 -32.471  1.00  0.00     0.034 A 
HETATM   14  N   UNL     1      -1.393   7.983 -30.941  1.00  0.00    -0.342 N 
HETATM   15  C   UNL     1      -1.836   7.485 -33.383  1.00  0.00     0.032 A 
HETATM   16  H   UNL     1      -1.465   8.991 -30.916  1.00  0.00     0.167 HD
HETATM   17  C   UNL     1      -1.924   6.397 -34.260  1.00  0.00     0.002 A 
HETATM   18  C   UNL     1      -1.723   5.087 -33.815  1.00  0.00     0.002 A 
ENDBRANCH   7   9
ENDBRANCH   6   7
ENDBRANCH   5   6
ENDBRANCH   1   5
BRANCH   2  19
HETATM   19  C   UNL     1      -4.829   5.537 -30.310  1.00  0.00     0.034 A 
HETATM   20  C   UNL     1      -5.055   6.242 -31.493  1.00  0.00     0.030 A 
HETATM   21  C   UNL     1      -5.829   5.689 -32.522  1.00  0.00     0.019 A 
HETATM   22  C   UNL     1      -6.376   4.410 -32.385  1.00  0.00     0.032 A 
HETATM   23  C   UNL     1      -6.179   3.713 -31.187  1.00  0.00     0.019 A 
HETATM   24  C   UNL     1      -5.414   4.274 -30.158  1.00  0.00     0.030 A 
BRANCH  22  25
HETATM   25  C   UNL     1      -7.175   3.754 -33.463  1.00  0.00     0.251 C 
HETATM   26  N   UNL     1      -7.228   2.374 -33.435  1.00  0.00    -0.353 N 
HETATM   27  H   UNL     1      -6.881   1.901 -32.613  1.00  0.00     0.163 HD
HETATM   28  O   UNL     1      -7.769   4.447 -34.281  1.00  0.00    -0.268 OA
BRANCH  26  29
HETATM   29  C   UNL     1      -8.050   1.572 -34.335  1.00  0.00     0.076 C 
HETATM   30  C   UNL     1      -7.208   0.599 -35.156  1.00  0.00     0.032 C 
HETATM   31  C   UNL     1      -9.199   0.862 -33.622  1.00  0.00     0.032 C 
ENDBRANCH  26  29
ENDBRANCH  22  25
ENDBRANCH   2  19
TORSDOF 7
ENDMDL
MODEL 10
REMARK VINA RESULT:      -6.8      4.637      7.582
REMARK  7 active torsions:
REMARK  status: ('A' for Active; 'I' for Inactive)
REMARK    1  A    between atoms: C_2  and  S_3 
REMARK    2  A    between atoms: C_2  and  C_20 
REMARK    3  A    between atoms: S_3  and  C_4 
REMARK    4  A    between atoms: C_4  and  C_5 
REMARK       I    between atoms: C_5  and  N_6 
REMARK    5  A    between atoms: N_6  and  C_7 
REMARK    6  A    between atoms: C_10  and  C_11 
REMARK       I    between atoms: C_11  and  N_12 
REMARK    7  A    between atoms: N_12  and  C_13 
ROOT
HETATM    1  C   UNL     1      -1.713   7.348 -28.877  1.00  0.00     0.231 C 
HETATM    2  N   UNL     1      -0.495   8.006 -28.956  1.00  0.00    -0.327 N 
HETATM    3  O   UNL     1      -2.323   7.076 -27.845  1.00  0.00    -0.272 OA
HETATM    4  H   UNL     1      -0.115   8.154 -29.884  1.00  0.00     0.169 HD
ENDROOT
BRANCH   1   5
HETATM    5  C   UNL     1      -2.270   6.947 -30.237  1.00  0.00     0.177 C 
BRANCH   5   6
HETATM    6  S   UNL     1      -1.423   5.443 -30.824  1.00  0.00    -0.147 SA
BRANCH   6   7
HETATM    7  C   UNL     1      -2.556   5.022 -32.201  1.00  0.00     0.113 C 
HETATM    8  C   UNL     1      -1.757   4.867 -33.492  1.00  0.00     0.029 C 
BRANCH   7   9
HETATM    9  C   UNL     1      -3.342   3.790 -31.875  1.00  0.00     0.118 A 
HETATM   10  N   UNL     1      -3.290   2.638 -32.516  1.00  0.00    -0.232 NA
HETATM   11  C   UNL     1      -4.150   1.801 -31.849  1.00  0.00     0.085 A 
HETATM   12  C   UNL     1      -4.766   2.461 -30.792  1.00  0.00     0.062 A 
HETATM   13  C   UNL     1      -4.459   0.454 -32.087  1.00  0.00     0.034 A 
HETATM   14  N   UNL     1      -4.246   3.729 -30.839  1.00  0.00    -0.342 N 
HETATM   15  C   UNL     1      -5.690   1.854 -29.941  1.00  0.00     0.032 A 
HETATM   16  H   UNL     1      -4.480   4.490 -30.218  1.00  0.00     0.167 HD
HETATM   17  C   UNL     1      -5.984   0.508 -30.192  1.00  0.00     0.002 A 
HETATM   18  C   UNL     1      -5.381  -0.183 -31.245  1.00  0.00     0.002 A 
ENDBRANCH   7   9
ENDBRANCH   6   7
ENDBRANCH   5   6
ENDBRANCH   1   5
BRANCH   2  19
HETATM   19  C   UNL     1       0.299   8.468 -27.885  1.00  0.00     0.034 A 
HETATM   20  C   UNL     1       0.279   9.780 -27.406  1.00  0.00     0.030 A 
HETATM   21  C   UNL     1       1.075  10.158 -26.315  1.00  0.00     0.019 A 
HETATM   22  C   UNL     1       1.891   9.220 -25.678  1.00  0.00     0.032 A 
HETATM   23  C   UNL     1       1.939   7.912 -26.175  1.00  0.00     0.019 A 
HETATM   24  C   UNL     1       1.150   7.542 -27.272  1.00  0.00     0.030 A 
BRANCH  22  25
HETATM   25  C   UNL     1       2.729   9.556 -24.488  1.00  0.00     0.251 C 
HETATM   26  N   UNL     1       3.345   8.496 -23.851  1.00  0.00    -0.353 N 
HETATM   27  H   UNL     1       3.341   7.596 -24.311  1.00  0.00     0.163 HD
HETATM   28  O   UNL     1       2.866  10.728 -24.157  1.00  0.00    -0.268 OA
BRANCH  26  29
HETATM   29  C   UNL     1       4.288   8.645 -22.748  1.00  0.00     0.076 C 
HETATM   30  C   UNL     1       3.818   7.906 -21.497  1.00  0.00     0.032 C 
HETATM   31  C   UNL     1       5.716   8.261 -23.127  1.00  0.00     0.032 C 
ENDBRANCH  26  29
ENDBRANCH  22  25
ENDBRANCH   2  19
TORSDOF 7
ENDMDL
