MODEL 1
REMARK VINA RESULT:      -8.6      0.000      0.000
REMARK  6 active torsions:
REMARK  status: ('A' for Active; 'I' for Inactive)
REMARK    1  A    between atoms: C_8  and  N_9 
REMARK       I    between atoms: N_9  and  C_10 
REMARK       I    between atoms: C_10  and  N_11 
REMARK    2  A    between atoms: N_11  and  C_12 
REMARK    3  A    between atoms: C_15  and  O_16 
REMARK    4  A    between atoms: O_16  and  C_17 
REMARK    5  A    between atoms: C_17  and  C_18 
REMARK    6  A    between atoms: C_18  and  C_19 
ROOT
HETATM    1  C   UNL     1      -7.622   1.169 -31.524  1.00  0.00     0.054 A 
HETATM    2  C   UNL     1      -7.145   0.006 -30.927  1.00  0.00     0.149 A 
HETATM    3  N   UNL     1      -5.838  -0.354 -30.900  1.00  0.00    -0.235 NA
HETATM    4  C   UNL     1      -4.962   0.481 -31.490  1.00  0.00     0.164 A 
HETATM    5  C   UNL     1      -5.326   1.683 -32.073  1.00  0.00     0.060 A 
HETATM    6  C   UNL     1      -6.678   2.024 -32.097  1.00  0.00     0.035 A 
ENDROOT
BRANCH   1   7
HETATM    7  N   UNL     1      -8.987   1.501 -31.648  1.00  0.00    -0.307 N 
HETATM    8  C   UNL     1      -9.775   1.312 -32.773  1.00  0.00     0.325 C 
HETATM    9  N   UNL     1     -10.933   2.058 -32.678  1.00  0.00    -0.305 N 
HETATM   10  O   UNL     1      -9.458   0.615 -33.726  1.00  0.00    -0.247 OA
HETATM   11  H   UNL     1     -10.885   2.868 -32.079  1.00  0.00     0.171 HD
HETATM   12  H   UNL     1      -9.469   1.791 -30.810  1.00  0.00     0.170 HD
BRANCH   9  13
HETATM   13  C   UNL     1     -11.969   2.058 -33.599  1.00  0.00     0.086 A 
HETATM   14  C   UNL     1     -12.308   3.184 -34.325  1.00  0.00     0.052 A 
HETATM   15  C   UNL     1     -11.744   4.553 -34.373  1.00  0.00     0.072 C 
HETATM   16  N   UNL     1     -13.349   2.810 -35.126  1.00  0.00    -0.280 N 
HETATM   17  H   UNL     1     -13.845   3.368 -35.812  1.00  0.00     0.189 HD
HETATM   18  N   UNL     1     -13.736   1.543 -34.953  1.00  0.00    -0.177 NA
HETATM   19  C   UNL     1     -12.901   1.064 -34.018  1.00  0.00     0.079 A 
HETATM   20  C   UNL     1     -13.093  -0.332 -33.551  1.00  0.00     0.075 C 
ENDBRANCH   9  13
ENDBRANCH   1   7
BRANCH   4  21
HETATM   21  O   UNL     1      -3.625   0.136 -31.545  1.00  0.00    -0.334 OA
BRANCH  21  22
HETATM   22  C   UNL     1      -3.443  -1.187 -32.070  1.00  0.00     0.182 C 
BRANCH  22  23
HETATM   23  C   UNL     1      -3.709  -1.164 -33.574  1.00  0.00     0.065 C 
BRANCH  23  24
HETATM   24  C   UNL     1      -4.689  -2.240 -33.969  1.00  0.00    -0.056 A 
HETATM   25  C   UNL     1      -4.248  -3.552 -34.189  1.00  0.00     0.007 A 
HETATM   26  C   UNL     1      -5.139  -4.536 -34.618  1.00  0.00     0.001 A 
HETATM   27  C   UNL     1      -6.478  -4.217 -34.834  1.00  0.00     0.000 A 
HETATM   28  C   UNL     1      -6.927  -2.915 -34.620  1.00  0.00     0.001 A 
HETATM   29  C   UNL     1      -6.038  -1.930 -34.189  1.00  0.00     0.007 A 
ENDBRANCH  23  24
ENDBRANCH  22  23
ENDBRANCH  21  22
ENDBRANCH   4  21
TORSDOF 6
ENDMDL
MODEL 2
REMARK VINA RESULT:      -8.4      4.453      7.776
REMARK  6 active torsions:
REMARK  status: ('A' for Active; 'I' for Inactive)
REMARK    1  A    between atoms: C_8  and  N_9 
REMARK       I    between atoms: N_9  and  C_10 
REMARK       I    between atoms: C_10  and  N_11 
REMARK    2  A    between atoms: N_11  and  C_12 
REMARK    3  A    between atoms: C_15  and  O_16 
REMARK    4  A    between atoms: O_16  and  C_17 
REMARK    5  A    between atoms: C_17  and  C_18 
REMARK    6  A    between atoms: C_18  and  C_19 
ROOT
HETATM    1  C   UNL     1      -5.016   2.573 -31.096  1.00  0.00     0.054 A 
HETATM    2  C   UNL     1      -6.285   2.619 -31.664  1.00  0.00     0.149 A 
HETATM    3  N   UNL     1      -6.966   1.529 -32.094  1.00  0.00    -0.235 NA
HETATM    4  C   UNL     1      -6.362   0.334 -31.950  1.00  0.00     0.164 A 
HETATM    5  C   UNL     1      -5.120   0.173 -31.359  1.00  0.00     0.060 A 
HETATM    6  C   UNL     1      -4.436   1.312 -30.936  1.00  0.00     0.035 A 
ENDROOT
BRANCH   1   7
HETATM    7  N   UNL     1      -4.257   3.707 -30.742  1.00  0.00    -0.307 N 
HETATM    8  C   UNL     1      -3.145   4.191 -31.415  1.00  0.00     0.325 C 
HETATM    9  N   UNL     1      -2.450   5.077 -30.616  1.00  0.00    -0.305 N 
HETATM   10  O   UNL     1      -2.816   3.840 -32.539  1.00  0.00    -0.247 OA
HETATM   11  H   UNL     1      -2.577   4.964 -29.623  1.00  0.00     0.171 HD
HETATM   12  H   UNL     1      -4.621   4.293 -30.004  1.00  0.00     0.170 HD
BRANCH   9  13
HETATM   13  C   UNL     1      -1.323   5.790 -30.997  1.00  0.00     0.086 A 
HETATM   14  C   UNL     1      -1.387   6.841 -31.892  1.00  0.00     0.052 A 
HETATM   15  C   UNL     1      -2.514   7.478 -32.612  1.00  0.00     0.072 C 
HETATM   16  N   UNL     1      -0.107   7.302 -32.015  1.00  0.00    -0.280 N 
HETATM   17  H   UNL     1       0.230   8.081 -32.571  1.00  0.00     0.189 HD
HETATM   18  N   UNL     1       0.787   6.611 -31.301  1.00  0.00    -0.177 NA
HETATM   19  C   UNL     1       0.059   5.678 -30.670  1.00  0.00     0.079 A 
HETATM   20  C   UNL     1       0.767   4.694 -29.812  1.00  0.00     0.075 C 
ENDBRANCH   9  13
ENDBRANCH   1   7
BRANCH   4  21
HETATM   21  O   UNL     1      -6.983  -0.804 -32.425  1.00  0.00    -0.334 OA
BRANCH  21  22
HETATM   22  C   UNL     1      -7.540  -0.596 -33.731  1.00  0.00     0.182 C 
BRANCH  22  23
HETATM   23  C   UNL     1      -6.474  -0.910 -34.779  1.00  0.00     0.065 C 
BRANCH  23  24
HETATM   24  C   UNL     1      -5.945  -2.313 -34.614  1.00  0.00    -0.056 A 
HETATM   25  C   UNL     1      -4.615  -2.526 -34.226  1.00  0.00     0.007 A 
HETATM   26  C   UNL     1      -4.103  -3.821 -34.136  1.00  0.00     0.001 A 
HETATM   27  C   UNL     1      -4.914  -4.913 -34.435  1.00  0.00     0.000 A 
HETATM   28  C   UNL     1      -6.238  -4.713 -34.822  1.00  0.00     0.001 A 
HETATM   29  C   UNL     1      -6.752  -3.418 -34.913  1.00  0.00     0.007 A 
ENDBRANCH  23  24
ENDBRANCH  22  23
ENDBRANCH  21  22
ENDBRANCH   4  21
TORSDOF 6
ENDMDL
MODEL 3
REMARK VINA RESULT:      -8.3      4.592      7.240
REMARK  6 active torsions:
REMARK  status: ('A' for Active; 'I' for Inactive)
REMARK    1  A    between atoms: C_8  and  N_9 
REMARK       I    between atoms: N_9  and  C_10 
REMARK       I    between atoms: C_10  and  N_11 
REMARK    2  A    between atoms: N_11  and  C_12 
REMARK    3  A    between atoms: C_15  and  O_16 
REMARK    4  A    between atoms: O_16  and  C_17 
REMARK    5  A    between atoms: C_17  and  C_18 
REMARK    6  A    between atoms: C_18  and  C_19 
ROOT
HETATM    1  C   UNL     1      -4.824   2.480 -30.954  1.00  0.00     0.054 A 
HETATM    2  C   UNL     1      -6.202   2.439 -31.140  1.00  0.00     0.149 A 
HETATM    3  N   UNL     1      -6.877   1.356 -31.597  1.00  0.00    -0.235 NA
HETATM    4  C   UNL     1      -6.150   0.258 -31.880  1.00  0.00     0.164 A 
HETATM    5  C   UNL     1      -4.781   0.178 -31.688  1.00  0.00     0.060 A 
HETATM    6  C   UNL     1      -4.110   1.311 -31.227  1.00  0.00     0.035 A 
ENDROOT
BRANCH   1   7
HETATM    7  N   UNL     1      -4.103   3.631 -30.578  1.00  0.00    -0.307 N 
HETATM    8  C   UNL     1      -3.946   4.782 -31.337  1.00  0.00     0.325 C 
HETATM    9  N   UNL     1      -2.911   5.548 -30.838  1.00  0.00    -0.305 N 
HETATM   10  O   UNL     1      -4.610   5.046 -32.329  1.00  0.00    -0.247 OA
HETATM   11  H   UNL     1      -2.211   5.049 -30.311  1.00  0.00     0.171 HD
HETATM   12  H   UNL     1      -3.768   3.676 -29.627  1.00  0.00     0.170 HD
BRANCH   9  13
HETATM   13  C   UNL     1      -2.524   6.788 -31.320  1.00  0.00     0.086 A 
HETATM   14  C   UNL     1      -2.698   7.948 -30.588  1.00  0.00     0.052 A 
HETATM   15  C   UNL     1      -3.248   8.208 -29.237  1.00  0.00     0.072 C 
HETATM   16  N   UNL     1      -2.196   8.955 -31.363  1.00  0.00    -0.280 N 
HETATM   17  H   UNL     1      -2.133   9.943 -31.145  1.00  0.00     0.189 HD
HETATM   18  N   UNL     1      -1.744   8.547 -32.552  1.00  0.00    -0.177 NA
HETATM   19  C   UNL     1      -1.937   7.219 -32.545  1.00  0.00     0.079 A 
HETATM   20  C   UNL     1      -1.578   6.449 -33.762  1.00  0.00     0.075 C 
ENDBRANCH   9  13
ENDBRANCH   1   7
BRANCH   4  21
HETATM   21  O   UNL     1      -6.776  -0.856 -32.405  1.00  0.00    -0.334 OA
BRANCH  21  22
HETATM   22  C   UNL     1      -7.438  -0.555 -33.641  1.00  0.00     0.182 C 
BRANCH  22  23
HETATM   23  C   UNL     1      -6.518  -0.931 -34.801  1.00  0.00     0.065 C 
BRANCH  23  24
HETATM   24  C   UNL     1      -5.970  -2.325 -34.630  1.00  0.00    -0.056 A 
HETATM   25  C   UNL     1      -4.628  -2.519 -34.274  1.00  0.00     0.007 A 
HETATM   26  C   UNL     1      -4.100  -3.806 -34.178  1.00  0.00     0.001 A 
HETATM   27  C   UNL     1      -4.906  -4.912 -34.441  1.00  0.00     0.000 A 
HETATM   28  C   UNL     1      -6.241  -4.731 -34.797  1.00  0.00     0.001 A 
HETATM   29  C   UNL     1      -6.772  -3.443 -34.892  1.00  0.00     0.007 A 
ENDBRANCH  23  24
ENDBRANCH  22  23
ENDBRANCH  21  22
ENDBRANCH   4  21
TORSDOF 6
ENDMDL
MODEL 4
REMARK VINA RESULT:      -8.2      4.539      7.289
REMARK  6 active torsions:
REMARK  status: ('A' for Active; 'I' for Inactive)
REMARK    1  A    between atoms: C_8  and  N_9 
REMARK       I    between atoms: N_9  and  C_10 
REMARK       I    between atoms: C_10  and  N_11 
REMARK    2  A    between atoms: N_11  and  C_12 
REMARK    3  A    between atoms: C_15  and  O_16 
REMARK    4  A    between atoms: O_16  and  C_17 
REMARK    5  A    between atoms: C_17  and  C_18 
REMARK    6  A    between atoms: C_18  and  C_19 
ROOT
HETATM    1  C   UNL     1      -5.224   2.639 -30.821  1.00  0.00     0.054 A 
HETATM    2  C   UNL     1      -6.599   2.475 -30.965  1.00  0.00     0.149 A 
HETATM    3  N   UNL     1      -7.187   1.340 -31.414  1.00  0.00    -0.235 NA
HETATM    4  C   UNL     1      -6.373   0.314 -31.731  1.00  0.00     0.164 A 
HETATM    5  C   UNL     1      -4.997   0.357 -31.583  1.00  0.00     0.060 A 
HETATM    6  C   UNL     1      -4.417   1.542 -31.130  1.00  0.00     0.035 A 
ENDROOT
BRANCH   1   7
HETATM    7  N   UNL     1      -4.598   3.848 -30.455  1.00  0.00    -0.307 N 
HETATM    8  C   UNL     1      -4.088   4.800 -31.324  1.00  0.00     0.325 C 
HETATM    9  N   UNL     1      -3.245   5.662 -30.650  1.00  0.00    -0.305 N 
HETATM   10  O   UNL     1      -4.325   4.835 -32.523  1.00  0.00    -0.247 OA
HETATM   11  H   UNL     1      -2.824   5.295 -29.810  1.00  0.00     0.171 HD
HETATM   12  H   UNL     1      -4.627   4.105 -29.479  1.00  0.00     0.170 HD
BRANCH   9  13
HETATM   13  C   UNL     1      -2.613   6.765 -31.202  1.00  0.00     0.086 A 
HETATM   14  C   UNL     1      -1.329   6.699 -31.711  1.00  0.00     0.052 A 
HETATM   15  C   UNL     1      -0.359   5.587 -31.841  1.00  0.00     0.072 C 
HETATM   16  N   UNL     1      -1.048   7.953 -32.172  1.00  0.00    -0.280 N 
HETATM   17  H   UNL     1      -0.205   8.279 -32.632  1.00  0.00     0.189 HD
HETATM   18  N   UNL     1      -2.031   8.836 -31.971  1.00  0.00    -0.177 NA
HETATM   19  C   UNL     1      -3.000   8.125 -31.375  1.00  0.00     0.079 A 
HETATM   20  C   UNL     1      -4.241   8.832 -30.966  1.00  0.00     0.075 C 
ENDBRANCH   9  13
ENDBRANCH   1   7
BRANCH   4  21
HETATM   21  O   UNL     1      -6.913  -0.847 -32.250  1.00  0.00    -0.334 OA
BRANCH  21  22
HETATM   22  C   UNL     1      -7.509  -0.623 -33.535  1.00  0.00     0.182 C 
BRANCH  22  23
HETATM   23  C   UNL     1      -6.469  -0.901 -34.619  1.00  0.00     0.065 C 
BRANCH  23  24
HETATM   24  C   UNL     1      -5.949  -2.314 -34.524  1.00  0.00    -0.056 A 
HETATM   25  C   UNL     1      -4.617  -2.554 -34.158  1.00  0.00     0.007 A 
HETATM   26  C   UNL     1      -4.113  -3.854 -34.133  1.00  0.00     0.001 A 
HETATM   27  C   UNL     1      -4.935  -4.926 -34.475  1.00  0.00     0.000 A 
HETATM   28  C   UNL     1      -6.260  -4.699 -34.841  1.00  0.00     0.001 A 
HETATM   29  C   UNL     1      -6.767  -3.399 -34.866  1.00  0.00     0.007 A 
ENDBRANCH  23  24
ENDBRANCH  22  23
ENDBRANCH  21  22
ENDBRANCH   4  21
TORSDOF 6
ENDMDL
MODEL 5
REMARK VINA RESULT:      -8.1      0.377      1.878
REMARK  6 active torsions:
REMARK  status: ('A' for Active; 'I' for Inactive)
REMARK    1  A    between atoms: C_8  and  N_9 
REMARK       I    between atoms: N_9  and  C_10 
REMARK       I    between atoms: C_10  and  N_11 
REMARK    2  A    between atoms: N_11  and  C_12 
REMARK    3  A    between atoms: C_15  and  O_16 
REMARK    4  A    between atoms: O_16  and  C_17 
REMARK    5  A    between atoms: C_17  and  C_18 
REMARK    6  A    between atoms: C_18  and  C_19 
ROOT
HETATM    1  C   UNL     1      -7.491   0.958 -31.611  1.00  0.00     0.054 A 
HETATM    2  C   UNL     1      -7.067  -0.210 -30.985  1.00  0.00     0.149 A 
HETATM    3  N   UNL     1      -5.770  -0.594 -30.891  1.00  0.00    -0.235 NA
HETATM    4  C   UNL     1      -4.849   0.221 -31.440  1.00  0.00     0.164 A 
HETATM    5  C   UNL     1      -5.161   1.426 -32.046  1.00  0.00     0.060 A 
HETATM    6  C   UNL     1      -6.504   1.792 -32.140  1.00  0.00     0.035 A 
ENDROOT
BRANCH   1   7
HETATM    7  N   UNL     1      -8.842   1.314 -31.805  1.00  0.00    -0.307 N 
HETATM    8  C   UNL     1      -9.542   1.243 -33.000  1.00  0.00     0.325 C 
HETATM    9  N   UNL     1     -10.702   1.988 -32.920  1.00  0.00    -0.305 N 
HETATM   10  O   UNL     1      -9.155   0.638 -33.989  1.00  0.00    -0.247 OA
HETATM   11  H   UNL     1     -10.697   2.736 -32.244  1.00  0.00     0.171 HD
HETATM   12  H   UNL     1      -9.385   1.527 -30.982  1.00  0.00     0.170 HD
BRANCH   9  13
HETATM   13  C   UNL     1     -11.665   2.088 -33.913  1.00  0.00     0.086 A 
HETATM   14  C   UNL     1     -12.603   1.096 -34.129  1.00  0.00     0.052 A 
HETATM   15  C   UNL     1     -12.868  -0.197 -33.455  1.00  0.00     0.072 C 
HETATM   16  N   UNL     1     -13.380   1.538 -35.162  1.00  0.00    -0.280 N 
HETATM   17  H   UNL     1     -14.184   1.084 -35.582  1.00  0.00     0.189 HD
HETATM   18  N   UNL     1     -13.000   2.720 -35.656  1.00  0.00    -0.177 NA
HETATM   19  C   UNL     1     -11.947   3.073 -34.902  1.00  0.00     0.079 A 
HETATM   20  C   UNL     1     -11.245   4.341 -35.225  1.00  0.00     0.075 C 
ENDBRANCH   9  13
ENDBRANCH   1   7
BRANCH   4  21
HETATM   21  O   UNL     1      -3.519  -0.149 -31.426  1.00  0.00    -0.334 OA
BRANCH  21  22
HETATM   22  C   UNL     1      -3.320  -1.426 -32.048  1.00  0.00     0.182 C 
BRANCH  22  23
HETATM   23  C   UNL     1      -3.578  -1.293 -33.548  1.00  0.00     0.065 C 
BRANCH  23  24
HETATM   24  C   UNL     1      -4.563  -2.331 -34.024  1.00  0.00    -0.056 A 
HETATM   25  C   UNL     1      -5.895  -1.976 -34.281  1.00  0.00     0.007 A 
HETATM   26  C   UNL     1      -6.825  -2.945 -34.659  1.00  0.00     0.001 A 
HETATM   27  C   UNL     1      -6.434  -4.277 -34.780  1.00  0.00     0.000 A 
HETATM   28  C   UNL     1      -5.113  -4.640 -34.526  1.00  0.00     0.001 A 
HETATM   29  C   UNL     1      -4.180  -3.673 -34.149  1.00  0.00     0.007 A 
ENDBRANCH  23  24
ENDBRANCH  22  23
ENDBRANCH  21  22
ENDBRANCH   4  21
TORSDOF 6
ENDMDL
MODEL 6
REMARK VINA RESULT:      -7.6      5.100      8.225
REMARK  6 active torsions:
REMARK  status: ('A' for Active; 'I' for Inactive)
REMARK    1  A    between atoms: C_8  and  N_9 
REMARK       I    between atoms: N_9  and  C_10 
REMARK       I    between atoms: C_10  and  N_11 
REMARK    2  A    between atoms: N_11  and  C_12 
REMARK    3  A    between atoms: C_15  and  O_16 
REMARK    4  A    between atoms: O_16  and  C_17 
REMARK    5  A    between atoms: C_17  and  C_18 
REMARK    6  A    between atoms: C_18  and  C_19 
ROOT
HETATM    1  C   UNL     1      -4.243   3.666 -32.811  1.00  0.00     0.054 A 
HETATM    2  C   UNL     1      -5.160   4.176 -33.725  1.00  0.00     0.149 A 
HETATM    3  N   UNL     1      -6.201   3.472 -34.232  1.00  0.00    -0.235 NA
HETATM    4  C   UNL     1      -6.344   2.201 -33.809  1.00  0.00     0.164 A 
HETATM    5  C   UNL     1      -5.514   1.611 -32.870  1.00  0.00     0.060 A 
HETATM    6  C   UNL     1      -4.443   2.355 -32.373  1.00  0.00     0.035 A 
ENDROOT
BRANCH   1   7
HETATM    7  N   UNL     1      -3.099   4.354 -32.358  1.00  0.00    -0.307 N 
HETATM    8  C   UNL     1      -3.044   5.228 -31.283  1.00  0.00     0.325 C 
HETATM    9  N   UNL     1      -1.889   5.983 -31.338  1.00  0.00    -0.305 N 
HETATM   10  O   UNL     1      -3.921   5.336 -30.438  1.00  0.00    -0.247 OA
HETATM   11  H   UNL     1      -1.481   6.094 -32.253  1.00  0.00     0.171 HD
HETATM   12  H   UNL     1      -2.215   4.102 -32.773  1.00  0.00     0.170 HD
BRANCH   9  13
HETATM   13  C   UNL     1      -1.488   6.911 -30.389  1.00  0.00     0.086 A 
HETATM   14  C   UNL     1      -1.986   8.200 -30.364  1.00  0.00     0.052 A 
HETATM   15  C   UNL     1      -2.985   8.904 -31.202  1.00  0.00     0.072 C 
HETATM   16  N   UNL     1      -1.382   8.811 -29.303  1.00  0.00    -0.280 N 
HETATM   17  H   UNL     1      -1.518   9.757 -28.962  1.00  0.00     0.189 HD
HETATM   18  N   UNL     1      -0.506   8.035 -28.659  1.00  0.00    -0.177 NA
HETATM   19  C   UNL     1      -0.557   6.864 -29.311  1.00  0.00     0.079 A 
HETATM   20  C   UNL     1       0.349   5.772 -28.870  1.00  0.00     0.075 C 
ENDBRANCH   9  13
ENDBRANCH   1   7
BRANCH   4  21
HETATM   21  O   UNL     1      -7.351   1.418 -34.336  1.00  0.00    -0.334 OA
BRANCH  21  22
HETATM   22  C   UNL     1      -6.824   0.318 -35.092  1.00  0.00     0.182 C 
BRANCH  22  23
HETATM   23  C   UNL     1      -7.477  -0.975 -34.605  1.00  0.00     0.065 C 
BRANCH  23  24
HETATM   24  C   UNL     1      -6.479  -2.105 -34.562  1.00  0.00    -0.056 A 
HETATM   25  C   UNL     1      -6.879  -3.413 -34.868  1.00  0.00     0.007 A 
HETATM   26  C   UNL     1      -5.975  -4.472 -34.766  1.00  0.00     0.001 A 
HETATM   27  C   UNL     1      -4.665  -4.232 -34.356  1.00  0.00     0.000 A 
HETATM   28  C   UNL     1      -4.257  -2.936 -34.049  1.00  0.00     0.001 A 
HETATM   29  C   UNL     1      -5.159  -1.875 -34.151  1.00  0.00     0.007 A 
ENDBRANCH  23  24
ENDBRANCH  22  23
ENDBRANCH  21  22
ENDBRANCH   4  21
TORSDOF 6
ENDMDL
MODEL 7
REMARK VINA RESULT:      -7.5      1.993      2.730
REMARK  6 active torsions:
REMARK  status: ('A' for Active; 'I' for Inactive)
REMARK    1  A    between atoms: C_8  and  N_9 
REMARK       I    between atoms: N_9  and  C_10 
REMARK       I    between atoms: C_10  and  N_11 
REMARK    2  A    between atoms: N_11  and  C_12 
REMARK    3  A    between atoms: C_15  and  O_16 
REMARK    4  A    between atoms: O_16  and  C_17 
REMARK    5  A    between atoms: C_17  and  C_18 
REMARK    6  A    between atoms: C_18  and  C_19 
ROOT
HETATM    1  C   UNL     1      -8.702   1.190 -32.682  1.00  0.00     0.054 A 
HETATM    2  C   UNL     1      -7.749   1.361 -33.681  1.00  0.00     0.149 A 
HETATM    3  N   UNL     1      -6.429   1.097 -33.527  1.00  0.00    -0.235 NA
HETATM    4  C   UNL     1      -6.034   0.637 -32.324  1.00  0.00     0.164 A 
HETATM    5  C   UNL     1      -6.906   0.389 -31.277  1.00  0.00     0.060 A 
HETATM    6  C   UNL     1      -8.258   0.681 -31.459  1.00  0.00     0.035 A 
ENDROOT
BRANCH   1   7
HETATM    7  N   UNL     1     -10.058   1.558 -32.799  1.00  0.00    -0.307 N 
HETATM    8  C   UNL     1     -10.547   2.851 -32.914  1.00  0.00     0.325 C 
HETATM    9  N   UNL     1     -11.902   2.876 -32.652  1.00  0.00    -0.305 N 
HETATM   10  O   UNL     1      -9.856   3.827 -33.169  1.00  0.00    -0.247 OA
HETATM   11  H   UNL     1     -12.251   2.127 -32.074  1.00  0.00     0.171 HD
HETATM   12  H   UNL     1     -10.728   0.815 -32.933  1.00  0.00     0.170 HD
BRANCH   9  13
HETATM   13  C   UNL     1     -12.718   3.994 -32.736  1.00  0.00     0.086 A 
HETATM   14  C   UNL     1     -13.339   4.536 -31.627  1.00  0.00     0.052 A 
HETATM   15  C   UNL     1     -13.321   4.173 -30.191  1.00  0.00     0.072 C 
HETATM   16  N   UNL     1     -14.038   5.617 -32.084  1.00  0.00    -0.280 N 
HETATM   17  H   UNL     1     -14.600   6.273 -31.552  1.00  0.00     0.189 HD
HETATM   18  N   UNL     1     -13.950   5.798 -33.405  1.00  0.00    -0.177 NA
HETATM   19  C   UNL     1     -13.144   4.811 -33.823  1.00  0.00     0.079 A 
HETATM   20  C   UNL     1     -12.871   4.694 -35.279  1.00  0.00     0.075 C 
ENDBRANCH   9  13
ENDBRANCH   1   7
BRANCH   4  21
HETATM   21  O   UNL     1      -4.692   0.407 -32.091  1.00  0.00    -0.334 OA
BRANCH  21  22
HETATM   22  C   UNL     1      -4.394  -0.995 -32.061  1.00  0.00     0.182 C 
BRANCH  22  23
HETATM   23  C   UNL     1      -3.868  -1.419 -33.432  1.00  0.00     0.065 C 
BRANCH  23  24
HETATM   24  C   UNL     1      -4.668  -2.569 -33.989  1.00  0.00    -0.056 A 
HETATM   25  C   UNL     1      -5.990  -2.373 -34.411  1.00  0.00     0.007 A 
HETATM   26  C   UNL     1      -6.755  -3.447 -34.867  1.00  0.00     0.001 A 
HETATM   27  C   UNL     1      -6.206  -4.727 -34.902  1.00  0.00     0.000 A 
HETATM   28  C   UNL     1      -4.893  -4.934 -34.483  1.00  0.00     0.001 A 
HETATM   29  C   UNL     1      -4.126  -3.861 -34.028  1.00  0.00     0.007 A 
ENDBRANCH  23  24
ENDBRANCH  22  23
ENDBRANCH  21  22
ENDBRANCH   4  21
TORSDOF 6
ENDMDL
MODEL 8
REMARK VINA RESULT:      -7.3      2.025      3.713
REMARK  6 active torsions:
REMARK  status: ('A' for Active; 'I' for Inactive)
REMARK    1  A    between atoms: C_8  and  N_9 
REMARK       I    between atoms: N_9  and  C_10 
REMARK       I    between atoms: C_10  and  N_11 
REMARK    2  A    between atoms: N_11  and  C_12 
REMARK    3  A    between atoms: C_15  and  O_16 
REMARK    4  A    between atoms: O_16  and  C_17 
REMARK    5  A    between atoms: C_17  and  C_18 
REMARK    6  A    between atoms: C_18  and  C_19 
ROOT
HETATM    1  C   UNL     1      -7.712   0.248 -34.381  1.00  0.00     0.054 A 
HETATM    2  C   UNL     1      -7.582  -1.115 -34.137  1.00  0.00     0.149 A 
HETATM    3  N   UNL     1      -6.414  -1.722 -33.814  1.00  0.00    -0.235 NA
HETATM    4  C   UNL     1      -5.322  -0.938 -33.723  1.00  0.00     0.164 A 
HETATM    5  C   UNL     1      -5.351   0.435 -33.902  1.00  0.00     0.060 A 
HETATM    6  C   UNL     1      -6.564   1.032 -34.246  1.00  0.00     0.035 A 
ENDROOT
BRANCH   1   7
HETATM    7  N   UNL     1      -8.899   0.872 -34.818  1.00  0.00    -0.307 N 
HETATM    8  C   UNL     1     -10.015   1.141 -34.040  1.00  0.00     0.325 C 
HETATM    9  N   UNL     1     -11.103   1.420 -34.844  1.00  0.00    -0.305 N 
HETATM   10  O   UNL     1     -10.030   1.093 -32.819  1.00  0.00    -0.247 OA
HETATM   11  H   UNL     1     -11.070   1.035 -35.775  1.00  0.00     0.171 HD
HETATM   12  H   UNL     1      -8.897   1.266 -35.747  1.00  0.00     0.170 HD
BRANCH   9  13
HETATM   13  C   UNL     1     -12.361   1.791 -34.394  1.00  0.00     0.086 A 
HETATM   14  C   UNL     1     -12.770   3.110 -34.360  1.00  0.00     0.052 A 
HETATM   15  C   UNL     1     -12.110   4.375 -34.758  1.00  0.00     0.072 C 
HETATM   16  N   UNL     1     -14.049   3.090 -33.880  1.00  0.00    -0.280 N 
HETATM   17  H   UNL     1     -14.679   3.873 -33.737  1.00  0.00     0.189 HD
HETATM   18  N   UNL     1     -14.489   1.869 -33.565  1.00  0.00    -0.177 NA
HETATM   19  C   UNL     1     -13.466   1.057 -33.874  1.00  0.00     0.079 A 
HETATM   20  C   UNL     1     -13.612  -0.395 -33.597  1.00  0.00     0.075 C 
ENDBRANCH   9  13
ENDBRANCH   1   7
BRANCH   4  21
HETATM   21  O   UNL     1      -4.094  -1.510 -33.455  1.00  0.00    -0.334 OA
BRANCH  21  22
HETATM   22  C   UNL     1      -3.153  -0.540 -32.976  1.00  0.00     0.182 C 
BRANCH  22  23
HETATM   23  C   UNL     1      -3.204  -0.512 -31.450  1.00  0.00     0.065 C 
BRANCH  23  24
HETATM   24  C   UNL     1      -3.997   0.671 -30.953  1.00  0.00    -0.056 A 
HETATM   25  C   UNL     1      -5.189   0.475 -30.244  1.00  0.00     0.007 A 
HETATM   26  C   UNL     1      -5.960   1.566 -29.840  1.00  0.00     0.001 A 
HETATM   27  C   UNL     1      -5.546   2.862 -30.143  1.00  0.00     0.000 A 
HETATM   28  C   UNL     1      -4.362   3.068 -30.848  1.00  0.00     0.001 A 
HETATM   29  C   UNL     1      -3.590   1.978 -31.253  1.00  0.00     0.007 A 
ENDBRANCH  23  24
ENDBRANCH  22  23
ENDBRANCH  21  22
ENDBRANCH   4  21
TORSDOF 6
ENDMDL
MODEL 9
REMARK VINA RESULT:      -7.2      1.661      2.129
REMARK  6 active torsions:
REMARK  status: ('A' for Active; 'I' for Inactive)
REMARK    1  A    between atoms: C_8  and  N_9 
REMARK       I    between atoms: N_9  and  C_10 
REMARK       I    between atoms: C_10  and  N_11 
REMARK    2  A    between atoms: N_11  and  C_12 
REMARK    3  A    between atoms: C_15  and  O_16 
REMARK    4  A    between atoms: O_16  and  C_17 
REMARK    5  A    between atoms: C_17  and  C_18 
REMARK    6  A    between atoms: C_18  and  C_19 
ROOT
HETATM    1  C   UNL     1      -7.235   2.444 -32.609  1.00  0.00     0.054 A 
HETATM    2  C   UNL     1      -6.601   1.654 -33.563  1.00  0.00     0.149 A 
HETATM    3  N   UNL     1      -5.388   1.077 -33.387  1.00  0.00    -0.235 NA
HETATM    4  C   UNL     1      -4.774   1.289 -32.207  1.00  0.00     0.164 A 
HETATM    5  C   UNL     1      -5.337   2.022 -31.175  1.00  0.00     0.060 A 
HETATM    6  C   UNL     1      -6.582   2.615 -31.386  1.00  0.00     0.035 A 
ENDROOT
BRANCH   1   7
HETATM    7  N   UNL     1      -8.448   3.132 -32.820  1.00  0.00    -0.307 N 
HETATM    8  C   UNL     1      -9.721   2.639 -32.577  1.00  0.00     0.325 C 
HETATM    9  N   UNL     1     -10.666   3.416 -33.216  1.00  0.00    -0.305 N 
HETATM   10  O   UNL     1      -9.955   1.632 -31.924  1.00  0.00    -0.247 OA
HETATM   11  H   UNL     1     -10.340   3.931 -34.019  1.00  0.00     0.171 HD
HETATM   12  H   UNL     1      -8.387   4.112 -33.055  1.00  0.00     0.170 HD
BRANCH   9  13
HETATM   13  C   UNL     1     -12.039   3.242 -33.136  1.00  0.00     0.086 A 
HETATM   14  C   UNL     1     -12.769   2.672 -34.163  1.00  0.00     0.052 A 
HETATM   15  C   UNL     1     -12.381   2.117 -35.480  1.00  0.00     0.072 C 
HETATM   16  N   UNL     1     -14.064   2.653 -33.731  1.00  0.00    -0.280 N 
HETATM   17  H   UNL     1     -14.881   2.287 -34.209  1.00  0.00     0.189 HD
HETATM   18  N   UNL     1     -14.240   3.197 -32.523  1.00  0.00    -0.177 NA
HETATM   19  C   UNL     1     -13.007   3.565 -32.142  1.00  0.00     0.079 A 
HETATM   20  C   UNL     1     -12.852   4.259 -30.838  1.00  0.00     0.075 C 
ENDBRANCH   9  13
ENDBRANCH   1   7
BRANCH   4  21
HETATM   21  O   UNL     1      -3.510   0.775 -31.995  1.00  0.00    -0.334 OA
BRANCH  21  22
HETATM   22  C   UNL     1      -3.221  -0.303 -32.895  1.00  0.00     0.182 C 
BRANCH  22  23
HETATM   23  C   UNL     1      -3.209  -1.614 -32.110  1.00  0.00     0.065 C 
BRANCH  23  24
HETATM   24  C   UNL     1      -3.810  -2.737 -32.917  1.00  0.00    -0.056 A 
HETATM   25  C   UNL     1      -3.361  -4.053 -32.742  1.00  0.00     0.007 A 
HETATM   26  C   UNL     1      -3.867  -5.085 -33.532  1.00  0.00     0.001 A 
HETATM   27  C   UNL     1      -4.825  -4.811 -34.506  1.00  0.00     0.000 A 
HETATM   28  C   UNL     1      -5.279  -3.506 -34.689  1.00  0.00     0.001 A 
HETATM   29  C   UNL     1      -4.774  -2.472 -33.899  1.00  0.00     0.007 A 
ENDBRANCH  23  24
ENDBRANCH  22  23
ENDBRANCH  21  22
ENDBRANCH   4  21
TORSDOF 6
ENDMDL
MODEL 10
REMARK VINA RESULT:      -7.1      5.505      8.538
REMARK  6 active torsions:
REMARK  status: ('A' for Active; 'I' for Inactive)
REMARK    1  A    between atoms: C_8  and  N_9 
REMARK       I    between atoms: N_9  and  C_10 
REMARK       I    between atoms: C_10  and  N_11 
REMARK    2  A    between atoms: N_11  and  C_12 
REMARK    3  A    between atoms: C_15  and  O_16 
REMARK    4  A    between atoms: O_16  and  C_17 
REMARK    5  A    between atoms: C_17  and  C_18 
REMARK    6  A    between atoms: C_18  and  C_19 
ROOT
HETATM    1  C   UNL     1      -4.158   3.894 -31.592  1.00  0.00     0.054 A 
HETATM    2  C   UNL     1      -5.049   3.017 -30.981  1.00  0.00     0.149 A 
HETATM    3  N   UNL     1      -6.120   2.465 -31.602  1.00  0.00    -0.235 NA
HETATM    4  C   UNL     1      -6.315   2.795 -32.893  1.00  0.00     0.164 A 
HETATM    5  C   UNL     1      -5.464   3.622 -33.607  1.00  0.00     0.060 A 
HETATM    6  C   UNL     1      -4.376   4.186 -32.940  1.00  0.00     0.035 A 
ENDROOT
BRANCH   1   7
HETATM    7  N   UNL     1      -3.103   4.552 -30.928  1.00  0.00    -0.307 N 
HETATM    8  C   UNL     1      -3.182   5.777 -30.283  1.00  0.00     0.325 C 
HETATM    9  N   UNL     1      -1.917   6.284 -30.060  1.00  0.00    -0.305 N 
HETATM   10  O   UNL     1      -4.230   6.338 -29.996  1.00  0.00    -0.247 OA
HETATM   11  H   UNL     1      -1.196   5.953 -30.682  1.00  0.00     0.171 HD
HETATM   12  H   UNL     1      -2.243   4.038 -30.804  1.00  0.00     0.170 HD
BRANCH   9  13
HETATM   13  C   UNL     1      -1.628   7.460 -29.385  1.00  0.00     0.086 A 
HETATM   14  C   UNL     1      -1.001   7.466 -28.153  1.00  0.00     0.052 A 
HETATM   15  C   UNL     1      -0.482   6.381 -27.288  1.00  0.00     0.072 C 
HETATM   16  N   UNL     1      -0.873   8.781 -27.808  1.00  0.00    -0.280 N 
HETATM   17  H   UNL     1      -0.441   9.174 -26.978  1.00  0.00     0.189 HD
HETATM   18  N   UNL     1      -1.399   9.627 -28.698  1.00  0.00    -0.177 NA
HETATM   19  C   UNL     1      -1.869   8.834 -29.673  1.00  0.00     0.079 A 
HETATM   20  C   UNL     1      -2.571   9.468 -30.818  1.00  0.00     0.075 C 
ENDBRANCH   9  13
ENDBRANCH   1   7
BRANCH   4  21
HETATM   21  O   UNL     1      -7.423   2.309 -33.559  1.00  0.00    -0.334 OA
BRANCH  21  22
HETATM   22  C   UNL     1      -7.055   1.390 -34.597  1.00  0.00     0.182 C 
BRANCH  22  23
HETATM   23  C   UNL     1      -7.579   0.001 -34.237  1.00  0.00     0.065 C 
BRANCH  23  24
HETATM   24  C   UNL     1      -6.469  -1.020 -34.256  1.00  0.00    -0.056 A 
HETATM   25  C   UNL     1      -6.708  -2.314 -34.741  1.00  0.00     0.007 A 
HETATM   26  C   UNL     1      -5.703  -3.281 -34.699  1.00  0.00     0.001 A 
HETATM   27  C   UNL     1      -4.453  -2.965 -34.172  1.00  0.00     0.000 A 
HETATM   28  C   UNL     1      -4.205  -1.683 -33.687  1.00  0.00     0.001 A 
HETATM   29  C   UNL     1      -5.209  -0.713 -33.728  1.00  0.00     0.007 A 
ENDBRANCH  23  24
ENDBRANCH  22  23
ENDBRANCH  21  22
ENDBRANCH   4  21
TORSDOF 6
ENDMDL
