MODEL 1
REMARK VINA RESULT:      -8.3      0.000      0.000
REMARK  3 active torsions:
REMARK  status: ('A' for Active; 'I' for Inactive)
REMARK    1  A    between atoms: C_5  and  N_6 
REMARK       I    between atoms: N_6  and  C_7 
REMARK    2  A    between atoms: C_7  and  C_8 
REMARK    3  A    between atoms: C_8  and  C_9 
ROOT
HETATM    1  C   UNL     1      -7.980   2.753 -33.547  1.00  0.00     0.286 C 
HETATM    2  N   UNL     1      -9.206   1.915 -33.883  1.00  0.00    -0.056 N 
HETATM    3  H   UNL     1      -9.232   1.858 -34.925  1.00  0.00     0.278 HD
HETATM    4  H   UNL     1      -9.091   0.952 -33.549  1.00  0.00     0.278 HD
HETATM    5  C   UNL     1     -10.477   2.533 -33.355  1.00  0.00     0.209 C 
HETATM    6  C   UNL     1     -10.642   3.952 -33.961  1.00  0.00     0.115 C 
HETATM    7  N   UNL     1      -9.424   4.755 -33.835  1.00  0.00    -0.353 N 
HETATM    8  C   UNL     1      -8.150   4.244 -33.911  1.00  0.00     0.249 C 
HETATM    9  O   UNL     1      -7.202   4.983 -34.149  1.00  0.00    -0.271 OA
HETATM   10  C   UNL     1     -11.655   1.609 -33.658  1.00  0.00     0.035 C 
HETATM   11  C   UNL     1     -12.057   1.606 -35.130  1.00  0.00     0.002 C 
HETATM   12  C   UNL     1     -12.304   3.021 -35.639  1.00  0.00     0.002 C 
HETATM   13  C   UNL     1     -11.085   3.912 -35.431  1.00  0.00     0.027 C 
HETATM   14  H   UNL     1      -9.478   5.744 -34.071  1.00  0.00     0.163 HD
ENDROOT
BRANCH   1  15
HETATM   15  C   UNL     1      -6.707   2.159 -34.161  1.00  0.00     0.146 C 
BRANCH  15  16
HETATM   16  C   UNL     1      -5.714   1.783 -33.091  1.00  0.00     0.224 C 
HETATM   17  N   UNL     1      -5.368   0.495 -32.840  1.00  0.00    -0.327 N 
HETATM   18  H   UNL     1      -4.786   0.416 -32.010  1.00  0.00     0.169 HD
HETATM   19  O   UNL     1      -5.175   2.692 -32.446  1.00  0.00    -0.273 OA
BRANCH  17  20
HETATM   20  C   UNL     1      -5.671  -0.733 -33.464  1.00  0.00     0.034 A 
HETATM   21  C   UNL     1      -6.951  -1.197 -33.763  1.00  0.00     0.030 A 
HETATM   22  C   UNL     1      -7.134  -2.437 -34.391  1.00  0.00     0.009 A 
HETATM   23  C   UNL     1      -6.039  -3.236 -34.732  1.00  0.00    -0.062 A 
HETATM   24  C   UNL     1      -6.247  -4.550 -35.425  1.00  0.00     0.048 C 
HETATM   25  C   UNL     1      -4.755  -2.759 -34.470  1.00  0.00     0.009 A 
HETATM   26  C   UNL     1      -4.575  -1.521 -33.844  1.00  0.00     0.030 A 
ENDBRANCH  17  20
ENDBRANCH  15  16
ENDBRANCH   1  15
TORSDOF 3
ENDMDL
MODEL 2
REMARK VINA RESULT:      -8.1      3.032      5.046
REMARK  3 active torsions:
REMARK  status: ('A' for Active; 'I' for Inactive)
REMARK    1  A    between atoms: C_5  and  N_6 
REMARK       I    between atoms: N_6  and  C_7 
REMARK    2  A    between atoms: C_7  and  C_8 
REMARK    3  A    between atoms: C_8  and  C_9 
ROOT
HETATM    1  C   UNL     1      -7.389   1.466 -31.614  1.00  0.00     0.286 C 
HETATM    2  N   UNL     1      -6.691   2.550 -32.425  1.00  0.00    -0.056 N 
HETATM    3  H   UNL     1      -6.059   2.045 -33.084  1.00  0.00     0.278 HD
HETATM    4  H   UNL     1      -7.365   3.057 -33.009  1.00  0.00     0.278 HD
HETATM    5  C   UNL     1      -5.902   3.492 -31.550  1.00  0.00     0.209 C 
HETATM    6  C   UNL     1      -4.842   2.681 -30.757  1.00  0.00     0.115 C 
HETATM    7  N   UNL     1      -5.420   1.508 -30.098  1.00  0.00    -0.353 N 
HETATM    8  C   UNL     1      -6.446   0.756 -30.619  1.00  0.00     0.249 C 
HETATM    9  O   UNL     1      -6.643  -0.383 -30.212  1.00  0.00    -0.271 OA
HETATM   10  C   UNL     1      -5.292   4.595 -32.413  1.00  0.00     0.035 C 
HETATM   11  C   UNL     1      -4.118   4.116 -33.264  1.00  0.00     0.002 C 
HETATM   12  C   UNL     1      -3.065   3.419 -32.413  1.00  0.00     0.002 C 
HETATM   13  C   UNL     1      -3.658   2.250 -31.634  1.00  0.00     0.027 C 
HETATM   14  H   UNL     1      -4.838   0.997 -29.437  1.00  0.00     0.163 HD
ENDROOT
BRANCH   1  15
HETATM   15  C   UNL     1      -8.118   0.466 -32.520  1.00  0.00     0.146 C 
BRANCH  15  16
HETATM   16  C   UNL     1      -7.850   0.759 -33.974  1.00  0.00     0.224 C 
HETATM   17  N   UNL     1      -6.890   0.112 -34.682  1.00  0.00    -0.327 N 
HETATM   18  H   UNL     1      -6.764   0.518 -35.605  1.00  0.00     0.169 HD
HETATM   19  O   UNL     1      -8.560   1.600 -34.544  1.00  0.00    -0.273 OA
BRANCH  17  20
HETATM   20  C   UNL     1      -6.029  -0.967 -34.392  1.00  0.00     0.034 A 
HETATM   21  C   UNL     1      -4.881  -0.899 -33.604  1.00  0.00     0.030 A 
HETATM   22  C   UNL     1      -4.099  -2.041 -33.380  1.00  0.00     0.009 A 
HETATM   23  C   UNL     1      -4.451  -3.272 -33.938  1.00  0.00    -0.062 A 
HETATM   24  C   UNL     1      -3.620  -4.491 -33.670  1.00  0.00     0.048 C 
HETATM   25  C   UNL     1      -5.622  -3.354 -34.693  1.00  0.00     0.009 A 
HETATM   26  C   UNL     1      -6.400  -2.213 -34.916  1.00  0.00     0.030 A 
ENDBRANCH  17  20
ENDBRANCH  15  16
ENDBRANCH   1  15
TORSDOF 3
ENDMDL
MODEL 3
REMARK VINA RESULT:      -8.0      4.280      6.713
REMARK  3 active torsions:
REMARK  status: ('A' for Active; 'I' for Inactive)
REMARK    1  A    between atoms: C_5  and  N_6 
REMARK       I    between atoms: N_6  and  C_7 
REMARK    2  A    between atoms: C_7  and  C_8 
REMARK    3  A    between atoms: C_8  and  C_9 
ROOT
HETATM    1  C   UNL     1      -3.585   4.118 -33.371  1.00  0.00     0.286 C 
HETATM    2  N   UNL     1      -2.695   4.577 -32.223  1.00  0.00    -0.056 N 
HETATM    3  H   UNL     1      -3.196   5.379 -31.782  1.00  0.00     0.278 HD
HETATM    4  H   UNL     1      -2.631   3.851 -31.501  1.00  0.00     0.278 HD
HETATM    5  C   UNL     1      -1.329   5.003 -32.700  1.00  0.00     0.209 C 
HETATM    6  C   UNL     1      -1.485   6.160 -33.723  1.00  0.00     0.115 C 
HETATM    7  N   UNL     1      -2.473   5.854 -34.760  1.00  0.00    -0.353 N 
HETATM    8  C   UNL     1      -3.615   5.118 -34.547  1.00  0.00     0.249 C 
HETATM    9  O   UNL     1      -4.552   5.192 -35.334  1.00  0.00    -0.271 OA
HETATM   10  C   UNL     1      -0.465   5.377 -31.498  1.00  0.00     0.035 C 
HETATM   11  C   UNL     1      -0.856   6.710 -30.865  1.00  0.00     0.002 C 
HETATM   12  C   UNL     1      -0.893   7.825 -31.901  1.00  0.00     0.002 C 
HETATM   13  C   UNL     1      -1.840   7.493 -33.049  1.00  0.00     0.027 C 
HETATM   14  H   UNL     1      -2.542   6.486 -35.555  1.00  0.00     0.163 HD
ENDROOT
BRANCH   1  15
HETATM   15  C   UNL     1      -4.996   3.769 -32.884  1.00  0.00     0.146 C 
BRANCH  15  16
HETATM   16  C   UNL     1      -4.958   3.151 -31.510  1.00  0.00     0.224 C 
HETATM   17  N   UNL     1      -5.033   1.810 -31.313  1.00  0.00    -0.327 N 
HETATM   18  H   UNL     1      -5.117   1.579 -30.327  1.00  0.00     0.169 HD
HETATM   19  O   UNL     1      -4.819   3.900 -30.534  1.00  0.00    -0.273 OA
BRANCH  17  20
HETATM   20  C   UNL     1      -5.049   0.699 -32.181  1.00  0.00     0.034 A 
HETATM   21  C   UNL     1      -3.924   0.044 -32.681  1.00  0.00     0.030 A 
HETATM   22  C   UNL     1      -4.060  -1.057 -33.538  1.00  0.00     0.009 A 
HETATM   23  C   UNL     1      -5.323  -1.525 -33.910  1.00  0.00    -0.062 A 
HETATM   24  C   UNL     1      -5.454  -2.720 -34.807  1.00  0.00     0.048 C 
HETATM   25  C   UNL     1      -6.451  -0.898 -33.380  1.00  0.00     0.009 A 
HETATM   26  C   UNL     1      -6.313   0.200 -32.525  1.00  0.00     0.030 A 
ENDBRANCH  17  20
ENDBRANCH  15  16
ENDBRANCH   1  15
TORSDOF 3
ENDMDL
MODEL 4
REMARK VINA RESULT:      -7.8     14.669     17.632
REMARK  3 active torsions:
REMARK  status: ('A' for Active; 'I' for Inactive)
REMARK    1  A    between atoms: C_5  and  N_6 
REMARK       I    between atoms: N_6  and  C_7 
REMARK    2  A    between atoms: C_7  and  C_8 
REMARK    3  A    between atoms: C_8  and  C_9 
ROOT
HETATM    1  C   UNL     1      -3.951 -13.961 -39.981  1.00  0.00     0.286 C 
HETATM    2  N   UNL     1      -2.879 -14.143 -38.914  1.00  0.00    -0.056 N 
HETATM    3  H   UNL     1      -2.254 -13.313 -38.999  1.00  0.00     0.278 HD
HETATM    4  H   UNL     1      -3.290 -14.094 -37.975  1.00  0.00     0.278 HD
HETATM    5  C   UNL     1      -2.098 -15.418 -39.107  1.00  0.00     0.209 C 
HETATM    6  C   UNL     1      -1.429 -15.397 -40.508  1.00  0.00     0.115 C 
HETATM    7  N   UNL     1      -2.374 -15.043 -41.569  1.00  0.00    -0.353 N 
HETATM    8  C   UNL     1      -3.412 -14.155 -41.415  1.00  0.00     0.249 C 
HETATM    9  O   UNL     1      -3.935 -13.643 -42.398  1.00  0.00    -0.271 OA
HETATM   10  C   UNL     1      -1.095 -15.577 -37.966  1.00  0.00     0.035 C 
HETATM   11  C   UNL     1       0.091 -14.623 -38.067  1.00  0.00     0.002 C 
HETATM   12  C   UNL     1       0.768 -14.722 -39.428  1.00  0.00     0.002 C 
HETATM   13  C   UNL     1      -0.215 -14.457 -40.562  1.00  0.00     0.027 C 
HETATM   14  H   UNL     1      -2.067 -15.144 -42.535  1.00  0.00     0.163 HD
ENDROOT
BRANCH   1  15
HETATM   15  C   UNL     1      -4.682 -12.623 -39.824  1.00  0.00     0.146 C 
BRANCH  15  16
HETATM   16  C   UNL     1      -5.109 -12.404 -38.395  1.00  0.00     0.224 C 
HETATM   17  N   UNL     1      -6.395 -12.557 -37.989  1.00  0.00    -0.327 N 
HETATM   18  H   UNL     1      -6.525 -12.252 -37.028  1.00  0.00     0.169 HD
HETATM   19  O   UNL     1      -4.242 -12.107 -37.562  1.00  0.00    -0.273 OA
BRANCH  17  20
HETATM   20  C   UNL     1      -7.568 -13.014 -38.625  1.00  0.00     0.034 A 
HETATM   21  C   UNL     1      -8.166 -14.257 -38.425  1.00  0.00     0.030 A 
HETATM   22  C   UNL     1      -9.337 -14.606 -39.112  1.00  0.00     0.009 A 
HETATM   23  C   UNL     1      -9.934 -13.716 -40.010  1.00  0.00    -0.062 A 
HETATM   24  C   UNL     1     -11.201 -14.091 -40.720  1.00  0.00     0.048 C 
HETATM   25  C   UNL     1      -9.361 -12.456 -40.183  1.00  0.00     0.009 A 
HETATM   26  C   UNL     1      -8.192 -12.111 -39.496  1.00  0.00     0.030 A 
ENDBRANCH  17  20
ENDBRANCH  15  16
ENDBRANCH   1  15
TORSDOF 3
ENDMDL
MODEL 5
REMARK VINA RESULT:      -7.8      1.856      2.378
REMARK  3 active torsions:
REMARK  status: ('A' for Active; 'I' for Inactive)
REMARK    1  A    between atoms: C_5  and  N_6 
REMARK       I    between atoms: N_6  and  C_7 
REMARK    2  A    between atoms: C_7  and  C_8 
REMARK    3  A    between atoms: C_8  and  C_9 
ROOT
HETATM    1  C   UNL     1      -9.665   0.834 -32.371  1.00  0.00     0.286 C 
HETATM    2  N   UNL     1     -10.537   0.749 -33.617  1.00  0.00    -0.056 N 
HETATM    3  H   UNL     1     -10.018   1.266 -34.359  1.00  0.00     0.278 HD
HETATM    4  H   UNL     1     -10.610  -0.221 -33.943  1.00  0.00     0.278 HD
HETATM    5  C   UNL     1     -11.898   1.361 -33.398  1.00  0.00     0.209 C 
HETATM    6  C   UNL     1     -11.727   2.849 -32.991  1.00  0.00     0.115 C 
HETATM    7  N   UNL     1     -10.753   3.021 -31.911  1.00  0.00    -0.353 N 
HETATM    8  C   UNL     1      -9.625   2.251 -31.759  1.00  0.00     0.249 C 
HETATM    9  O   UNL     1      -8.692   2.654 -31.073  1.00  0.00    -0.271 OA
HETATM   10  C   UNL     1     -12.746   1.175 -34.655  1.00  0.00     0.035 C 
HETATM   11  C   UNL     1     -12.325   2.084 -35.807  1.00  0.00     0.002 C 
HETATM   12  C   UNL     1     -12.275   3.543 -35.371  1.00  0.00     0.002 C 
HETATM   13  C   UNL     1     -11.343   3.740 -34.181  1.00  0.00     0.027 C 
HETATM   14  H   UNL     1     -10.679   3.939 -31.477  1.00  0.00     0.163 HD
ENDROOT
BRANCH   1  15
HETATM   15  C   UNL     1      -8.257   0.286 -32.631  1.00  0.00     0.146 C 
BRANCH  15  16
HETATM   16  C   UNL     1      -7.684   0.848 -33.907  1.00  0.00     0.224 C 
HETATM   17  N   UNL     1      -6.620   0.287 -34.536  1.00  0.00    -0.327 N 
HETATM   18  H   UNL     1      -6.292   0.863 -35.307  1.00  0.00     0.169 HD
HETATM   19  O   UNL     1      -8.232   1.840 -34.408  1.00  0.00    -0.273 OA
BRANCH  17  20
HETATM   20  C   UNL     1      -5.875  -0.891 -34.323  1.00  0.00     0.034 A 
HETATM   21  C   UNL     1      -4.757  -1.005 -33.499  1.00  0.00     0.030 A 
HETATM   22  C   UNL     1      -4.093  -2.233 -33.361  1.00  0.00     0.009 A 
HETATM   23  C   UNL     1      -4.537  -3.369 -34.042  1.00  0.00    -0.062 A 
HETATM   24  C   UNL     1      -3.833  -4.681 -33.866  1.00  0.00     0.048 C 
HETATM   25  C   UNL     1      -5.679  -3.269 -34.837  1.00  0.00     0.009 A 
HETATM   26  C   UNL     1      -6.339  -2.043 -34.974  1.00  0.00     0.030 A 
ENDBRANCH  17  20
ENDBRANCH  15  16
ENDBRANCH   1  15
TORSDOF 3
ENDMDL
MODEL 6
REMARK VINA RESULT:      -7.7      3.934      6.538
REMARK  3 active torsions:
REMARK  status: ('A' for Active; 'I' for Inactive)
REMARK    1  A    between atoms: C_5  and  N_6 
REMARK       I    between atoms: N_6  and  C_7 
REMARK    2  A    between atoms: C_7  and  C_8 
REMARK    3  A    between atoms: C_8  and  C_9 
ROOT
HETATM    1  C   UNL     1      -4.536   4.215 -32.265  1.00  0.00     0.286 C 
HETATM    2  N   UNL     1      -4.088   5.655 -32.480  1.00  0.00    -0.056 N 
HETATM    3  H   UNL     1      -3.560   5.654 -33.380  1.00  0.00     0.278 HD
HETATM    4  H   UNL     1      -4.898   6.268 -32.626  1.00  0.00     0.278 HD
HETATM    5  C   UNL     1      -3.217   6.151 -31.354  1.00  0.00     0.209 C 
HETATM    6  C   UNL     1      -1.967   5.238 -31.237  1.00  0.00     0.115 C 
HETATM    7  N   UNL     1      -2.320   3.817 -31.212  1.00  0.00    -0.353 N 
HETATM    8  C   UNL     1      -3.368   3.268 -31.911  1.00  0.00     0.249 C 
HETATM    9  O   UNL     1      -3.399   2.063 -32.130  1.00  0.00    -0.271 OA
HETATM   10  C   UNL     1      -2.867   7.619 -31.592  1.00  0.00     0.035 C 
HETATM   11  C   UNL     1      -1.848   7.824 -32.710  1.00  0.00     0.002 C 
HETATM   12  C   UNL     1      -0.602   6.977 -32.485  1.00  0.00     0.002 C 
HETATM   13  C   UNL     1      -0.946   5.498 -32.354  1.00  0.00     0.027 C 
HETATM   14  H   UNL     1      -1.585   3.147 -30.992  1.00  0.00     0.163 HD
ENDROOT
BRANCH   1  15
HETATM   15  C   UNL     1      -5.350   3.694 -33.455  1.00  0.00     0.146 C 
BRANCH  15  16
HETATM   16  C   UNL     1      -6.825   3.704 -33.147  1.00  0.00     0.224 C 
HETATM   17  N   UNL     1      -7.616   2.619 -33.342  1.00  0.00    -0.327 N 
HETATM   18  H   UNL     1      -8.599   2.838 -33.200  1.00  0.00     0.169 HD
HETATM   19  O   UNL     1      -7.318   4.735 -32.668  1.00  0.00    -0.273 OA
BRANCH  17  20
HETATM   20  C   UNL     1      -7.361   1.285 -33.723  1.00  0.00     0.034 A 
HETATM   21  C   UNL     1      -7.575   0.749 -34.991  1.00  0.00     0.030 A 
HETATM   22  C   UNL     1      -7.281  -0.596 -35.258  1.00  0.00     0.009 A 
HETATM   23  C   UNL     1      -6.766  -1.429 -34.262  1.00  0.00    -0.062 A 
HETATM   24  C   UNL     1      -6.432  -2.859 -34.567  1.00  0.00     0.048 C 
HETATM   25  C   UNL     1      -6.513  -0.886 -33.001  1.00  0.00     0.009 A 
HETATM   26  C   UNL     1      -6.807   0.455 -32.738  1.00  0.00     0.030 A 
ENDBRANCH  17  20
ENDBRANCH  15  16
ENDBRANCH   1  15
TORSDOF 3
ENDMDL
MODEL 7
REMARK VINA RESULT:      -7.6      3.993      6.877
REMARK  3 active torsions:
REMARK  status: ('A' for Active; 'I' for Inactive)
REMARK    1  A    between atoms: C_5  and  N_6 
REMARK       I    between atoms: N_6  and  C_7 
REMARK    2  A    between atoms: C_7  and  C_8 
REMARK    3  A    between atoms: C_8  and  C_9 
ROOT
HETATM    1  C   UNL     1      -5.942   2.900 -31.446  1.00  0.00     0.286 C 
HETATM    2  N   UNL     1      -5.426   1.839 -32.410  1.00  0.00    -0.056 N 
HETATM    3  H   UNL     1      -5.949   1.988 -33.300  1.00  0.00     0.278 HD
HETATM    4  H   UNL     1      -4.437   2.001 -32.631  1.00  0.00     0.278 HD
HETATM    5  C   UNL     1      -5.653   0.442 -31.889  1.00  0.00     0.209 C 
HETATM    6  C   UNL     1      -7.172   0.228 -31.656  1.00  0.00     0.115 C 
HETATM    7  N   UNL     1      -7.775   1.318 -30.885  1.00  0.00    -0.353 N 
HETATM    8  C   UNL     1      -7.388   2.634 -30.976  1.00  0.00     0.249 C 
HETATM    9  O   UNL     1      -8.137   3.524 -30.591  1.00  0.00    -0.271 OA
HETATM   10  C   UNL     1      -5.046  -0.567 -32.862  1.00  0.00     0.035 C 
HETATM   11  C   UNL     1      -5.851  -0.724 -34.149  1.00  0.00     0.002 C 
HETATM   12  C   UNL     1      -7.313  -1.033 -33.854  1.00  0.00     0.002 C 
HETATM   13  C   UNL     1      -7.944   0.035 -32.969  1.00  0.00     0.027 C 
HETATM   14  H   UNL     1      -8.731   1.199 -30.557  1.00  0.00     0.163 HD
ENDROOT
BRANCH   1  15
HETATM   15  C   UNL     1      -5.781   4.311 -32.024  1.00  0.00     0.146 C 
BRANCH  15  16
HETATM   16  C   UNL     1      -5.354   4.259 -33.469  1.00  0.00     0.224 C 
HETATM   17  N   UNL     1      -4.136   4.689 -33.883  1.00  0.00    -0.327 N 
HETATM   18  H   UNL     1      -4.064   4.697 -34.897  1.00  0.00     0.169 HD
HETATM   19  O   UNL     1      -6.140   3.775 -34.295  1.00  0.00    -0.273 OA
BRANCH  17  20
HETATM   20  C   UNL     1      -2.985   5.147 -33.209  1.00  0.00     0.034 A 
HETATM   21  C   UNL     1      -2.212   4.397 -32.324  1.00  0.00     0.030 A 
HETATM   22  C   UNL     1      -1.082   4.956 -31.711  1.00  0.00     0.009 A 
HETATM   23  C   UNL     1      -0.702   6.275 -31.973  1.00  0.00    -0.062 A 
HETATM   24  C   UNL     1       0.523   6.853 -31.330  1.00  0.00     0.048 C 
HETATM   25  C   UNL     1      -1.450   7.017 -32.888  1.00  0.00     0.009 A 
HETATM   26  C   UNL     1      -2.577   6.457 -33.499  1.00  0.00     0.030 A 
ENDBRANCH  17  20
ENDBRANCH  15  16
ENDBRANCH   1  15
TORSDOF 3
ENDMDL
MODEL 8
REMARK VINA RESULT:      -7.6      4.360      7.053
REMARK  3 active torsions:
REMARK  status: ('A' for Active; 'I' for Inactive)
REMARK    1  A    between atoms: C_5  and  N_6 
REMARK       I    between atoms: N_6  and  C_7 
REMARK    2  A    between atoms: C_7  and  C_8 
REMARK    3  A    between atoms: C_8  and  C_9 
ROOT
HETATM    1  C   UNL     1      -5.107   2.908 -32.568  1.00  0.00     0.286 C 
HETATM    2  N   UNL     1      -5.954   2.257 -33.653  1.00  0.00    -0.056 N 
HETATM    3  H   UNL     1      -6.917   2.637 -33.526  1.00  0.00     0.278 HD
HETATM    4  H   UNL     1      -5.649   2.563 -34.584  1.00  0.00     0.278 HD
HETATM    5  C   UNL     1      -5.958   0.753 -33.542  1.00  0.00     0.209 C 
HETATM    6  C   UNL     1      -6.510   0.348 -32.149  1.00  0.00     0.115 C 
HETATM    7  N   UNL     1      -5.860   1.082 -31.060  1.00  0.00    -0.353 N 
HETATM    8  C   UNL     1      -5.436   2.386 -31.153  1.00  0.00     0.249 C 
HETATM    9  O   UNL     1      -5.231   3.041 -30.137  1.00  0.00    -0.271 OA
HETATM   10  C   UNL     1      -6.759   0.160 -34.700  1.00  0.00     0.035 C 
HETATM   11  C   UNL     1      -8.266   0.354 -34.554  1.00  0.00     0.002 C 
HETATM   12  C   UNL     1      -8.762  -0.155 -33.207  1.00  0.00     0.002 C 
HETATM   13  C   UNL     1      -8.033   0.519 -32.050  1.00  0.00     0.027 C 
HETATM   14  H   UNL     1      -6.049   0.784 -30.105  1.00  0.00     0.163 HD
ENDROOT
BRANCH   1  15
HETATM   15  C   UNL     1      -5.179   4.438 -32.641  1.00  0.00     0.146 C 
BRANCH  15  16
HETATM   16  C   UNL     1      -4.704   4.939 -33.980  1.00  0.00     0.224 C 
HETATM   17  N   UNL     1      -3.566   5.665 -34.124  1.00  0.00    -0.327 N 
HETATM   18  H   UNL     1      -3.465   6.022 -35.071  1.00  0.00     0.169 HD
HETATM   19  O   UNL     1      -5.366   4.644 -34.985  1.00  0.00    -0.273 OA
BRANCH  17  20
HETATM   20  C   UNL     1      -2.535   6.042 -33.240  1.00  0.00     0.034 A 
HETATM   21  C   UNL     1      -2.332   7.323 -32.730  1.00  0.00     0.030 A 
HETATM   22  C   UNL     1      -1.270   7.583 -31.851  1.00  0.00     0.009 A 
HETATM   23  C   UNL     1      -0.393   6.566 -31.465  1.00  0.00    -0.062 A 
HETATM   24  C   UNL     1       0.723   6.852 -30.505  1.00  0.00     0.048 C 
HETATM   25  C   UNL     1      -0.617   5.273 -31.941  1.00  0.00     0.009 A 
HETATM   26  C   UNL     1      -1.676   5.017 -32.818  1.00  0.00     0.030 A 
ENDBRANCH  17  20
ENDBRANCH  15  16
ENDBRANCH   1  15
TORSDOF 3
ENDMDL
MODEL 9
REMARK VINA RESULT:      -7.6      7.215     10.068
REMARK  3 active torsions:
REMARK  status: ('A' for Active; 'I' for Inactive)
REMARK    1  A    between atoms: C_5  and  N_6 
REMARK       I    between atoms: N_6  and  C_7 
REMARK    2  A    between atoms: C_7  and  C_8 
REMARK    3  A    between atoms: C_8  and  C_9 
ROOT
HETATM    1  C   UNL     1      -0.868   6.151 -30.561  1.00  0.00     0.286 C 
HETATM    2  N   UNL     1      -1.099   7.423 -29.757  1.00  0.00    -0.056 N 
HETATM    3  H   UNL     1      -0.257   8.016 -29.920  1.00  0.00     0.278 HD
HETATM    4  H   UNL     1      -1.895   7.951 -30.133  1.00  0.00     0.278 HD
HETATM    5  C   UNL     1      -1.273   7.140 -28.286  1.00  0.00     0.209 C 
HETATM    6  C   UNL     1      -0.005   6.420 -27.754  1.00  0.00     0.115 C 
HETATM    7  N   UNL     1       0.384   5.287 -28.596  1.00  0.00    -0.353 N 
HETATM    8  C   UNL     1       0.234   5.251 -29.962  1.00  0.00     0.249 C 
HETATM    9  O   UNL     1       0.881   4.455 -30.632  1.00  0.00    -0.271 OA
HETATM   10  C   UNL     1      -1.576   8.444 -27.550  1.00  0.00     0.035 C 
HETATM   11  C   UNL     1      -0.361   9.357 -27.414  1.00  0.00     0.002 C 
HETATM   12  C   UNL     1       0.819   8.621 -26.793  1.00  0.00     0.002 C 
HETATM   13  C   UNL     1       1.186   7.376 -27.592  1.00  0.00     0.027 C 
HETATM   14  H   UNL     1       1.114   4.665 -28.252  1.00  0.00     0.163 HD
ENDROOT
BRANCH   1  15
HETATM   15  C   UNL     1      -0.610   6.459 -32.041  1.00  0.00     0.146 C 
BRANCH  15  16
HETATM   16  C   UNL     1      -1.841   7.027 -32.698  1.00  0.00     0.224 C 
HETATM   17  N   UNL     1      -2.983   6.310 -32.849  1.00  0.00    -0.327 N 
HETATM   18  H   UNL     1      -3.665   6.803 -33.420  1.00  0.00     0.169 HD
HETATM   19  O   UNL     1      -1.810   8.205 -33.082  1.00  0.00    -0.273 OA
BRANCH  17  20
HETATM   20  C   UNL     1      -3.395   5.034 -32.411  1.00  0.00     0.034 A 
HETATM   21  C   UNL     1      -2.881   3.818 -32.858  1.00  0.00     0.030 A 
HETATM   22  C   UNL     1      -3.366   2.606 -32.347  1.00  0.00     0.009 A 
HETATM   23  C   UNL     1      -4.373   2.587 -31.378  1.00  0.00    -0.062 A 
HETATM   24  C   UNL     1      -4.866   1.285 -30.822  1.00  0.00     0.048 C 
HETATM   25  C   UNL     1      -4.863   3.803 -30.899  1.00  0.00     0.009 A 
HETATM   26  C   UNL     1      -4.377   5.011 -31.410  1.00  0.00     0.030 A 
ENDBRANCH  17  20
ENDBRANCH  15  16
ENDBRANCH   1  15
TORSDOF 3
ENDMDL
MODEL 10
REMARK VINA RESULT:      -7.4      7.924     10.549
REMARK  3 active torsions:
REMARK  status: ('A' for Active; 'I' for Inactive)
REMARK    1  A    between atoms: C_5  and  N_6 
REMARK       I    between atoms: N_6  and  C_7 
REMARK    2  A    between atoms: C_7  and  C_8 
REMARK    3  A    between atoms: C_8  and  C_9 
ROOT
HETATM    1  C   UNL     1      -1.491   6.850 -31.794  1.00  0.00     0.286 C 
HETATM    2  N   UNL     1      -2.420   5.920 -31.024  1.00  0.00    -0.056 N 
HETATM    3  H   UNL     1      -2.066   4.955 -31.206  1.00  0.00     0.278 HD
HETATM    4  H   UNL     1      -2.327   6.070 -30.014  1.00  0.00     0.278 HD
HETATM    5  C   UNL     1      -3.854   6.052 -31.473  1.00  0.00     0.209 C 
HETATM    6  C   UNL     1      -3.944   5.729 -32.988  1.00  0.00     0.115 C 
HETATM    7  N   UNL     1      -2.945   6.458 -33.772  1.00  0.00    -0.353 N 
HETATM    8  C   UNL     1      -1.681   6.759 -33.324  1.00  0.00     0.249 C 
HETATM    9  O   UNL     1      -0.796   7.045 -34.122  1.00  0.00    -0.271 OA
HETATM   10  C   UNL     1      -4.739   5.153 -30.613  1.00  0.00     0.035 C 
HETATM   11  C   UNL     1      -4.588   3.669 -30.936  1.00  0.00     0.002 C 
HETATM   12  C   UNL     1      -4.788   3.402 -32.422  1.00  0.00     0.002 C 
HETATM   13  C   UNL     1      -3.827   4.225 -33.273  1.00  0.00     0.027 C 
HETATM   14  H   UNL     1      -3.018   6.425 -34.787  1.00  0.00     0.163 HD
ENDROOT
BRANCH   1  15
HETATM   15  C   UNL     1      -0.027   6.646 -31.389  1.00  0.00     0.146 C 
BRANCH  15  16
HETATM   16  C   UNL     1       0.083   5.718 -30.206  1.00  0.00     0.224 C 
HETATM   17  N   UNL     1       0.202   6.173 -28.933  1.00  0.00    -0.327 N 
HETATM   18  H   UNL     1       0.388   5.417 -28.279  1.00  0.00     0.169 HD
HETATM   19  O   UNL     1       0.030   4.497 -30.411  1.00  0.00    -0.273 OA
BRANCH  17  20
HETATM   20  C   UNL     1       0.150   7.456 -28.350  1.00  0.00     0.034 A 
HETATM   21  C   UNL     1      -0.985   8.260 -28.258  1.00  0.00     0.030 A 
HETATM   22  C   UNL     1      -0.920   9.522 -27.652  1.00  0.00     0.009 A 
HETATM   23  C   UNL     1       0.281  10.004 -27.125  1.00  0.00    -0.062 A 
HETATM   24  C   UNL     1       0.332  11.346 -26.457  1.00  0.00     0.048 C 
HETATM   25  C   UNL     1       1.411   9.186 -27.179  1.00  0.00     0.009 A 
HETATM   26  C   UNL     1       1.344   7.927 -27.784  1.00  0.00     0.030 A 
ENDBRANCH  17  20
ENDBRANCH  15  16
ENDBRANCH   1  15
TORSDOF 3
ENDMDL
