MODEL 1
REMARK VINA RESULT:      -8.4      0.000      0.000
REMARK  9 active torsions:
REMARK  status: ('A' for Active; 'I' for Inactive)
REMARK    1  A    between atoms: C_2  and  C_3 
REMARK    2  A    between atoms: C_6  and  N_7 
REMARK    3  A    between atoms: N_7  and  S_8 
REMARK    4  A    between atoms: S_8  and  C_9 
REMARK    5  A    between atoms: C_15  and  C_16 
REMARK       I    between atoms: C_16  and  N_17 
REMARK    6  A    between atoms: N_17  and  C_18 
REMARK    7  A    between atoms: C_18  and  C_19 
REMARK    8  A    between atoms: C_19  and  C_20 
REMARK    9  A    between atoms: C_20  and  O_21 
ROOT
HETATM    1  C   UNL     1      -6.641   2.419 -32.250  1.00  0.00     0.081 A 
HETATM    2  C   UNL     1      -7.892   1.811 -32.376  1.00  0.00     0.043 A 
HETATM    3  C   UNL     1      -8.879   2.443 -33.137  1.00  0.00     0.043 A 
HETATM    4  C   UNL     1      -8.620   3.663 -33.789  1.00  0.00     0.046 A 
HETATM    5  N   UNL     1      -9.640   4.292 -34.511  1.00  0.00    -0.364 N 
HETATM    6  C   UNL     1     -10.873   3.707 -34.646  1.00  0.00     0.109 A 
HETATM    7  C   UNL     1     -11.249   2.544 -34.086  1.00  0.00     0.098 A 
HETATM    8  C   UNL     1     -10.230   1.831 -33.265  1.00  0.00     0.201 A 
HETATM    9  O   UNL     1     -10.482   0.769 -32.699  1.00  0.00    -0.286 OA
HETATM   10  C   UNL     1      -7.360   4.253 -33.653  1.00  0.00     0.032 A 
HETATM   11  C   UNL     1      -6.365   3.630 -32.893  1.00  0.00     0.027 A 
HETATM   12  H   UNL     1      -9.423   5.102 -35.082  1.00  0.00     0.165 HD
ENDROOT
BRANCH   1  13
HETATM   13  S   UNL     1      -5.376   1.606 -31.297  1.00  0.00     0.263 S 
HETATM   14  O   UNL     1      -5.986   0.491 -30.606  1.00  0.00    -0.200 OA
HETATM   15  O   UNL     1      -4.663   2.637 -30.573  1.00  0.00    -0.200 OA
BRANCH  13  16
HETATM   16  N   UNL     1      -4.322   1.040 -32.485  1.00  0.00    -0.281 N 
HETATM   17  H   UNL     1      -3.960   1.787 -33.076  1.00  0.00     0.179 HD
BRANCH  16  18
HETATM   18  C   UNL     1      -4.568  -0.223 -33.089  1.00  0.00     0.042 A 
HETATM   19  C   UNL     1      -5.621  -0.369 -33.988  1.00  0.00     0.030 A 
HETATM   20  C   UNL     1      -5.873  -1.615 -34.571  1.00  0.00     0.010 A 
HETATM   21  C   UNL     1      -5.067  -2.724 -34.269  1.00  0.00    -0.055 A 
HETATM   22  C   UNL     1      -4.022  -2.562 -33.347  1.00  0.00     0.010 A 
HETATM   23  C   UNL     1      -3.778  -1.320 -32.756  1.00  0.00     0.030 A 
BRANCH  21  24
HETATM   24  C   UNL     1      -5.303  -4.088 -34.897  1.00  0.00     0.010 C 
HETATM   25  C   UNL     1      -6.792  -4.425 -35.025  1.00  0.00     0.015 C 
HETATM   26  C   UNL     1      -4.562  -5.179 -34.124  1.00  0.00     0.015 C 
ENDBRANCH  21  24
ENDBRANCH  16  18
ENDBRANCH  13  16
ENDBRANCH   1  13
BRANCH   7  27
HETATM   27  C   UNL     1     -12.641   2.061 -34.316  1.00  0.00     0.257 C 
HETATM   28  N   UNL     1     -13.329   1.694 -33.188  1.00  0.00    -0.357 N 
HETATM   29  H   UNL     1     -12.868   1.809 -32.283  1.00  0.00     0.162 HD
HETATM   30  O   UNL     1     -13.124   2.007 -35.444  1.00  0.00    -0.267 OA
BRANCH  28  31
HETATM   31  C   UNL     1     -14.711   1.263 -33.216  1.00  0.00     0.125 C 
BRANCH  31  32
HETATM   32  C   UNL     1     -15.608   2.026 -32.248  1.00  0.00     0.046 C 
BRANCH  32  33
HETATM   33  C   UNL     1     -15.130   3.452 -32.001  1.00  0.00     0.168 C 
BRANCH  33  34
HETATM   34  O   UNL     1     -14.037   3.402 -31.081  1.00  0.00    -0.396 OA
HETATM   35  C   UNL     1     -13.690   4.695 -30.605  1.00  0.00     0.201 C 
ENDBRANCH  33  34
ENDBRANCH  32  33
ENDBRANCH  31  32
ENDBRANCH  28  31
ENDBRANCH   7  27
TORSDOF 9
ENDMDL
MODEL 2
REMARK VINA RESULT:      -8.4      4.660      8.689
REMARK  9 active torsions:
REMARK  status: ('A' for Active; 'I' for Inactive)
REMARK    1  A    between atoms: C_2  and  C_3 
REMARK    2  A    between atoms: C_6  and  N_7 
REMARK    3  A    between atoms: N_7  and  S_8 
REMARK    4  A    between atoms: S_8  and  C_9 
REMARK    5  A    between atoms: C_15  and  C_16 
REMARK       I    between atoms: C_16  and  N_17 
REMARK    6  A    between atoms: N_17  and  C_18 
REMARK    7  A    between atoms: C_18  and  C_19 
REMARK    8  A    between atoms: C_19  and  C_20 
REMARK    9  A    between atoms: C_20  and  O_21 
ROOT
HETATM    1  C   UNL     1      -5.487   3.483 -33.571  1.00  0.00     0.081 A 
HETATM    2  C   UNL     1      -4.478   3.361 -32.612  1.00  0.00     0.043 A 
HETATM    3  C   UNL     1      -3.386   4.231 -32.664  1.00  0.00     0.043 A 
HETATM    4  C   UNL     1      -3.302   5.232 -33.649  1.00  0.00     0.046 A 
HETATM    5  N   UNL     1      -2.177   6.061 -33.701  1.00  0.00    -0.364 N 
HETATM    6  C   UNL     1      -1.180   5.955 -32.766  1.00  0.00     0.109 A 
HETATM    7  C   UNL     1      -1.139   5.054 -31.769  1.00  0.00     0.098 A 
HETATM    8  C   UNL     1      -2.284   4.105 -31.671  1.00  0.00     0.201 A 
HETATM    9  O   UNL     1      -2.330   3.234 -30.805  1.00  0.00    -0.286 OA
HETATM   10  C   UNL     1      -4.325   5.339 -34.597  1.00  0.00     0.032 A 
HETATM   11  C   UNL     1      -5.422   4.474 -34.556  1.00  0.00     0.027 A 
HETATM   12  H   UNL     1      -2.172   6.859 -34.327  1.00  0.00     0.165 HD
ENDROOT
BRANCH   1  13
HETATM   13  S   UNL     1      -6.890   2.390 -33.494  1.00  0.00     0.263 S 
HETATM   14  O   UNL     1      -7.166   1.923 -34.835  1.00  0.00    -0.200 OA
HETATM   15  O   UNL     1      -7.905   3.058 -32.708  1.00  0.00    -0.200 OA
BRANCH  13  16
HETATM   16  N   UNL     1      -6.315   1.116 -32.549  1.00  0.00    -0.281 N 
HETATM   17  H   UNL     1      -5.680   1.428 -31.815  1.00  0.00     0.179 HD
BRANCH  16  18
HETATM   18  C   UNL     1      -6.059  -0.142 -33.158  1.00  0.00     0.042 A 
HETATM   19  C   UNL     1      -7.121  -0.931 -33.591  1.00  0.00     0.030 A 
HETATM   20  C   UNL     1      -6.870  -2.176 -34.178  1.00  0.00     0.010 A 
HETATM   21  C   UNL     1      -5.555  -2.637 -34.349  1.00  0.00    -0.055 A 
HETATM   22  C   UNL     1      -4.500  -1.835 -33.889  1.00  0.00     0.010 A 
HETATM   23  C   UNL     1      -4.751  -0.597 -33.294  1.00  0.00     0.030 A 
BRANCH  21  24
HETATM   24  C   UNL     1      -5.248  -3.976 -34.996  1.00  0.00     0.010 C 
HETATM   25  C   UNL     1      -6.512  -4.719 -35.440  1.00  0.00     0.015 C 
HETATM   26  C   UNL     1      -4.402  -4.849 -34.068  1.00  0.00     0.015 C 
ENDBRANCH  21  24
ENDBRANCH  16  18
ENDBRANCH  13  16
ENDBRANCH   1  13
BRANCH   7  27
HETATM   27  C   UNL     1       0.037   5.062 -30.851  1.00  0.00     0.257 C 
HETATM   28  N   UNL     1      -0.211   5.528 -29.585  1.00  0.00    -0.357 N 
HETATM   29  H   UNL     1      -1.168   5.796 -29.348  1.00  0.00     0.162 HD
HETATM   30  O   UNL     1       1.141   4.670 -31.217  1.00  0.00    -0.267 OA
BRANCH  28  31
HETATM   31  C   UNL     1       0.795   5.546 -28.545  1.00  0.00     0.125 C 
BRANCH  31  32
HETATM   32  C   UNL     1       0.821   6.844 -27.744  1.00  0.00     0.046 C 
BRANCH  32  33
HETATM   33  C   UNL     1       0.311   8.038 -28.541  1.00  0.00     0.168 C 
BRANCH  33  34
HETATM   34  O   UNL     1      -1.090   8.174 -28.291  1.00  0.00    -0.396 OA
HETATM   35  C   UNL     1      -1.729   8.959 -29.288  1.00  0.00     0.201 C 
ENDBRANCH  33  34
ENDBRANCH  32  33
ENDBRANCH  31  32
ENDBRANCH  28  31
ENDBRANCH   7  27
TORSDOF 9
ENDMDL
MODEL 3
REMARK VINA RESULT:      -8.4      4.109      8.036
REMARK  9 active torsions:
REMARK  status: ('A' for Active; 'I' for Inactive)
REMARK    1  A    between atoms: C_2  and  C_3 
REMARK    2  A    between atoms: C_6  and  N_7 
REMARK    3  A    between atoms: N_7  and  S_8 
REMARK    4  A    between atoms: S_8  and  C_9 
REMARK    5  A    between atoms: C_15  and  C_16 
REMARK       I    between atoms: C_16  and  N_17 
REMARK    6  A    between atoms: N_17  and  C_18 
REMARK    7  A    between atoms: C_18  and  C_19 
REMARK    8  A    between atoms: C_19  and  C_20 
REMARK    9  A    between atoms: C_20  and  O_21 
ROOT
HETATM    1  C   UNL     1      -6.804   3.280 -32.059  1.00  0.00     0.081 A 
HETATM    2  C   UNL     1      -5.683   3.981 -31.607  1.00  0.00     0.043 A 
HETATM    3  C   UNL     1      -4.828   4.567 -32.543  1.00  0.00     0.043 A 
HETATM    4  C   UNL     1      -5.094   4.480 -33.922  1.00  0.00     0.046 A 
HETATM    5  N   UNL     1      -4.199   5.043 -34.838  1.00  0.00    -0.364 N 
HETATM    6  C   UNL     1      -3.095   5.735 -34.409  1.00  0.00     0.109 A 
HETATM    7  C   UNL     1      -2.730   5.904 -33.126  1.00  0.00     0.098 A 
HETATM    8  C   UNL     1      -3.612   5.296 -32.090  1.00  0.00     0.201 A 
HETATM    9  O   UNL     1      -3.355   5.381 -30.891  1.00  0.00    -0.286 OA
HETATM   10  C   UNL     1      -6.224   3.777 -34.353  1.00  0.00     0.032 A 
HETATM   11  C   UNL     1      -7.086   3.184 -33.425  1.00  0.00     0.027 A 
HETATM   12  H   UNL     1      -4.450   5.090 -35.819  1.00  0.00     0.165 HD
ENDROOT
BRANCH   1  13
HETATM   13  S   UNL     1      -7.905   2.548 -30.866  1.00  0.00     0.263 S 
HETATM   14  O   UNL     1      -9.166   2.288 -31.524  1.00  0.00    -0.200 OA
HETATM   15  O   UNL     1      -7.836   3.363 -29.671  1.00  0.00    -0.200 OA
BRANCH  13  16
HETATM   16  N   UNL     1      -7.137   1.093 -30.497  1.00  0.00    -0.281 N 
HETATM   17  H   UNL     1      -6.498   1.175 -29.708  1.00  0.00     0.179 HD
BRANCH  16  18
HETATM   18  C   UNL     1      -6.779   0.209 -31.551  1.00  0.00     0.042 A 
HETATM   19  C   UNL     1      -5.453  -0.185 -31.706  1.00  0.00     0.030 A 
HETATM   20  C   UNL     1      -5.098  -1.043 -32.752  1.00  0.00     0.010 A 
HETATM   21  C   UNL     1      -6.068  -1.526 -33.644  1.00  0.00    -0.055 A 
HETATM   22  C   UNL     1      -7.396  -1.104 -33.483  1.00  0.00     0.010 A 
HETATM   23  C   UNL     1      -7.749  -0.238 -32.445  1.00  0.00     0.030 A 
BRANCH  21  24
HETATM   24  C   UNL     1      -5.718  -2.472 -34.781  1.00  0.00     0.010 C 
HETATM   25  C   UNL     1      -6.749  -3.592 -34.952  1.00  0.00     0.015 C 
HETATM   26  C   UNL     1      -4.314  -3.049 -34.597  1.00  0.00     0.015 C 
ENDBRANCH  21  24
ENDBRANCH  16  18
ENDBRANCH  13  16
ENDBRANCH   1  13
BRANCH   7  27
HETATM   27  C   UNL     1      -1.482   6.668 -32.836  1.00  0.00     0.257 C 
HETATM   28  N   UNL     1      -0.774   6.241 -31.742  1.00  0.00    -0.357 N 
HETATM   29  H   UNL     1      -1.118   5.425 -31.233  1.00  0.00     0.162 HD
HETATM   30  O   UNL     1      -1.126   7.607 -33.542  1.00  0.00    -0.267 OA
BRANCH  28  31
HETATM   31  C   UNL     1       0.492   6.824 -31.351  1.00  0.00     0.125 C 
BRANCH  31  32
HETATM   32  C   UNL     1       0.530   7.280 -29.897  1.00  0.00     0.046 C 
BRANCH  32  33
HETATM   33  C   UNL     1      -0.762   6.974 -29.149  1.00  0.00     0.168 C 
BRANCH  33  34
HETATM   34  O   UNL     1      -1.707   8.002 -29.454  1.00  0.00    -0.396 OA
HETATM   35  C   UNL     1      -2.820   7.973 -28.572  1.00  0.00     0.201 C 
ENDBRANCH  33  34
ENDBRANCH  32  33
ENDBRANCH  31  32
ENDBRANCH  28  31
ENDBRANCH   7  27
TORSDOF 9
ENDMDL
MODEL 4
REMARK VINA RESULT:      -8.0      4.269      8.255
REMARK  9 active torsions:
REMARK  status: ('A' for Active; 'I' for Inactive)
REMARK    1  A    between atoms: C_2  and  C_3 
REMARK    2  A    between atoms: C_6  and  N_7 
REMARK    3  A    between atoms: N_7  and  S_8 
REMARK    4  A    between atoms: S_8  and  C_9 
REMARK    5  A    between atoms: C_15  and  C_16 
REMARK       I    between atoms: C_16  and  N_17 
REMARK    6  A    between atoms: N_17  and  C_18 
REMARK    7  A    between atoms: C_18  and  C_19 
REMARK    8  A    between atoms: C_19  and  C_20 
REMARK    9  A    between atoms: C_20  and  O_21 
ROOT
HETATM    1  C   UNL     1      -7.349   2.850 -32.200  1.00  0.00     0.081 A 
HETATM    2  C   UNL     1      -5.976   3.102 -32.274  1.00  0.00     0.043 A 
HETATM    3  C   UNL     1      -5.451   4.201 -31.589  1.00  0.00     0.043 A 
HETATM    4  C   UNL     1      -6.278   5.035 -30.815  1.00  0.00     0.046 A 
HETATM    5  N   UNL     1      -5.731   6.151 -30.174  1.00  0.00    -0.364 N 
HETATM    6  C   UNL     1      -4.385   6.410 -30.235  1.00  0.00     0.109 A 
HETATM    7  C   UNL     1      -3.484   5.691 -30.927  1.00  0.00     0.098 A 
HETATM    8  C   UNL     1      -3.996   4.507 -31.674  1.00  0.00     0.201 A 
HETATM    9  O   UNL     1      -3.254   3.796 -32.348  1.00  0.00    -0.286 OA
HETATM   10  C   UNL     1      -7.648   4.764 -30.752  1.00  0.00     0.032 A 
HETATM   11  C   UNL     1      -8.186   3.668 -31.434  1.00  0.00     0.027 A 
HETATM   12  H   UNL     1      -6.296   6.679 -29.518  1.00  0.00     0.165 HD
ENDROOT
BRANCH   1  13
HETATM   13  S   UNL     1      -8.016   1.440 -33.056  1.00  0.00     0.263 S 
HETATM   14  O   UNL     1      -9.247   1.848 -33.697  1.00  0.00    -0.200 OA
HETATM   15  O   UNL     1      -7.986   0.329 -32.128  1.00  0.00    -0.200 OA
BRANCH  13  16
HETATM   16  N   UNL     1      -6.839   1.121 -34.221  1.00  0.00    -0.281 N 
HETATM   17  H   UNL     1      -7.070   1.517 -35.131  1.00  0.00     0.179 HD
BRANCH  16  18
HETATM   18  C   UNL     1      -6.152  -0.123 -34.193  1.00  0.00     0.042 A 
HETATM   19  C   UNL     1      -6.690  -1.227 -34.849  1.00  0.00     0.030 A 
HETATM   20  C   UNL     1      -6.022  -2.455 -34.809  1.00  0.00     0.010 A 
HETATM   21  C   UNL     1      -4.803  -2.587 -34.125  1.00  0.00    -0.055 A 
HETATM   22  C   UNL     1      -4.286  -1.468 -33.455  1.00  0.00     0.010 A 
HETATM   23  C   UNL     1      -4.959  -0.244 -33.485  1.00  0.00     0.030 A 
BRANCH  21  24
HETATM   24  C   UNL     1      -4.045  -3.902 -34.076  1.00  0.00     0.010 C 
HETATM   25  C   UNL     1      -4.938  -5.108 -34.382  1.00  0.00     0.015 C 
HETATM   26  C   UNL     1      -3.340  -4.075 -32.730  1.00  0.00     0.015 C 
ENDBRANCH  21  24
ENDBRANCH  16  18
ENDBRANCH  13  16
ENDBRANCH   1  13
BRANCH   7  27
HETATM   27  C   UNL     1      -2.058   6.127 -30.905  1.00  0.00     0.257 C 
HETATM   28  N   UNL     1      -1.169   5.204 -30.416  1.00  0.00    -0.357 N 
HETATM   29  H   UNL     1      -1.528   4.287 -30.142  1.00  0.00     0.162 HD
HETATM   30  O   UNL     1      -1.719   7.237 -31.306  1.00  0.00    -0.267 OA
BRANCH  28  31
HETATM   31  C   UNL     1       0.260   5.432 -30.382  1.00  0.00     0.125 C 
BRANCH  31  32
HETATM   32  C   UNL     1       0.879   5.217 -29.005  1.00  0.00     0.046 C 
BRANCH  32  33
HETATM   33  C   UNL     1       0.241   6.088 -27.930  1.00  0.00     0.168 C 
BRANCH  33  34
HETATM   34  O   UNL     1       0.095   7.409 -28.456  1.00  0.00    -0.396 OA
HETATM   35  C   UNL     1       1.192   8.241 -28.104  1.00  0.00     0.201 C 
ENDBRANCH  33  34
ENDBRANCH  32  33
ENDBRANCH  31  32
ENDBRANCH  28  31
ENDBRANCH   7  27
TORSDOF 9
ENDMDL
MODEL 5
REMARK VINA RESULT:      -8.0      4.134      8.207
REMARK  9 active torsions:
REMARK  status: ('A' for Active; 'I' for Inactive)
REMARK    1  A    between atoms: C_2  and  C_3 
REMARK    2  A    between atoms: C_6  and  N_7 
REMARK    3  A    between atoms: N_7  and  S_8 
REMARK    4  A    between atoms: S_8  and  C_9 
REMARK    5  A    between atoms: C_15  and  C_16 
REMARK       I    between atoms: C_16  and  N_17 
REMARK    6  A    between atoms: N_17  and  C_18 
REMARK    7  A    between atoms: C_18  and  C_19 
REMARK    8  A    between atoms: C_19  and  C_20 
REMARK    9  A    between atoms: C_20  and  O_21 
ROOT
HETATM    1  C   UNL     1      -7.588   3.448 -32.249  1.00  0.00     0.081 A 
HETATM    2  C   UNL     1      -6.784   4.195 -31.384  1.00  0.00     0.043 A 
HETATM    3  C   UNL     1      -5.629   4.801 -31.886  1.00  0.00     0.043 A 
HETATM    4  C   UNL     1      -5.283   4.686 -33.245  1.00  0.00     0.046 A 
HETATM    5  N   UNL     1      -4.100   5.270 -33.710  1.00  0.00    -0.364 N 
HETATM    6  C   UNL     1      -3.302   6.008 -32.874  1.00  0.00     0.109 A 
HETATM    7  C   UNL     1      -3.520   6.206 -31.562  1.00  0.00     0.098 A 
HETATM    8  C   UNL     1      -4.741   5.580 -30.980  1.00  0.00     0.201 A 
HETATM    9  O   UNL     1      -5.019   5.689 -29.788  1.00  0.00    -0.286 OA
HETATM   10  C   UNL     1      -6.103   3.937 -34.095  1.00  0.00     0.032 A 
HETATM   11  C   UNL     1      -7.260   3.325 -33.603  1.00  0.00     0.027 A 
HETATM   12  H   UNL     1      -3.912   5.295 -34.707  1.00  0.00     0.165 HD
ENDROOT
BRANCH   1  13
HETATM   13  S   UNL     1      -9.070   2.692 -31.616  1.00  0.00     0.263 S 
HETATM   14  O   UNL     1      -9.966   2.466 -32.728  1.00  0.00    -0.200 OA
HETATM   15  O   UNL     1      -9.482   3.468 -30.465  1.00  0.00    -0.200 OA
BRANCH  13  16
HETATM   16  N   UNL     1      -8.508   1.217 -31.020  1.00  0.00    -0.281 N 
HETATM   17  H   UNL     1      -8.234   1.268 -30.040  1.00  0.00     0.179 HD
BRANCH  16  18
HETATM   18  C   UNL     1      -7.759   0.362 -31.874  1.00  0.00     0.042 A 
HETATM   19  C   UNL     1      -8.356  -0.177 -33.011  1.00  0.00     0.030 A 
HETATM   20  C   UNL     1      -7.624  -1.030 -33.844  1.00  0.00     0.010 A 
HETATM   21  C   UNL     1      -6.286  -1.341 -33.555  1.00  0.00    -0.055 A 
HETATM   22  C   UNL     1      -5.708  -0.802 -32.396  1.00  0.00     0.010 A 
HETATM   23  C   UNL     1      -6.442   0.041 -31.558  1.00  0.00     0.030 A 
BRANCH  21  24
HETATM   24  C   UNL     1      -5.459  -2.251 -34.447  1.00  0.00     0.010 C 
HETATM   25  C   UNL     1      -6.258  -3.451 -34.965  1.00  0.00     0.015 C 
HETATM   26  C   UNL     1      -4.189  -2.711 -33.730  1.00  0.00     0.015 C 
ENDBRANCH  21  24
ENDBRANCH  16  18
ENDBRANCH  13  16
ENDBRANCH   1  13
BRANCH   7  27
HETATM   27  C   UNL     1      -2.535   7.019 -30.792  1.00  0.00     0.257 C 
HETATM   28  N   UNL     1      -2.161   6.495 -29.581  1.00  0.00    -0.357 N 
HETATM   29  H   UNL     1      -2.543   5.587 -29.310  1.00  0.00     0.162 HD
HETATM   30  O   UNL     1      -2.095   8.079 -31.229  1.00  0.00    -0.267 OA
BRANCH  28  31
HETATM   31  C   UNL     1      -1.168   7.116 -28.731  1.00  0.00     0.125 C 
BRANCH  31  32
HETATM   32  C   UNL     1       0.267   6.803 -29.140  1.00  0.00     0.046 C 
BRANCH  32  33
HETATM   33  C   UNL     1       0.671   5.369 -28.821  1.00  0.00     0.168 C 
BRANCH  33  34
HETATM   34  O   UNL     1       0.442   4.573 -29.986  1.00  0.00    -0.396 OA
HETATM   35  C   UNL     1       0.741   5.285 -31.178  1.00  0.00     0.201 C 
ENDBRANCH  33  34
ENDBRANCH  32  33
ENDBRANCH  31  32
ENDBRANCH  28  31
ENDBRANCH   7  27
TORSDOF 9
ENDMDL
MODEL 6
REMARK VINA RESULT:      -8.0      6.638     10.125
REMARK  9 active torsions:
REMARK  status: ('A' for Active; 'I' for Inactive)
REMARK    1  A    between atoms: C_2  and  C_3 
REMARK    2  A    between atoms: C_6  and  N_7 
REMARK    3  A    between atoms: N_7  and  S_8 
REMARK    4  A    between atoms: S_8  and  C_9 
REMARK    5  A    between atoms: C_15  and  C_16 
REMARK       I    between atoms: C_16  and  N_17 
REMARK    6  A    between atoms: N_17  and  C_18 
REMARK    7  A    between atoms: C_18  and  C_19 
REMARK    8  A    between atoms: C_19  and  C_20 
REMARK    9  A    between atoms: C_20  and  O_21 
ROOT
HETATM    1  C   UNL     1      -1.257   5.590 -32.066  1.00  0.00     0.081 A 
HETATM    2  C   UNL     1      -2.206   4.591 -31.832  1.00  0.00     0.043 A 
HETATM    3  C   UNL     1      -3.279   4.457 -32.716  1.00  0.00     0.043 A 
HETATM    4  C   UNL     1      -3.401   5.293 -33.841  1.00  0.00     0.046 A 
HETATM    5  N   UNL     1      -4.507   5.162 -34.686  1.00  0.00    -0.364 N 
HETATM    6  C   UNL     1      -5.446   4.186 -34.471  1.00  0.00     0.109 A 
HETATM    7  C   UNL     1      -5.446   3.316 -33.445  1.00  0.00     0.098 A 
HETATM    8  C   UNL     1      -4.319   3.420 -32.475  1.00  0.00     0.201 A 
HETATM    9  O   UNL     1      -4.239   2.681 -31.496  1.00  0.00    -0.286 OA
HETATM   10  C   UNL     1      -2.438   6.284 -34.059  1.00  0.00     0.032 A 
HETATM   11  C   UNL     1      -1.360   6.429 -33.180  1.00  0.00     0.027 A 
HETATM   12  H   UNL     1      -4.533   5.675 -35.560  1.00  0.00     0.165 HD
ENDROOT
BRANCH   1  13
HETATM   13  S   UNL     1       0.122   5.750 -30.951  1.00  0.00     0.263 S 
HETATM   14  O   UNL     1       0.852   6.945 -31.312  1.00  0.00    -0.200 OA
HETATM   15  O   UNL     1       0.775   4.459 -30.898  1.00  0.00    -0.200 OA
BRANCH  13  16
HETATM   16  N   UNL     1      -0.632   5.965 -29.458  1.00  0.00    -0.281 N 
HETATM   17  H   UNL     1      -1.644   5.862 -29.511  1.00  0.00     0.179 HD
BRANCH  16  18
HETATM   18  C   UNL     1      -0.110   6.923 -28.547  1.00  0.00     0.042 A 
HETATM   19  C   UNL     1       0.952   6.581 -27.713  1.00  0.00     0.030 A 
HETATM   20  C   UNL     1       1.457   7.518 -26.807  1.00  0.00     0.010 A 
HETATM   21  C   UNL     1       0.913   8.811 -26.733  1.00  0.00    -0.055 A 
HETATM   22  C   UNL     1      -0.168   9.131 -27.568  1.00  0.00     0.010 A 
HETATM   23  C   UNL     1      -0.679   8.191 -28.466  1.00  0.00     0.030 A 
BRANCH  21  24
HETATM   24  C   UNL     1       1.448   9.857 -25.771  1.00  0.00     0.010 C 
HETATM   25  C   UNL     1       2.377   9.260 -24.709  1.00  0.00     0.015 C 
HETATM   26  C   UNL     1       0.304  10.634 -25.119  1.00  0.00     0.015 C 
ENDBRANCH  21  24
ENDBRANCH  16  18
ENDBRANCH  13  16
ENDBRANCH   1  13
BRANCH   7  27
HETATM   27  C   UNL     1      -6.561   2.330 -33.348  1.00  0.00     0.257 C 
HETATM   28  N   UNL     1      -6.180   1.012 -33.347  1.00  0.00    -0.357 N 
HETATM   29  H   UNL     1      -5.181   0.799 -33.374  1.00  0.00     0.162 HD
HETATM   30  O   UNL     1      -7.732   2.690 -33.270  1.00  0.00    -0.267 OA
BRANCH  28  31
HETATM   31  C   UNL     1      -7.122  -0.076 -33.195  1.00  0.00     0.125 C 
BRANCH  31  32
HETATM   32  C   UNL     1      -6.550  -1.436 -33.578  1.00  0.00     0.046 C 
BRANCH  32  33
HETATM   33  C   UNL     1      -5.026  -1.448 -33.608  1.00  0.00     0.168 C 
BRANCH  33  34
HETATM   34  O   UNL     1      -4.555  -1.439 -32.258  1.00  0.00    -0.396 OA
HETATM   35  C   UNL     1      -3.330  -2.146 -32.124  1.00  0.00     0.201 C 
ENDBRANCH  33  34
ENDBRANCH  32  33
ENDBRANCH  31  32
ENDBRANCH  28  31
ENDBRANCH   7  27
TORSDOF 9
ENDMDL
MODEL 7
REMARK VINA RESULT:      -8.0      2.610      3.655
REMARK  9 active torsions:
REMARK  status: ('A' for Active; 'I' for Inactive)
REMARK    1  A    between atoms: C_2  and  C_3 
REMARK    2  A    between atoms: C_6  and  N_7 
REMARK    3  A    between atoms: N_7  and  S_8 
REMARK    4  A    between atoms: S_8  and  C_9 
REMARK    5  A    between atoms: C_15  and  C_16 
REMARK       I    between atoms: C_16  and  N_17 
REMARK    6  A    between atoms: N_17  and  C_18 
REMARK    7  A    between atoms: C_18  and  C_19 
REMARK    8  A    between atoms: C_19  and  C_20 
REMARK    9  A    between atoms: C_20  and  O_21 
ROOT
HETATM    1  C   UNL     1      -7.522   1.534 -31.973  1.00  0.00     0.081 A 
HETATM    2  C   UNL     1      -8.135   2.456 -32.826  1.00  0.00     0.043 A 
HETATM    3  C   UNL     1      -9.437   2.208 -33.268  1.00  0.00     0.043 A 
HETATM    4  C   UNL     1     -10.139   1.064 -32.848  1.00  0.00     0.046 A 
HETATM    5  N   UNL     1     -11.427   0.822 -33.339  1.00  0.00    -0.364 N 
HETATM    6  C   UNL     1     -12.042   1.718 -34.176  1.00  0.00     0.109 A 
HETATM    7  C   UNL     1     -11.491   2.852 -34.644  1.00  0.00     0.098 A 
HETATM    8  C   UNL     1     -10.102   3.160 -34.200  1.00  0.00     0.201 A 
HETATM    9  O   UNL     1      -9.507   4.164 -34.585  1.00  0.00    -0.286 OA
HETATM   10  C   UNL     1      -9.510   0.156 -31.991  1.00  0.00     0.032 A 
HETATM   11  C   UNL     1      -8.206   0.392 -31.544  1.00  0.00     0.027 A 
HETATM   12  H   UNL     1     -11.980   0.070 -32.944  1.00  0.00     0.165 HD
ENDROOT
BRANCH   1  13
HETATM   13  S   UNL     1      -5.870   1.857 -31.393  1.00  0.00     0.263 S 
HETATM   14  O   UNL     1      -5.602   0.964 -30.289  1.00  0.00    -0.200 OA
HETATM   15  O   UNL     1      -5.747   3.292 -31.245  1.00  0.00    -0.200 OA
BRANCH  13  16
HETATM   16  N   UNL     1      -4.922   1.432 -32.721  1.00  0.00    -0.281 N 
HETATM   17  H   UNL     1      -4.792   2.204 -33.374  1.00  0.00     0.179 HD
BRANCH  16  18
HETATM   18  C   UNL     1      -5.026   0.120 -33.258  1.00  0.00     0.042 A 
HETATM   19  C   UNL     1      -5.993  -0.162 -34.220  1.00  0.00     0.030 A 
HETATM   20  C   UNL     1      -6.105  -1.456 -34.737  1.00  0.00     0.010 A 
HETATM   21  C   UNL     1      -5.244  -2.478 -34.307  1.00  0.00    -0.055 A 
HETATM   22  C   UNL     1      -4.288  -2.180 -33.324  1.00  0.00     0.010 A 
HETATM   23  C   UNL     1      -4.183  -0.889 -32.799  1.00  0.00     0.030 A 
BRANCH  21  24
HETATM   24  C   UNL     1      -5.329  -3.890 -34.861  1.00  0.00     0.010 C 
HETATM   25  C   UNL     1      -6.768  -4.412 -34.922  1.00  0.00     0.015 C 
HETATM   26  C   UNL     1      -4.438  -4.843 -34.062  1.00  0.00     0.015 C 
ENDBRANCH  21  24
ENDBRANCH  16  18
ENDBRANCH  13  16
ENDBRANCH   1  13
BRANCH   7  27
HETATM   27  C   UNL     1     -12.294   3.704 -35.568  1.00  0.00     0.257 C 
HETATM   28  N   UNL     1     -12.641   4.937 -35.077  1.00  0.00    -0.357 N 
HETATM   29  H   UNL     1     -12.302   5.200 -34.149  1.00  0.00     0.162 HD
HETATM   30  O   UNL     1     -12.610   3.316 -36.689  1.00  0.00    -0.267 OA
BRANCH  28  31
HETATM   31  C   UNL     1     -13.363   5.918 -35.859  1.00  0.00     0.125 C 
BRANCH  31  32
HETATM   32  C   UNL     1     -12.553   7.175 -36.159  1.00  0.00     0.046 C 
BRANCH  32  33
HETATM   33  C   UNL     1     -13.249   8.102 -37.148  1.00  0.00     0.168 C 
BRANCH  33  34
HETATM   34  O   UNL     1     -12.253   8.682 -37.992  1.00  0.00    -0.396 OA
HETATM   35  C   UNL     1     -12.720   8.843 -39.324  1.00  0.00     0.201 C 
ENDBRANCH  33  34
ENDBRANCH  32  33
ENDBRANCH  31  32
ENDBRANCH  28  31
ENDBRANCH   7  27
TORSDOF 9
ENDMDL
MODEL 8
REMARK VINA RESULT:      -7.7      2.655      5.011
REMARK  9 active torsions:
REMARK  status: ('A' for Active; 'I' for Inactive)
REMARK    1  A    between atoms: C_2  and  C_3 
REMARK    2  A    between atoms: C_6  and  N_7 
REMARK    3  A    between atoms: N_7  and  S_8 
REMARK    4  A    between atoms: S_8  and  C_9 
REMARK    5  A    between atoms: C_15  and  C_16 
REMARK       I    between atoms: C_16  and  N_17 
REMARK    6  A    between atoms: N_17  and  C_18 
REMARK    7  A    between atoms: C_18  and  C_19 
REMARK    8  A    between atoms: C_19  and  C_20 
REMARK    9  A    between atoms: C_20  and  O_21 
ROOT
HETATM    1  C   UNL     1      -6.397   1.146 -31.806  1.00  0.00     0.081 A 
HETATM    2  C   UNL     1      -7.602   1.784 -31.499  1.00  0.00     0.043 A 
HETATM    3  C   UNL     1      -8.604   1.839 -32.471  1.00  0.00     0.043 A 
HETATM    4  C   UNL     1      -8.424   1.245 -33.733  1.00  0.00     0.046 A 
HETATM    5  N   UNL     1      -9.430   1.351 -34.699  1.00  0.00    -0.364 N 
HETATM    6  C   UNL     1     -10.619   1.972 -34.414  1.00  0.00     0.109 A 
HETATM    7  C   UNL     1     -10.926   2.570 -33.249  1.00  0.00     0.098 A 
HETATM    8  C   UNL     1      -9.887   2.536 -32.180  1.00  0.00     0.201 A 
HETATM    9  O   UNL     1     -10.066   3.068 -31.087  1.00  0.00    -0.286 OA
HETATM   10  C   UNL     1      -7.212   0.608 -34.018  1.00  0.00     0.032 A 
HETATM   11  C   UNL     1      -6.200   0.548 -33.055  1.00  0.00     0.027 A 
HETATM   12  H   UNL     1      -9.355   0.821 -35.561  1.00  0.00     0.165 HD
ENDROOT
BRANCH   1  13
HETATM   13  S   UNL     1      -5.125   1.058 -30.563  1.00  0.00     0.263 S 
HETATM   14  O   UNL     1      -3.958   0.447 -31.160  1.00  0.00    -0.200 OA
HETATM   15  O   UNL     1      -5.735   0.505 -29.372  1.00  0.00    -0.200 OA
BRANCH  13  16
HETATM   16  N   UNL     1      -4.818   2.683 -30.231  1.00  0.00    -0.281 N 
HETATM   17  H   UNL     1      -5.539   3.107 -29.649  1.00  0.00     0.179 HD
BRANCH  16  18
HETATM   18  C   UNL     1      -4.207   3.492 -31.227  1.00  0.00     0.042 A 
HETATM   19  C   UNL     1      -2.835   3.401 -31.449  1.00  0.00     0.030 A 
HETATM   20  C   UNL     1      -2.231   4.207 -32.418  1.00  0.00     0.010 A 
HETATM   21  C   UNL     1      -2.994   5.104 -33.184  1.00  0.00    -0.055 A 
HETATM   22  C   UNL     1      -4.371   5.195 -32.932  1.00  0.00     0.010 A 
HETATM   23  C   UNL     1      -4.973   4.397 -31.957  1.00  0.00     0.030 A 
BRANCH  21  24
HETATM   24  C   UNL     1      -2.371   5.982 -34.255  1.00  0.00     0.010 C 
HETATM   25  C   UNL     1      -1.240   5.277 -35.009  1.00  0.00     0.015 C 
HETATM   26  C   UNL     1      -1.887   7.306 -33.661  1.00  0.00     0.015 C 
ENDBRANCH  21  24
ENDBRANCH  16  18
ENDBRANCH  13  16
ENDBRANCH   1  13
BRANCH   7  27
HETATM   27  C   UNL     1     -12.261   3.221 -33.113  1.00  0.00     0.257 C 
HETATM   28  N   UNL     1     -12.993   2.838 -32.018  1.00  0.00    -0.357 N 
HETATM   29  H   UNL     1     -12.570   2.178 -31.363  1.00  0.00     0.162 HD
HETATM   30  O   UNL     1     -12.659   4.046 -33.932  1.00  0.00    -0.267 OA
BRANCH  28  31
HETATM   31  C   UNL     1     -14.280   3.414 -31.695  1.00  0.00     0.125 C 
BRANCH  31  32
HETATM   32  C   UNL     1     -15.435   2.425 -31.802  1.00  0.00     0.046 C 
BRANCH  32  33
HETATM   33  C   UNL     1     -15.487   1.724 -33.154  1.00  0.00     0.168 C 
BRANCH  33  34
HETATM   34  O   UNL     1     -14.505   0.686 -33.155  1.00  0.00    -0.396 OA
HETATM   35  C   UNL     1     -14.055   0.387 -34.469  1.00  0.00     0.201 C 
ENDBRANCH  33  34
ENDBRANCH  32  33
ENDBRANCH  31  32
ENDBRANCH  28  31
ENDBRANCH   7  27
TORSDOF 9
ENDMDL
MODEL 9
REMARK VINA RESULT:      -7.7      5.142      8.564
REMARK  9 active torsions:
REMARK  status: ('A' for Active; 'I' for Inactive)
REMARK    1  A    between atoms: C_2  and  C_3 
REMARK    2  A    between atoms: C_6  and  N_7 
REMARK    3  A    between atoms: N_7  and  S_8 
REMARK    4  A    between atoms: S_8  and  C_9 
REMARK    5  A    between atoms: C_15  and  C_16 
REMARK       I    between atoms: C_16  and  N_17 
REMARK    6  A    between atoms: N_17  and  C_18 
REMARK    7  A    between atoms: C_18  and  C_19 
REMARK    8  A    between atoms: C_19  and  C_20 
REMARK    9  A    between atoms: C_20  and  O_21 
ROOT
HETATM    1  C   UNL     1      -5.111   3.357 -32.378  1.00  0.00     0.081 A 
HETATM    2  C   UNL     1      -5.091   4.741 -32.185  1.00  0.00     0.043 A 
HETATM    3  C   UNL     1      -3.937   5.337 -31.672  1.00  0.00     0.043 A 
HETATM    4  C   UNL     1      -2.796   4.570 -31.373  1.00  0.00     0.046 A 
HETATM    5  N   UNL     1      -1.669   5.189 -30.823  1.00  0.00    -0.364 N 
HETATM    6  C   UNL     1      -1.634   6.546 -30.629  1.00  0.00     0.109 A 
HETATM    7  C   UNL     1      -2.645   7.395 -30.882  1.00  0.00     0.098 A 
HETATM    8  C   UNL     1      -3.899   6.806 -31.431  1.00  0.00     0.201 A 
HETATM    9  O   UNL     1      -4.885   7.497 -31.679  1.00  0.00    -0.286 OA
HETATM   10  C   UNL     1      -2.835   3.187 -31.577  1.00  0.00     0.032 A 
HETATM   11  C   UNL     1      -3.986   2.579 -32.088  1.00  0.00     0.027 A 
HETATM   12  H   UNL     1      -0.808   4.663 -30.723  1.00  0.00     0.165 HD
ENDROOT
BRANCH   1  13
HETATM   13  S   UNL     1      -6.574   2.598 -33.049  1.00  0.00     0.263 S 
HETATM   14  O   UNL     1      -6.348   2.361 -34.458  1.00  0.00    -0.200 OA
HETATM   15  O   UNL     1      -7.704   3.380 -32.592  1.00  0.00    -0.200 OA
BRANCH  13  16
HETATM   16  N   UNL     1      -6.643   1.130 -32.222  1.00  0.00    -0.281 N 
HETATM   17  H   UNL     1      -6.335   1.210 -31.254  1.00  0.00     0.179 HD
BRANCH  16  18
HETATM   18  C   UNL     1      -6.344  -0.074 -32.917  1.00  0.00     0.042 A 
HETATM   19  C   UNL     1      -7.358  -0.763 -33.577  1.00  0.00     0.030 A 
HETATM   20  C   UNL     1      -7.068  -1.955 -34.248  1.00  0.00     0.010 A 
HETATM   21  C   UNL     1      -5.759  -2.463 -34.276  1.00  0.00    -0.055 A 
HETATM   22  C   UNL     1      -4.755  -1.763 -33.590  1.00  0.00     0.010 A 
HETATM   23  C   UNL     1      -5.047  -0.578 -32.911  1.00  0.00     0.030 A 
BRANCH  21  24
HETATM   24  C   UNL     1      -5.407  -3.746 -35.009  1.00  0.00     0.010 C 
HETATM   25  C   UNL     1      -6.644  -4.571 -35.377  1.00  0.00     0.015 C 
HETATM   26  C   UNL     1      -4.416  -4.582 -34.198  1.00  0.00     0.015 C 
ENDBRANCH  21  24
ENDBRANCH  16  18
ENDBRANCH  13  16
ENDBRANCH   1  13
BRANCH   7  27
HETATM   27  C   UNL     1      -2.447   8.845 -30.590  1.00  0.00     0.257 C 
HETATM   28  N   UNL     1      -2.307   9.163 -29.263  1.00  0.00    -0.357 N 
HETATM   29  H   UNL     1      -2.310   8.401 -28.582  1.00  0.00     0.162 HD
HETATM   30  O   UNL     1      -2.408   9.681 -31.489  1.00  0.00    -0.267 OA
BRANCH  28  31
HETATM   31  C   UNL     1      -2.043  10.509 -28.803  1.00  0.00     0.125 C 
BRANCH  31  32
HETATM   32  C   UNL     1      -2.084  10.654 -27.286  1.00  0.00     0.046 C 
BRANCH  32  33
HETATM   33  C   UNL     1      -2.286   9.323 -26.571  1.00  0.00     0.168 C 
BRANCH  33  34
HETATM   34  O   UNL     1      -1.019   8.669 -26.483  1.00  0.00    -0.396 OA
HETATM   35  C   UNL     1      -1.155   7.255 -26.483  1.00  0.00     0.201 C 
ENDBRANCH  33  34
ENDBRANCH  32  33
ENDBRANCH  31  32
ENDBRANCH  28  31
ENDBRANCH   7  27
TORSDOF 9
ENDMDL
MODEL 10
REMARK VINA RESULT:      -7.6      3.953      5.445
REMARK  9 active torsions:
REMARK  status: ('A' for Active; 'I' for Inactive)
REMARK    1  A    between atoms: C_2  and  C_3 
REMARK    2  A    between atoms: C_6  and  N_7 
REMARK    3  A    between atoms: N_7  and  S_8 
REMARK    4  A    between atoms: S_8  and  C_9 
REMARK    5  A    between atoms: C_15  and  C_16 
REMARK       I    between atoms: C_16  and  N_17 
REMARK    6  A    between atoms: N_17  and  C_18 
REMARK    7  A    between atoms: C_18  and  C_19 
REMARK    8  A    between atoms: C_19  and  C_20 
REMARK    9  A    between atoms: C_20  and  O_21 
ROOT
HETATM    1  C   UNL     1      -9.649   2.218 -32.883  1.00  0.00     0.081 A 
HETATM    2  C   UNL     1      -9.778   3.587 -33.132  1.00  0.00     0.043 A 
HETATM    3  C   UNL     1     -10.803   4.029 -33.972  1.00  0.00     0.043 A 
HETATM    4  C   UNL     1     -11.711   3.121 -34.546  1.00  0.00     0.046 A 
HETATM    5  N   UNL     1     -12.702   3.588 -35.415  1.00  0.00    -0.364 N 
HETATM    6  C   UNL     1     -12.843   4.929 -35.668  1.00  0.00     0.109 A 
HETATM    7  C   UNL     1     -12.053   5.901 -35.179  1.00  0.00     0.098 A 
HETATM    8  C   UNL     1     -10.946   5.479 -34.276  1.00  0.00     0.201 A 
HETATM    9  O   UNL     1     -10.160   6.291 -33.791  1.00  0.00    -0.286 OA
HETATM   10  C   UNL     1     -11.567   1.755 -34.281  1.00  0.00     0.032 A 
HETATM   11  C   UNL     1     -10.544   1.301 -33.443  1.00  0.00     0.027 A 
HETATM   12  H   UNL     1     -13.431   2.957 -35.730  1.00  0.00     0.165 HD
ENDROOT
BRANCH   1  13
HETATM   13  S   UNL     1      -8.356   1.654 -31.797  1.00  0.00     0.263 S 
HETATM   14  O   UNL     1      -8.703   0.327 -31.340  1.00  0.00    -0.200 OA
HETATM   15  O   UNL     1      -8.094   2.726 -30.859  1.00  0.00    -0.200 OA
BRANCH  13  16
HETATM   16  N   UNL     1      -7.018   1.580 -32.821  1.00  0.00    -0.281 N 
HETATM   17  H   UNL     1      -6.944   2.394 -33.430  1.00  0.00     0.179 HD
BRANCH  16  18
HETATM   18  C   UNL     1      -6.612   0.322 -33.343  1.00  0.00     0.042 A 
HETATM   19  C   UNL     1      -5.535  -0.351 -32.771  1.00  0.00     0.030 A 
HETATM   20  C   UNL     1      -5.126  -1.582 -33.293  1.00  0.00     0.010 A 
HETATM   21  C   UNL     1      -5.796  -2.158 -34.384  1.00  0.00    -0.055 A 
HETATM   22  C   UNL     1      -6.867  -1.456 -34.959  1.00  0.00     0.010 A 
HETATM   23  C   UNL     1      -7.269  -0.222 -34.444  1.00  0.00     0.030 A 
BRANCH  21  24
HETATM   24  C   UNL     1      -5.386  -3.500 -34.965  1.00  0.00     0.010 C 
HETATM   25  C   UNL     1      -6.565  -4.471 -35.091  1.00  0.00     0.015 C 
HETATM   26  C   UNL     1      -4.252  -4.124 -34.151  1.00  0.00     0.015 C 
ENDBRANCH  21  24
ENDBRANCH  16  18
ENDBRANCH  13  16
ENDBRANCH   1  13
BRANCH   7  27
HETATM   27  C   UNL     1     -12.333   7.312 -35.575  1.00  0.00     0.257 C 
HETATM   28  N   UNL     1     -11.323   7.942 -36.256  1.00  0.00    -0.357 N 
HETATM   29  H   UNL     1     -10.481   7.405 -36.475  1.00  0.00     0.162 HD
HETATM   30  O   UNL     1     -13.402   7.855 -35.307  1.00  0.00    -0.267 OA
BRANCH  28  31
HETATM   31  C   UNL     1     -11.445   9.288 -36.773  1.00  0.00     0.125 C 
BRANCH  31  32
HETATM   32  C   UNL     1     -10.121   9.889 -37.230  1.00  0.00     0.046 C 
BRANCH  32  33
HETATM   33  C   UNL     1      -9.841   9.645 -38.708  1.00  0.00     0.168 C 
BRANCH  33  34
HETATM   34  O   UNL     1      -9.630  10.911 -39.336  1.00  0.00    -0.396 OA
HETATM   35  C   UNL     1     -10.842  11.462 -39.831  1.00  0.00     0.201 C 
ENDBRANCH  33  34
ENDBRANCH  32  33
ENDBRANCH  31  32
ENDBRANCH  28  31
ENDBRANCH   7  27
TORSDOF 9
ENDMDL
