MODEL 1
REMARK VINA RESULT:      -8.2      0.000      0.000
REMARK  6 active torsions:
REMARK  status: ('A' for Active; 'I' for Inactive)
REMARK    1  A    between atoms: C_2  and  O_3 
REMARK    2  A    between atoms: O_3  and  C_4 
REMARK    3  A    between atoms: C_5  and  O_6 
REMARK    4  A    between atoms: C_9  and  C_10 
REMARK    5  A    between atoms: C_19  and  C_20 
REMARK    6  A    between atoms: C_22  and  O_23 
ROOT
HETATM    1  C   UNL     1      -7.141   1.233 -30.738  1.00  0.00     0.156 A 
HETATM    2  N   UNL     1      -7.078   2.424 -29.870  1.00  0.00    -0.343 N 
HETATM    3  C   UNL     1      -5.872   3.113 -29.929  1.00  0.00     0.271 A 
HETATM    4  O   UNL     1      -5.562   4.117 -29.318  1.00  0.00    -0.266 OA
HETATM    5  C   UNL     1      -5.121   2.377 -30.872  1.00  0.00     0.128 A 
HETATM    6  C   UNL     1      -5.807   1.309 -31.369  1.00  0.00     0.034 A 
HETATM    7  N   UNL     1      -3.923   2.415 -31.473  1.00  0.00    -0.272 N 
HETATM    8  H   UNL     1      -3.162   3.077 -31.352  1.00  0.00     0.189 HD
HETATM    9  N   UNL     1      -3.789   1.407 -32.370  1.00  0.00    -0.173 NA
HETATM   10  C   UNL     1      -4.952   0.710 -32.309  1.00  0.00     0.098 A 
HETATM   11  H   UNL     1      -7.839   2.745 -29.292  1.00  0.00     0.163 HD
ENDROOT
BRANCH   1  12
HETATM   12  C   UNL     1      -8.208   1.335 -31.798  1.00  0.00    -0.028 A 
HETATM   13  C   UNL     1      -9.136   0.305 -32.052  1.00  0.00     0.012 A 
HETATM   14  C   UNL     1     -10.087   0.424 -33.070  1.00  0.00     0.040 A 
HETATM   15  C   UNL     1     -10.114   1.570 -33.849  1.00  0.00     0.099 A 
HETATM   16  C   UNL     1      -9.228   2.614 -33.595  1.00  0.00     0.102 A 
HETATM   17  C   UNL     1      -8.265   2.492 -32.596  1.00  0.00     0.049 A 
BRANCH  15  18
HETATM   18  O   UNL     1     -11.008   1.637 -34.878  1.00  0.00    -0.358 OA
HETATM   19  H   UNL     1     -11.681   0.956 -34.691  1.00  0.00     0.218 HD
ENDBRANCH  15  18
BRANCH  16  20
HETATM   20  O   UNL     1      -9.243   3.750 -34.359  1.00  0.00    -0.349 OA
BRANCH  20  21
HETATM   21  C   UNL     1      -9.988   4.788 -33.704  1.00  0.00     0.171 C 
HETATM   22  C   UNL     1     -11.106   5.221 -34.634  1.00  0.00     0.034 C 
ENDBRANCH  20  21
ENDBRANCH  16  20
ENDBRANCH   1  12
BRANCH  10  23
HETATM   23  C   UNL     1      -5.186  -0.455 -33.163  1.00  0.00    -0.002 A 
HETATM   24  C   UNL     1      -4.355  -1.584 -33.047  1.00  0.00     0.050 A 
HETATM   25  C   UNL     1      -4.546  -2.698 -33.866  1.00  0.00     0.069 A 
HETATM   26  C   UNL     1      -5.575  -2.686 -34.808  1.00  0.00     0.037 A 
HETATM   27  C   UNL     1      -6.415  -1.579 -34.927  1.00  0.00     0.004 A 
HETATM   28  C   UNL     1      -6.224  -0.468 -34.104  1.00  0.00     0.014 A 
BRANCH  25  29
HETATM   29  O   UNL     1      -3.800  -3.845 -33.847  1.00  0.00    -0.356 OA
HETATM   30  C   UNL     1      -4.479  -5.054 -34.166  1.00  0.00     0.210 C 
ENDBRANCH  25  29
ENDBRANCH  10  23
TORSDOF 6
ENDMDL
MODEL 2
REMARK VINA RESULT:      -8.1      2.793      5.286
REMARK  6 active torsions:
REMARK  status: ('A' for Active; 'I' for Inactive)
REMARK    1  A    between atoms: C_2  and  O_3 
REMARK    2  A    between atoms: O_3  and  C_4 
REMARK    3  A    between atoms: C_5  and  O_6 
REMARK    4  A    between atoms: C_9  and  C_10 
REMARK    5  A    between atoms: C_19  and  C_20 
REMARK    6  A    between atoms: C_22  and  O_23 
ROOT
HETATM    1  C   UNL     1      -4.459  -0.748 -33.839  1.00  0.00     0.156 A 
HETATM    2  N   UNL     1      -4.204  -2.133 -33.404  1.00  0.00    -0.343 N 
HETATM    3  C   UNL     1      -3.473  -2.239 -32.225  1.00  0.00     0.271 A 
HETATM    4  O   UNL     1      -3.128  -3.256 -31.656  1.00  0.00    -0.266 OA
HETATM    5  C   UNL     1      -3.254  -0.893 -31.856  1.00  0.00     0.128 A 
HETATM    6  C   UNL     1      -3.809  -0.011 -32.735  1.00  0.00     0.034 A 
HETATM    7  N   UNL     1      -2.683  -0.188 -30.869  1.00  0.00    -0.272 N 
HETATM    8  H   UNL     1      -2.186  -0.517 -30.046  1.00  0.00     0.189 HD
HETATM    9  N   UNL     1      -2.847   1.145 -31.056  1.00  0.00    -0.173 NA
HETATM   10  C   UNL     1      -3.541   1.266 -32.216  1.00  0.00     0.098 A 
HETATM   11  H   UNL     1      -4.539  -2.952 -33.888  1.00  0.00     0.163 HD
ENDROOT
BRANCH   1  12
HETATM   12  C   UNL     1      -5.927  -0.407 -33.878  1.00  0.00    -0.028 A 
HETATM   13  C   UNL     1      -6.659  -0.310 -35.079  1.00  0.00     0.012 A 
HETATM   14  C   UNL     1      -8.011   0.047 -35.074  1.00  0.00     0.040 A 
HETATM   15  C   UNL     1      -8.643   0.317 -33.870  1.00  0.00     0.099 A 
HETATM   16  C   UNL     1      -7.948   0.196 -32.669  1.00  0.00     0.102 A 
HETATM   17  C   UNL     1      -6.595  -0.137 -32.670  1.00  0.00     0.049 A 
BRANCH  15  18
HETATM   18  O   UNL     1      -9.945   0.725 -33.895  1.00  0.00    -0.358 OA
HETATM   19  H   UNL     1     -10.186   0.903 -32.967  1.00  0.00     0.218 HD
ENDBRANCH  15  18
BRANCH  16  20
HETATM   20  O   UNL     1      -8.559   0.463 -31.474  1.00  0.00    -0.349 OA
BRANCH  20  21
HETATM   21  C   UNL     1      -8.128   1.733 -30.959  1.00  0.00     0.171 C 
HETATM   22  C   UNL     1      -9.316   2.676 -30.982  1.00  0.00     0.034 C 
ENDBRANCH  20  21
ENDBRANCH  16  20
ENDBRANCH   1  12
BRANCH  10  23
HETATM   23  C   UNL     1      -3.928   2.577 -32.737  1.00  0.00    -0.002 A 
HETATM   24  C   UNL     1      -2.940   3.536 -33.018  1.00  0.00     0.050 A 
HETATM   25  C   UNL     1      -3.286   4.801 -33.495  1.00  0.00     0.069 A 
HETATM   26  C   UNL     1      -4.632   5.111 -33.695  1.00  0.00     0.037 A 
HETATM   27  C   UNL     1      -5.624   4.167 -33.433  1.00  0.00     0.004 A 
HETATM   28  C   UNL     1      -5.273   2.902 -32.959  1.00  0.00     0.014 A 
BRANCH  25  29
HETATM   29  O   UNL     1      -2.415   5.813 -33.797  1.00  0.00    -0.356 OA
HETATM   30  C   UNL     1      -1.343   5.493 -34.676  1.00  0.00     0.210 C 
ENDBRANCH  25  29
ENDBRANCH  10  23
TORSDOF 6
ENDMDL
MODEL 3
REMARK VINA RESULT:      -8.1      2.835      6.491
REMARK  6 active torsions:
REMARK  status: ('A' for Active; 'I' for Inactive)
REMARK    1  A    between atoms: C_2  and  O_3 
REMARK    2  A    between atoms: O_3  and  C_4 
REMARK    3  A    between atoms: C_5  and  O_6 
REMARK    4  A    between atoms: C_9  and  C_10 
REMARK    5  A    between atoms: C_19  and  C_20 
REMARK    6  A    between atoms: C_22  and  O_23 
ROOT
HETATM    1  C   UNL     1      -8.511   0.892 -31.912  1.00  0.00     0.156 A 
HETATM    2  N   UNL     1      -9.772   0.159 -32.128  1.00  0.00    -0.343 N 
HETATM    3  C   UNL     1     -10.625   0.747 -33.056  1.00  0.00     0.271 A 
HETATM    4  O   UNL     1     -11.717   0.351 -33.412  1.00  0.00    -0.266 OA
HETATM    5  C   UNL     1      -9.907   1.886 -33.483  1.00  0.00     0.128 A 
HETATM    6  C   UNL     1      -8.694   2.001 -32.870  1.00  0.00     0.034 A 
HETATM    7  N   UNL     1     -10.032   2.904 -34.347  1.00  0.00    -0.272 N 
HETATM    8  H   UNL     1     -10.799   3.126 -34.974  1.00  0.00     0.189 HD
HETATM    9  N   UNL     1      -8.930   3.695 -34.340  1.00  0.00    -0.173 NA
HETATM   10  C   UNL     1      -8.095   3.146 -33.422  1.00  0.00     0.098 A 
HETATM   11  H   UNL     1     -10.010  -0.708 -31.671  1.00  0.00     0.163 HD
ENDROOT
BRANCH   1  12
HETATM   12  C   UNL     1      -7.293   0.090 -32.294  1.00  0.00    -0.028 A 
HETATM   13  C   UNL     1      -6.088   0.133 -31.565  1.00  0.00     0.012 A 
HETATM   14  C   UNL     1      -4.969  -0.598 -31.975  1.00  0.00     0.040 A 
HETATM   15  C   UNL     1      -5.041  -1.373 -33.123  1.00  0.00     0.099 A 
HETATM   16  C   UNL     1      -6.231  -1.455 -33.841  1.00  0.00     0.102 A 
HETATM   17  C   UNL     1      -7.343  -0.712 -33.449  1.00  0.00     0.049 A 
BRANCH  15  18
HETATM   18  O   UNL     1      -3.918  -2.027 -33.539  1.00  0.00    -0.358 OA
HETATM   19  H   UNL     1      -3.170  -1.445 -33.308  1.00  0.00     0.218 HD
ENDBRANCH  15  18
BRANCH  16  20
HETATM   20  O   UNL     1      -6.315  -2.214 -34.977  1.00  0.00    -0.349 OA
BRANCH  20  21
HETATM   21  C   UNL     1      -6.925  -3.483 -34.692  1.00  0.00     0.171 C 
HETATM   22  C   UNL     1      -6.100  -4.562 -35.367  1.00  0.00     0.034 C 
ENDBRANCH  20  21
ENDBRANCH  16  20
ENDBRANCH   1  12
BRANCH  10  23
HETATM   23  C   UNL     1      -6.778   3.724 -33.151  1.00  0.00    -0.002 A 
HETATM   24  C   UNL     1      -6.058   4.336 -34.191  1.00  0.00     0.050 A 
HETATM   25  C   UNL     1      -4.791   4.875 -33.961  1.00  0.00     0.069 A 
HETATM   26  C   UNL     1      -4.239   4.803 -32.681  1.00  0.00     0.037 A 
HETATM   27  C   UNL     1      -4.946   4.209 -31.637  1.00  0.00     0.004 A 
HETATM   28  C   UNL     1      -6.214   3.674 -31.869  1.00  0.00     0.014 A 
BRANCH  25  29
HETATM   29  O   UNL     1      -3.997   5.488 -34.893  1.00  0.00    -0.356 OA
HETATM   30  C   UNL     1      -2.593   5.314 -34.750  1.00  0.00     0.210 C 
ENDBRANCH  25  29
ENDBRANCH  10  23
TORSDOF 6
ENDMDL
MODEL 4
REMARK VINA RESULT:      -8.0      2.714      4.958
REMARK  6 active torsions:
REMARK  status: ('A' for Active; 'I' for Inactive)
REMARK    1  A    between atoms: C_2  and  O_3 
REMARK    2  A    between atoms: O_3  and  C_4 
REMARK    3  A    between atoms: C_5  and  O_6 
REMARK    4  A    between atoms: C_9  and  C_10 
REMARK    5  A    between atoms: C_19  and  C_20 
REMARK    6  A    between atoms: C_22  and  O_23 
ROOT
HETATM    1  C   UNL     1      -8.077   2.855 -33.852  1.00  0.00     0.156 A 
HETATM    2  N   UNL     1      -9.238   3.744 -33.667  1.00  0.00    -0.343 N 
HETATM    3  C   UNL     1     -10.388   3.101 -33.222  1.00  0.00     0.271 A 
HETATM    4  O   UNL     1     -11.473   3.598 -32.993  1.00  0.00    -0.266 OA
HETATM    5  C   UNL     1      -9.978   1.756 -33.088  1.00  0.00     0.128 A 
HETATM    6  C   UNL     1      -8.669   1.571 -33.422  1.00  0.00     0.034 A 
HETATM    7  N   UNL     1     -10.475   0.574 -32.697  1.00  0.00    -0.272 N 
HETATM    8  H   UNL     1     -11.411   0.343 -32.375  1.00  0.00     0.189 HD
HETATM    9  N   UNL     1      -9.533  -0.399 -32.748  1.00  0.00    -0.173 NA
HETATM   10  C   UNL     1      -8.408   0.209 -33.203  1.00  0.00     0.098 A 
HETATM   11  H   UNL     1      -9.220   4.741 -33.820  1.00  0.00     0.163 HD
ENDROOT
BRANCH   1  12
HETATM   12  C   UNL     1      -6.920   3.205 -32.952  1.00  0.00    -0.028 A 
HETATM   13  C   UNL     1      -7.064   3.416 -31.566  1.00  0.00     0.012 A 
HETATM   14  C   UNL     1      -5.971   3.775 -30.772  1.00  0.00     0.040 A 
HETATM   15  C   UNL     1      -4.724   3.935 -31.357  1.00  0.00     0.099 A 
HETATM   16  C   UNL     1      -4.552   3.701 -32.719  1.00  0.00     0.102 A 
HETATM   17  C   UNL     1      -5.642   3.363 -33.518  1.00  0.00     0.049 A 
BRANCH  15  18
HETATM   18  O   UNL     1      -3.686   4.349 -30.575  1.00  0.00    -0.358 OA
HETATM   19  H   UNL     1      -3.014   4.702 -31.187  1.00  0.00     0.218 HD
ENDBRANCH  15  18
BRANCH  16  20
HETATM   20  O   UNL     1      -3.327   3.858 -33.309  1.00  0.00    -0.349 OA
BRANCH  20  21
HETATM   21  C   UNL     1      -3.283   5.080 -34.063  1.00  0.00     0.171 C 
HETATM   22  C   UNL     1      -1.951   5.137 -34.787  1.00  0.00     0.034 C 
ENDBRANCH  20  21
ENDBRANCH  16  20
ENDBRANCH   1  12
BRANCH  10  23
HETATM   23  C   UNL     1      -7.157  -0.533 -33.370  1.00  0.00    -0.002 A 
HETATM   24  C   UNL     1      -7.070  -1.543 -34.344  1.00  0.00     0.050 A 
HETATM   25  C   UNL     1      -5.896  -2.278 -34.507  1.00  0.00     0.069 A 
HETATM   26  C   UNL     1      -4.797  -2.001 -33.692  1.00  0.00     0.037 A 
HETATM   27  C   UNL     1      -4.863  -0.994 -32.730  1.00  0.00     0.004 A 
HETATM   28  C   UNL     1      -6.039  -0.259 -32.572  1.00  0.00     0.014 A 
BRANCH  25  29
HETATM   29  O   UNL     1      -5.697  -3.285 -35.413  1.00  0.00    -0.356 OA
HETATM   30  C   UNL     1      -6.423  -4.489 -35.202  1.00  0.00     0.210 C 
ENDBRANCH  25  29
ENDBRANCH  10  23
TORSDOF 6
ENDMDL
MODEL 5
REMARK VINA RESULT:      -8.0      2.843      6.405
REMARK  6 active torsions:
REMARK  status: ('A' for Active; 'I' for Inactive)
REMARK    1  A    between atoms: C_2  and  O_3 
REMARK    2  A    between atoms: O_3  and  C_4 
REMARK    3  A    between atoms: C_5  and  O_6 
REMARK    4  A    between atoms: C_9  and  C_10 
REMARK    5  A    between atoms: C_19  and  C_20 
REMARK    6  A    between atoms: C_22  and  O_23 
ROOT
HETATM    1  C   UNL     1      -8.669   0.629 -32.293  1.00  0.00     0.156 A 
HETATM    2  N   UNL     1      -9.984  -0.001 -32.507  1.00  0.00    -0.343 N 
HETATM    3  C   UNL     1     -10.878   0.773 -33.239  1.00  0.00     0.271 A 
HETATM    4  O   UNL     1     -12.018   0.491 -33.552  1.00  0.00    -0.266 OA
HETATM    5  C   UNL     1     -10.135   1.937 -33.536  1.00  0.00     0.128 A 
HETATM    6  C   UNL     1      -8.869   1.893 -33.030  1.00  0.00     0.034 A 
HETATM    7  N   UNL     1     -10.274   3.092 -34.202  1.00  0.00    -0.272 N 
HETATM    8  H   UNL     1     -11.079   3.451 -34.707  1.00  0.00     0.189 HD
HETATM    9  N   UNL     1      -9.133   3.822 -34.168  1.00  0.00    -0.173 NA
HETATM   10  C   UNL     1      -8.255   3.089 -33.437  1.00  0.00     0.098 A 
HETATM   11  H   UNL     1     -10.231  -0.924 -32.182  1.00  0.00     0.163 HD
ENDROOT
BRANCH   1  12
HETATM   12  C   UNL     1      -7.537  -0.146 -32.918  1.00  0.00    -0.028 A 
HETATM   13  C   UNL     1      -7.573  -0.618 -34.245  1.00  0.00     0.012 A 
HETATM   14  C   UNL     1      -6.518  -1.366 -34.776  1.00  0.00     0.040 A 
HETATM   15  C   UNL     1      -5.418  -1.656 -33.981  1.00  0.00     0.099 A 
HETATM   16  C   UNL     1      -5.346  -1.172 -32.678  1.00  0.00     0.102 A 
HETATM   17  C   UNL     1      -6.405  -0.445 -32.138  1.00  0.00     0.049 A 
BRANCH  15  18
HETATM   18  O   UNL     1      -4.429  -2.441 -34.499  1.00  0.00    -0.358 OA
HETATM   19  H   UNL     1      -3.610  -2.171 -34.045  1.00  0.00     0.218 HD
ENDBRANCH  15  18
BRANCH  16  20
HETATM   20  O   UNL     1      -4.268  -1.453 -31.883  1.00  0.00    -0.349 OA
BRANCH  20  21
HETATM   21  C   UNL     1      -3.761  -0.253 -31.277  1.00  0.00     0.171 C 
HETATM   22  C   UNL     1      -3.132   0.593 -32.368  1.00  0.00     0.034 C 
ENDBRANCH  20  21
ENDBRANCH  16  20
ENDBRANCH   1  12
BRANCH  10  23
HETATM   23  C   UNL     1      -6.888   3.555 -33.199  1.00  0.00    -0.002 A 
HETATM   24  C   UNL     1      -6.220   4.295 -34.191  1.00  0.00     0.050 A 
HETATM   25  C   UNL     1      -4.910   4.732 -33.996  1.00  0.00     0.069 A 
HETATM   26  C   UNL     1      -4.259   4.428 -32.799  1.00  0.00     0.037 A 
HETATM   27  C   UNL     1      -4.911   3.706 -31.801  1.00  0.00     0.004 A 
HETATM   28  C   UNL     1      -6.224   3.273 -31.999  1.00  0.00     0.014 A 
BRANCH  25  29
HETATM   29  O   UNL     1      -4.161   5.451 -34.887  1.00  0.00    -0.356 OA
HETATM   30  C   UNL     1      -2.799   5.678 -34.543  1.00  0.00     0.210 C 
ENDBRANCH  25  29
ENDBRANCH  10  23
TORSDOF 6
ENDMDL
MODEL 6
REMARK VINA RESULT:      -7.8      2.166      4.963
REMARK  6 active torsions:
REMARK  status: ('A' for Active; 'I' for Inactive)
REMARK    1  A    between atoms: C_2  and  O_3 
REMARK    2  A    between atoms: O_3  and  C_4 
REMARK    3  A    between atoms: C_5  and  O_6 
REMARK    4  A    between atoms: C_9  and  C_10 
REMARK    5  A    between atoms: C_19  and  C_20 
REMARK    6  A    between atoms: C_22  and  O_23 
ROOT
HETATM    1  C   UNL     1      -6.242  -0.326 -34.664  1.00  0.00     0.156 A 
HETATM    2  N   UNL     1      -6.445  -1.680 -35.210  1.00  0.00    -0.343 N 
HETATM    3  C   UNL     1      -5.680  -2.667 -34.596  1.00  0.00     0.271 A 
HETATM    4  O   UNL     1      -5.657  -3.854 -34.854  1.00  0.00    -0.266 OA
HETATM    5  C   UNL     1      -4.968  -1.957 -33.605  1.00  0.00     0.128 A 
HETATM    6  C   UNL     1      -5.266  -0.626 -33.597  1.00  0.00     0.034 A 
HETATM    7  N   UNL     1      -4.088  -2.189 -32.620  1.00  0.00    -0.272 N 
HETATM    8  H   UNL     1      -3.656  -3.062 -32.334  1.00  0.00     0.189 HD
HETATM    9  N   UNL     1      -3.793  -1.051 -31.943  1.00  0.00    -0.173 NA
HETATM   10  C   UNL     1      -4.516  -0.073 -32.546  1.00  0.00     0.098 A 
HETATM   11  H   UNL     1      -7.093  -1.903 -35.950  1.00  0.00     0.163 HD
ENDROOT
BRANCH   1  12
HETATM   12  C   UNL     1      -7.493   0.255 -34.056  1.00  0.00    -0.028 A 
HETATM   13  C   UNL     1      -8.339  -0.477 -33.198  1.00  0.00     0.012 A 
HETATM   14  C   UNL     1      -9.510   0.087 -32.684  1.00  0.00     0.040 A 
HETATM   15  C   UNL     1      -9.852   1.386 -33.029  1.00  0.00     0.099 A 
HETATM   16  C   UNL     1      -9.015   2.139 -33.849  1.00  0.00     0.102 A 
HETATM   17  C   UNL     1      -7.858   1.574 -34.381  1.00  0.00     0.049 A 
BRANCH  15  18
HETATM   18  O   UNL     1     -11.032   1.893 -32.568  1.00  0.00    -0.358 OA
HETATM   19  H   UNL     1     -11.726   1.515 -33.138  1.00  0.00     0.218 HD
ENDBRANCH  15  18
BRANCH  16  20
HETATM   20  O   UNL     1      -9.342   3.421 -34.199  1.00  0.00    -0.349 OA
BRANCH  20  21
HETATM   21  C   UNL     1      -8.308   4.333 -33.797  1.00  0.00     0.171 C 
HETATM   22  C   UNL     1      -8.646   4.841 -32.407  1.00  0.00     0.034 C 
ENDBRANCH  20  21
ENDBRANCH  16  20
ENDBRANCH   1  12
BRANCH  10  23
HETATM   23  C   UNL     1      -4.471   1.310 -32.068  1.00  0.00    -0.002 A 
HETATM   24  C   UNL     1      -3.265   2.031 -32.131  1.00  0.00     0.050 A 
HETATM   25  C   UNL     1      -3.192   3.343 -31.662  1.00  0.00     0.069 A 
HETATM   26  C   UNL     1      -4.334   3.941 -31.126  1.00  0.00     0.037 A 
HETATM   27  C   UNL     1      -5.540   3.244 -31.068  1.00  0.00     0.004 A 
HETATM   28  C   UNL     1      -5.609   1.933 -31.541  1.00  0.00     0.014 A 
BRANCH  25  29
HETATM   29  O   UNL     1      -2.078   4.137 -31.667  1.00  0.00    -0.356 OA
HETATM   30  C   UNL     1      -1.774   4.805 -32.886  1.00  0.00     0.210 C 
ENDBRANCH  25  29
ENDBRANCH  10  23
TORSDOF 6
ENDMDL
MODEL 7
REMARK VINA RESULT:      -7.6      2.514      4.775
REMARK  6 active torsions:
REMARK  status: ('A' for Active; 'I' for Inactive)
REMARK    1  A    between atoms: C_2  and  O_3 
REMARK    2  A    between atoms: O_3  and  C_4 
REMARK    3  A    between atoms: C_5  and  O_6 
REMARK    4  A    between atoms: C_9  and  C_10 
REMARK    5  A    between atoms: C_19  and  C_20 
REMARK    6  A    between atoms: C_22  and  O_23 
ROOT
HETATM    1  C   UNL     1      -8.357   2.664 -33.983  1.00  0.00     0.156 A 
HETATM    2  N   UNL     1      -9.567   3.496 -33.852  1.00  0.00    -0.343 N 
HETATM    3  C   UNL     1     -10.693   2.807 -33.414  1.00  0.00     0.271 A 
HETATM    4  O   UNL     1     -11.807   3.253 -33.226  1.00  0.00    -0.266 OA
HETATM    5  C   UNL     1     -10.218   1.490 -33.230  1.00  0.00     0.128 A 
HETATM    6  C   UNL     1      -8.892   1.364 -33.527  1.00  0.00     0.034 A 
HETATM    7  N   UNL     1     -10.663   0.295 -32.814  1.00  0.00    -0.272 N 
HETATM    8  H   UNL     1     -11.592   0.025 -32.508  1.00  0.00     0.189 HD
HETATM    9  N   UNL     1      -9.670  -0.629 -32.814  1.00  0.00    -0.173 NA
HETATM   10  C   UNL     1      -8.567   0.024 -33.261  1.00  0.00     0.098 A 
HETATM   11  H   UNL     1      -9.596   4.488 -34.036  1.00  0.00     0.163 HD
ENDROOT
BRANCH   1  12
HETATM   12  C   UNL     1      -7.242   3.100 -33.067  1.00  0.00    -0.028 A 
HETATM   13  C   UNL     1      -5.903   3.218 -33.493  1.00  0.00     0.012 A 
HETATM   14  C   UNL     1      -4.892   3.590 -32.602  1.00  0.00     0.040 A 
HETATM   15  C   UNL     1      -5.208   3.840 -31.275  1.00  0.00     0.099 A 
HETATM   16  C   UNL     1      -6.528   3.760 -30.840  1.00  0.00     0.102 A 
HETATM   17  C   UNL     1      -7.537   3.369 -31.719  1.00  0.00     0.049 A 
BRANCH  15  18
HETATM   18  O   UNL     1      -4.196   4.138 -30.410  1.00  0.00    -0.358 OA
HETATM   19  H   UNL     1      -3.933   5.055 -30.613  1.00  0.00     0.218 HD
ENDBRANCH  15  18
BRANCH  16  20
HETATM   20  O   UNL     1      -6.853   4.002 -29.532  1.00  0.00    -0.349 OA
BRANCH  20  21
HETATM   21  C   UNL     1      -7.854   5.028 -29.442  1.00  0.00     0.171 C 
HETATM   22  C   UNL     1      -7.520   5.904 -28.249  1.00  0.00     0.034 C 
ENDBRANCH  20  21
ENDBRANCH  16  20
ENDBRANCH   1  12
BRANCH  10  23
HETATM   23  C   UNL     1      -7.276  -0.656 -33.376  1.00  0.00    -0.002 A 
HETATM   24  C   UNL     1      -7.091  -1.639 -34.364  1.00  0.00     0.050 A 
HETATM   25  C   UNL     1      -5.877  -2.316 -34.479  1.00  0.00     0.069 A 
HETATM   26  C   UNL     1      -4.836  -2.008 -33.601  1.00  0.00     0.037 A 
HETATM   27  C   UNL     1      -4.999  -1.026 -32.625  1.00  0.00     0.004 A 
HETATM   28  C   UNL     1      -6.215  -0.349 -32.515  1.00  0.00     0.014 A 
BRANCH  25  29
HETATM   29  O   UNL     1      -5.584  -3.292 -35.394  1.00  0.00    -0.356 OA
HETATM   30  C   UNL     1      -6.366  -4.478 -35.335  1.00  0.00     0.210 C 
ENDBRANCH  25  29
ENDBRANCH  10  23
TORSDOF 6
ENDMDL
MODEL 8
REMARK VINA RESULT:      -7.6     15.057     17.216
REMARK  6 active torsions:
REMARK  status: ('A' for Active; 'I' for Inactive)
REMARK    1  A    between atoms: C_2  and  O_3 
REMARK    2  A    between atoms: O_3  and  C_4 
REMARK    3  A    between atoms: C_5  and  O_6 
REMARK    4  A    between atoms: C_9  and  C_10 
REMARK    5  A    between atoms: C_19  and  C_20 
REMARK    6  A    between atoms: C_22  and  O_23 
ROOT
HETATM    1  C   UNL     1      -5.615 -12.382 -38.519  1.00  0.00     0.156 A 
HETATM    2  N   UNL     1      -4.398 -12.454 -37.690  1.00  0.00    -0.343 N 
HETATM    3  C   UNL     1      -4.506 -13.292 -36.585  1.00  0.00     0.271 A 
HETATM    4  O   UNL     1      -3.657 -13.525 -35.747  1.00  0.00    -0.266 OA
HETATM    5  C   UNL     1      -5.817 -13.804 -36.691  1.00  0.00     0.128 A 
HETATM    6  C   UNL     1      -6.480 -13.326 -37.783  1.00  0.00     0.034 A 
HETATM    7  N   UNL     1      -6.631 -14.661 -36.057  1.00  0.00    -0.272 N 
HETATM    8  H   UNL     1      -6.464 -15.204 -35.215  1.00  0.00     0.189 HD
HETATM    9  N   UNL     1      -7.819 -14.780 -36.698  1.00  0.00    -0.173 NA
HETATM   10  C   UNL     1      -7.738 -13.950 -37.769  1.00  0.00     0.098 A 
HETATM   11  H   UNL     1      -3.540 -11.966 -37.898  1.00  0.00     0.163 HD
ENDROOT
BRANCH   1  12
HETATM   12  C   UNL     1      -5.399 -12.884 -39.924  1.00  0.00    -0.028 A 
HETATM   13  C   UNL     1      -6.407 -12.860 -40.909  1.00  0.00     0.012 A 
HETATM   14  C   UNL     1      -6.177 -13.370 -42.190  1.00  0.00     0.040 A 
HETATM   15  C   UNL     1      -4.940 -13.917 -42.497  1.00  0.00     0.099 A 
HETATM   16  C   UNL     1      -3.920 -13.922 -41.550  1.00  0.00     0.102 A 
HETATM   17  C   UNL     1      -4.150 -13.434 -40.265  1.00  0.00     0.049 A 
BRANCH  15  18
HETATM   18  O   UNL     1      -4.759 -14.466 -43.733  1.00  0.00    -0.358 OA
HETATM   19  H   UNL     1      -4.021 -13.975 -44.138  1.00  0.00     0.218 HD
ENDBRANCH  15  18
BRANCH  16  20
HETATM   20  O   UNL     1      -2.695 -14.461 -41.839  1.00  0.00    -0.349 OA
BRANCH  20  21
HETATM   21  C   UNL     1      -1.985 -14.775 -40.631  1.00  0.00     0.171 C 
HETATM   22  C   UNL     1      -0.625 -14.106 -40.699  1.00  0.00     0.034 C 
ENDBRANCH  20  21
ENDBRANCH  16  20
ENDBRANCH   1  12
BRANCH  10  23
HETATM   23  C   UNL     1      -8.843 -13.827 -38.721  1.00  0.00    -0.002 A 
HETATM   24  C   UNL     1      -9.421 -14.984 -39.273  1.00  0.00     0.050 A 
HETATM   25  C   UNL     1     -10.461 -14.891 -40.198  1.00  0.00     0.069 A 
HETATM   26  C   UNL     1     -10.930 -13.632 -40.576  1.00  0.00     0.037 A 
HETATM   27  C   UNL     1     -10.376 -12.476 -40.029  1.00  0.00     0.004 A 
HETATM   28  C   UNL     1      -9.338 -12.573 -39.101  1.00  0.00     0.014 A 
BRANCH  25  29
HETATM   29  O   UNL     1     -11.095 -15.943 -40.804  1.00  0.00    -0.356 OA
HETATM   30  C   UNL     1     -11.698 -15.685 -42.066  1.00  0.00     0.210 C 
ENDBRANCH  25  29
ENDBRANCH  10  23
TORSDOF 6
ENDMDL
MODEL 9
REMARK VINA RESULT:      -7.5      2.643      6.779
REMARK  6 active torsions:
REMARK  status: ('A' for Active; 'I' for Inactive)
REMARK    1  A    between atoms: C_2  and  O_3 
REMARK    2  A    between atoms: O_3  and  C_4 
REMARK    3  A    between atoms: C_5  and  O_6 
REMARK    4  A    between atoms: C_9  and  C_10 
REMARK    5  A    between atoms: C_19  and  C_20 
REMARK    6  A    between atoms: C_22  and  O_23 
ROOT
HETATM    1  C   UNL     1      -8.801   0.856 -32.046  1.00  0.00     0.156 A 
HETATM    2  N   UNL     1     -10.024   0.073 -32.300  1.00  0.00    -0.343 N 
HETATM    3  C   UNL     1     -10.905   0.662 -33.201  1.00  0.00     0.271 A 
HETATM    4  O   UNL     1     -11.976   0.229 -33.579  1.00  0.00    -0.266 OA
HETATM    5  C   UNL     1     -10.244   1.854 -33.572  1.00  0.00     0.128 A 
HETATM    6  C   UNL     1      -9.038   2.000 -32.952  1.00  0.00     0.034 A 
HETATM    7  N   UNL     1     -10.419   2.904 -34.387  1.00  0.00    -0.272 N 
HETATM    8  H   UNL     1     -11.196   3.117 -35.005  1.00  0.00     0.189 HD
HETATM    9  N   UNL     1      -9.358   3.747 -34.341  1.00  0.00    -0.173 NA
HETATM   10  C   UNL     1      -8.497   3.197 -33.447  1.00  0.00     0.098 A 
HETATM   11  H   UNL     1     -10.218  -0.826 -31.886  1.00  0.00     0.163 HD
ENDROOT
BRANCH   1  12
HETATM   12  C   UNL     1      -7.545   0.135 -32.464  1.00  0.00    -0.028 A 
HETATM   13  C   UNL     1      -6.296   0.349 -31.844  1.00  0.00     0.012 A 
HETATM   14  C   UNL     1      -5.147  -0.314 -32.286  1.00  0.00     0.040 A 
HETATM   15  C   UNL     1      -5.233  -1.191 -33.357  1.00  0.00     0.099 A 
HETATM   16  C   UNL     1      -6.461  -1.443 -33.963  1.00  0.00     0.102 A 
HETATM   17  C   UNL     1      -7.605  -0.768 -33.540  1.00  0.00     0.049 A 
BRANCH  15  18
HETATM   18  O   UNL     1      -4.088  -1.777 -33.812  1.00  0.00    -0.358 OA
HETATM   19  H   UNL     1      -4.301  -2.721 -33.933  1.00  0.00     0.218 HD
ENDBRANCH  15  18
BRANCH  16  20
HETATM   20  O   UNL     1      -6.559  -2.304 -35.022  1.00  0.00    -0.349 OA
BRANCH  20  21
HETATM   21  C   UNL     1      -6.922  -3.619 -34.571  1.00  0.00     0.171 C 
HETATM   22  C   UNL     1      -6.253  -4.629 -35.484  1.00  0.00     0.034 C 
ENDBRANCH  20  21
ENDBRANCH  16  20
ENDBRANCH   1  12
BRANCH  10  23
HETATM   23  C   UNL     1      -7.210   3.826 -33.146  1.00  0.00    -0.002 A 
HETATM   24  C   UNL     1      -7.057   4.571 -31.963  1.00  0.00     0.050 A 
HETATM   25  C   UNL     1      -5.846   5.197 -31.665  1.00  0.00     0.069 A 
HETATM   26  C   UNL     1      -4.777   5.078 -32.555  1.00  0.00     0.037 A 
HETATM   27  C   UNL     1      -4.909   4.332 -33.726  1.00  0.00     0.004 A 
HETATM   28  C   UNL     1      -6.121   3.705 -34.019  1.00  0.00     0.014 A 
BRANCH  25  29
HETATM   29  O   UNL     1      -5.583   5.949 -30.552  1.00  0.00    -0.356 OA
HETATM   30  C   UNL     1      -6.659   6.720 -30.032  1.00  0.00     0.210 C 
ENDBRANCH  25  29
ENDBRANCH  10  23
TORSDOF 6
ENDMDL
MODEL 10
REMARK VINA RESULT:      -7.4      2.487      5.751
REMARK  6 active torsions:
REMARK  status: ('A' for Active; 'I' for Inactive)
REMARK    1  A    between atoms: C_2  and  O_3 
REMARK    2  A    between atoms: O_3  and  C_4 
REMARK    3  A    between atoms: C_5  and  O_6 
REMARK    4  A    between atoms: C_9  and  C_10 
REMARK    5  A    between atoms: C_19  and  C_20 
REMARK    6  A    between atoms: C_22  and  O_23 
ROOT
HETATM    1  C   UNL     1      -5.010   0.586 -31.021  1.00  0.00     0.156 A 
HETATM    2  N   UNL     1      -3.650   0.051 -30.828  1.00  0.00    -0.343 N 
HETATM    3  C   UNL     1      -3.251  -0.864 -31.797  1.00  0.00     0.271 A 
HETATM    4  O   UNL     1      -2.189  -1.450 -31.869  1.00  0.00    -0.266 OA
HETATM    5  C   UNL     1      -4.363  -0.925 -32.666  1.00  0.00     0.128 A 
HETATM    6  C   UNL     1      -5.381  -0.106 -32.273  1.00  0.00     0.034 A 
HETATM    7  N   UNL     1      -4.734  -1.527 -33.805  1.00  0.00    -0.272 N 
HETATM    8  H   UNL     1      -4.223  -2.193 -34.377  1.00  0.00     0.189 HD
HETATM    9  N   UNL     1      -5.970  -1.128 -34.194  1.00  0.00    -0.173 NA
HETATM   10  C   UNL     1      -6.383  -0.249 -33.246  1.00  0.00     0.098 A 
HETATM   11  H   UNL     1      -3.032   0.326 -30.080  1.00  0.00     0.163 HD
ENDROOT
BRANCH   1  12
HETATM   12  C   UNL     1      -5.028   2.077 -31.245  1.00  0.00    -0.028 A 
HETATM   13  C   UNL     1      -5.707   2.971 -30.392  1.00  0.00     0.012 A 
HETATM   14  C   UNL     1      -5.730   4.344 -30.656  1.00  0.00     0.040 A 
HETATM   15  C   UNL     1      -5.082   4.836 -31.779  1.00  0.00     0.099 A 
HETATM   16  C   UNL     1      -4.378   3.975 -32.617  1.00  0.00     0.102 A 
HETATM   17  C   UNL     1      -4.369   2.603 -32.371  1.00  0.00     0.049 A 
BRANCH  15  18
HETATM   18  O   UNL     1      -5.172   6.170 -32.051  1.00  0.00    -0.358 OA
HETATM   19  H   UNL     1      -5.195   6.242 -33.023  1.00  0.00     0.218 HD
ENDBRANCH  15  18
BRANCH  16  20
HETATM   20  O   UNL     1      -3.736   4.447 -33.730  1.00  0.00    -0.349 OA
BRANCH  20  21
HETATM   21  C   UNL     1      -2.314   4.447 -33.530  1.00  0.00     0.171 C 
HETATM   22  C   UNL     1      -1.676   5.179 -34.696  1.00  0.00     0.034 C 
ENDBRANCH  20  21
ENDBRANCH  16  20
ENDBRANCH   1  12
BRANCH  10  23
HETATM   23  C   UNL     1      -7.683   0.416 -33.341  1.00  0.00    -0.002 A 
HETATM   24  C   UNL     1      -7.749   1.766 -33.730  1.00  0.00     0.050 A 
HETATM   25  C   UNL     1      -8.975   2.427 -33.807  1.00  0.00     0.069 A 
HETATM   26  C   UNL     1     -10.147   1.735 -33.494  1.00  0.00     0.037 A 
HETATM   27  C   UNL     1     -10.098   0.394 -33.118  1.00  0.00     0.004 A 
HETATM   28  C   UNL     1      -8.870  -0.266 -33.045  1.00  0.00     0.014 A 
BRANCH  25  29
HETATM   29  O   UNL     1      -9.162   3.735 -34.167  1.00  0.00    -0.356 OA
HETATM   30  C   UNL     1      -8.098   4.634 -33.883  1.00  0.00     0.210 C 
ENDBRANCH  25  29
ENDBRANCH  10  23
TORSDOF 6
ENDMDL
