MODEL 1
REMARK VINA RESULT:      -9.5      0.000      0.000
REMARK  8 active torsions:
REMARK  status: ('A' for Active; 'I' for Inactive)
REMARK    1  A    between atoms: C_4  and  O_5 
REMARK    2  A    between atoms: O_5  and  C_6 
REMARK    3  A    between atoms: C_8  and  C_9 
REMARK    4  A    between atoms: C_9  and  N_10 
REMARK    5  A    between atoms: C_9  and  C_14 
REMARK       I    between atoms: N_10  and  C_11 
REMARK       I    between atoms: C_11  and  N_12 
REMARK    6  A    between atoms: C_14  and  C_15 
REMARK       I    between atoms: C_15  and  N_16 
REMARK    7  A    between atoms: N_16  and  N_17 
REMARK       I    between atoms: N_17  and  C_18 
REMARK    8  A    between atoms: C_18  and  C_19 
ROOT
HETATM    1  C   UNL     1      -5.033   3.474 -31.252  1.00  0.00     0.127 C 
ENDROOT
BRANCH   1   2
HETATM    2  C   UNL     1      -5.470   2.026 -31.388  1.00  0.00    -0.032 A 
HETATM    3  C   UNL     1      -5.323   1.401 -32.639  1.00  0.00     0.046 A 
HETATM    4  C   UNL     1      -5.711   0.074 -32.834  1.00  0.00     0.076 A 
HETATM    5  C   UNL     1      -6.222  -0.664 -31.767  1.00  0.00     0.037 A 
HETATM    6  C   UNL     1      -6.400  -0.050 -30.526  1.00  0.00     0.003 A 
HETATM    7  C   UNL     1      -6.040   1.288 -30.340  1.00  0.00     0.009 A 
BRANCH   4   8
HETATM    8  O   UNL     1      -5.477  -0.452 -34.081  1.00  0.00    -0.311 OA
BRANCH   8   9
HETATM    9  C   UNL     1      -5.593  -1.812 -34.260  1.00  0.00     0.076 A 
HETATM   10  C   UNL     1      -6.781  -2.443 -34.637  1.00  0.00     0.037 A 
HETATM   11  C   UNL     1      -6.797  -3.825 -34.838  1.00  0.00     0.003 A 
HETATM   12  C   UNL     1      -5.626  -4.569 -34.688  1.00  0.00     0.000 A 
HETATM   13  C   UNL     1      -4.434  -3.932 -34.342  1.00  0.00     0.003 A 
HETATM   14  C   UNL     1      -4.417  -2.553 -34.135  1.00  0.00     0.037 A 
ENDBRANCH   8   9
ENDBRANCH   4   8
ENDBRANCH   1   2
BRANCH   1  15
HETATM   15  N   UNL     1      -4.978   3.799 -29.832  1.00  0.00    -0.339 N 
HETATM   16  C   UNL     1      -5.803   4.731 -29.285  1.00  0.00     0.292 C 
HETATM   17  N   UNL     1      -5.555   4.934 -27.968  1.00  0.00    -0.254 NA
HETATM   18  O   UNL     1      -6.682   5.334 -29.880  1.00  0.00    -0.254 OA
HETATM   19  H   UNL     1      -5.300   4.122 -27.425  1.00  0.00     0.128 HD
HETATM   20  H   UNL     1      -6.236   5.537 -27.524  1.00  0.00     0.128 HD
HETATM   21  H   UNL     1      -4.109   3.630 -29.346  1.00  0.00     0.164 HD
ENDBRANCH   1  15
BRANCH   1  22
HETATM   22  C   UNL     1      -3.723   3.860 -31.950  1.00  0.00     0.134 C 
BRANCH  22  23
HETATM   23  C   UNL     1      -2.949   5.005 -31.331  1.00  0.00     0.238 C 
HETATM   24  N   UNL     1      -1.699   4.716 -30.824  1.00  0.00    -0.267 N 
HETATM   25  H   UNL     1      -1.460   3.785 -30.487  1.00  0.00     0.190 HD
HETATM   26  O   UNL     1      -3.386   6.158 -31.369  1.00  0.00    -0.272 OA
BRANCH  24  27
HETATM   27  N   UNL     1      -1.044   5.764 -30.147  1.00  0.00    -0.262 N 
HETATM   28  C   UNL     1       0.162   5.494 -29.522  1.00  0.00     0.293 C 
HETATM   29  O   UNL     1       0.794   4.463 -29.751  1.00  0.00    -0.264 OA
HETATM   30  H   UNL     1      -1.644   6.489 -29.749  1.00  0.00     0.190 HD
BRANCH  28  31
HETATM   31  C   UNL     1       0.586   6.519 -28.592  1.00  0.00     0.144 A 
HETATM   32  O   UNL     1       0.655   6.226 -27.254  1.00  0.00    -0.317 OA
HETATM   33  C   UNL     1       1.062   7.352 -26.615  1.00  0.00     0.143 A 
HETATM   34  C   UNL     1       1.266   8.370 -27.517  1.00  0.00     0.027 A 
HETATM   35  C   UNL     1       0.960   7.835 -28.791  1.00  0.00     0.045 A 
ENDBRANCH  28  31
ENDBRANCH  24  27
ENDBRANCH  22  23
ENDBRANCH   1  22
TORSDOF 8
ENDMDL
MODEL 2
REMARK VINA RESULT:      -9.3      2.163      9.364
REMARK  8 active torsions:
REMARK  status: ('A' for Active; 'I' for Inactive)
REMARK    1  A    between atoms: C_4  and  O_5 
REMARK    2  A    between atoms: O_5  and  C_6 
REMARK    3  A    between atoms: C_8  and  C_9 
REMARK    4  A    between atoms: C_9  and  N_10 
REMARK    5  A    between atoms: C_9  and  C_14 
REMARK       I    between atoms: N_10  and  C_11 
REMARK       I    between atoms: C_11  and  N_12 
REMARK    6  A    between atoms: C_14  and  C_15 
REMARK       I    between atoms: C_15  and  N_16 
REMARK    7  A    between atoms: N_16  and  N_17 
REMARK       I    between atoms: N_17  and  C_18 
REMARK    8  A    between atoms: C_18  and  C_19 
ROOT
HETATM    1  C   UNL     1      -4.642   3.514 -32.280  1.00  0.00     0.127 C 
ENDROOT
BRANCH   1   2
HETATM    2  C   UNL     1      -3.494   4.303 -32.887  1.00  0.00    -0.032 A 
HETATM    3  C   UNL     1      -2.265   4.320 -32.205  1.00  0.00     0.046 A 
HETATM    4  C   UNL     1      -1.172   5.031 -32.704  1.00  0.00     0.076 A 
HETATM    5  C   UNL     1      -1.280   5.711 -33.916  1.00  0.00     0.037 A 
HETATM    6  C   UNL     1      -2.502   5.727 -34.591  1.00  0.00     0.003 A 
HETATM    7  C   UNL     1      -3.605   5.041 -34.075  1.00  0.00     0.009 A 
BRANCH   4   8
HETATM    8  O   UNL     1      -0.005   4.938 -31.984  1.00  0.00    -0.311 OA
BRANCH   8   9
HETATM    9  C   UNL     1       0.131   5.690 -30.839  1.00  0.00     0.076 A 
HETATM   10  C   UNL     1      -0.230   7.036 -30.751  1.00  0.00     0.037 A 
HETATM   11  C   UNL     1      -0.099   7.711 -29.536  1.00  0.00     0.003 A 
HETATM   12  C   UNL     1       0.368   7.036 -28.407  1.00  0.00     0.000 A 
HETATM   13  C   UNL     1       0.699   5.684 -28.489  1.00  0.00     0.003 A 
HETATM   14  C   UNL     1       0.574   5.010 -29.704  1.00  0.00     0.037 A 
ENDBRANCH   8   9
ENDBRANCH   4   8
ENDBRANCH   1   2
BRANCH   1  15
HETATM   15  N   UNL     1      -5.014   4.152 -31.023  1.00  0.00    -0.339 N 
HETATM   16  C   UNL     1      -5.399   3.421 -29.943  1.00  0.00     0.292 C 
HETATM   17  N   UNL     1      -5.765   4.199 -28.895  1.00  0.00    -0.254 NA
HETATM   18  O   UNL     1      -5.424   2.202 -29.887  1.00  0.00    -0.254 OA
HETATM   19  H   UNL     1      -5.234   5.046 -28.753  1.00  0.00     0.128 HD
HETATM   20  H   UNL     1      -5.941   3.669 -28.051  1.00  0.00     0.128 HD
HETATM   21  H   UNL     1      -5.349   5.104 -31.062  1.00  0.00     0.164 HD
ENDBRANCH   1  15
BRANCH   1  22
HETATM   22  C   UNL     1      -5.873   3.305 -33.171  1.00  0.00     0.134 C 
BRANCH  22  23
HETATM   23  C   UNL     1      -6.284   1.868 -33.414  1.00  0.00     0.238 C 
HETATM   24  N   UNL     1      -5.715   0.907 -32.604  1.00  0.00    -0.267 N 
HETATM   25  H   UNL     1      -4.801   1.040 -32.175  1.00  0.00     0.190 HD
HETATM   26  O   UNL     1      -7.159   1.591 -34.238  1.00  0.00    -0.272 OA
BRANCH  24  27
HETATM   27  N   UNL     1      -6.017  -0.433 -32.921  1.00  0.00    -0.262 N 
HETATM   28  C   UNL     1      -5.049  -1.197 -33.551  1.00  0.00     0.293 C 
HETATM   29  O   UNL     1      -3.874  -0.834 -33.609  1.00  0.00    -0.264 OA
HETATM   30  H   UNL     1      -6.999  -0.641 -33.113  1.00  0.00     0.190 HD
BRANCH  28  31
HETATM   31  C   UNL     1      -5.551  -2.426 -34.125  1.00  0.00     0.144 A 
HETATM   32  O   UNL     1      -4.703  -3.495 -34.274  1.00  0.00    -0.317 OA
HETATM   33  C   UNL     1      -5.418  -4.501 -34.840  1.00  0.00     0.143 A 
HETATM   34  C   UNL     1      -6.717  -4.107 -35.054  1.00  0.00     0.027 A 
HETATM   35  C   UNL     1      -6.806  -2.771 -34.594  1.00  0.00     0.045 A 
ENDBRANCH  28  31
ENDBRANCH  24  27
ENDBRANCH  22  23
ENDBRANCH   1  22
TORSDOF 8
ENDMDL
MODEL 3
REMARK VINA RESULT:      -9.3      2.508      3.379
REMARK  8 active torsions:
REMARK  status: ('A' for Active; 'I' for Inactive)
REMARK    1  A    between atoms: C_4  and  O_5 
REMARK    2  A    between atoms: O_5  and  C_6 
REMARK    3  A    between atoms: C_8  and  C_9 
REMARK    4  A    between atoms: C_9  and  N_10 
REMARK    5  A    between atoms: C_9  and  C_14 
REMARK       I    between atoms: N_10  and  C_11 
REMARK       I    between atoms: C_11  and  N_12 
REMARK    6  A    between atoms: C_14  and  C_15 
REMARK       I    between atoms: C_15  and  N_16 
REMARK    7  A    between atoms: N_16  and  N_17 
REMARK       I    between atoms: N_17  and  C_18 
REMARK    8  A    between atoms: C_18  and  C_19 
ROOT
HETATM    1  C   UNL     1      -7.048   2.200 -32.864  1.00  0.00     0.127 C 
ENDROOT
BRANCH   1   2
HETATM    2  C   UNL     1      -5.996   1.213 -32.389  1.00  0.00    -0.032 A 
HETATM    3  C   UNL     1      -5.445   0.325 -33.330  1.00  0.00     0.046 A 
HETATM    4  C   UNL     1      -4.480  -0.613 -32.959  1.00  0.00     0.076 A 
HETATM    5  C   UNL     1      -4.021  -0.655 -31.643  1.00  0.00     0.037 A 
HETATM    6  C   UNL     1      -4.578   0.201 -30.692  1.00  0.00     0.003 A 
HETATM    7  C   UNL     1      -5.567   1.119 -31.057  1.00  0.00     0.009 A 
BRANCH   4   8
HETATM    8  O   UNL     1      -3.973  -1.398 -33.968  1.00  0.00    -0.311 OA
BRANCH   8   9
HETATM    9  C   UNL     1      -4.602  -2.586 -34.264  1.00  0.00     0.076 A 
HETATM   10  C   UNL     1      -4.042  -3.840 -34.011  1.00  0.00     0.037 A 
HETATM   11  C   UNL     1      -4.769  -4.996 -34.304  1.00  0.00     0.003 A 
HETATM   12  C   UNL     1      -6.060  -4.897 -34.825  1.00  0.00     0.000 A 
HETATM   13  C   UNL     1      -6.629  -3.643 -35.048  1.00  0.00     0.003 A 
HETATM   14  C   UNL     1      -5.902  -2.488 -34.762  1.00  0.00     0.037 A 
ENDBRANCH   8   9
ENDBRANCH   4   8
ENDBRANCH   1   2
BRANCH   1  15
HETATM   15  N   UNL     1      -7.855   2.589 -31.713  1.00  0.00    -0.339 N 
HETATM   16  C   UNL     1      -9.061   2.013 -31.465  1.00  0.00     0.292 C 
HETATM   17  N   UNL     1      -9.682   2.554 -30.388  1.00  0.00    -0.254 NA
HETATM   18  O   UNL     1      -9.559   1.107 -32.114  1.00  0.00    -0.254 OA
HETATM   19  H   UNL     1      -9.093   2.820 -29.612  1.00  0.00     0.128 HD
HETATM   20  H   UNL     1     -10.523   2.057 -30.124  1.00  0.00     0.128 HD
HETATM   21  H   UNL     1      -7.714   3.515 -31.334  1.00  0.00     0.164 HD
ENDBRANCH   1  15
BRANCH   1  22
HETATM   22  C   UNL     1      -6.535   3.437 -33.612  1.00  0.00     0.134 C 
BRANCH  22  23
HETATM   23  C   UNL     1      -5.494   4.269 -32.893  1.00  0.00     0.238 C 
HETATM   24  N   UNL     1      -4.290   4.462 -33.538  1.00  0.00    -0.267 N 
HETATM   25  H   UNL     1      -3.931   3.791 -34.216  1.00  0.00     0.190 HD
HETATM   26  O   UNL     1      -5.755   4.823 -31.823  1.00  0.00    -0.272 OA
BRANCH  24  27
HETATM   27  N   UNL     1      -3.292   5.137 -32.806  1.00  0.00    -0.262 N 
HETATM   28  C   UNL     1      -2.014   5.200 -33.335  1.00  0.00     0.293 C 
HETATM   29  O   UNL     1      -1.786   4.921 -34.512  1.00  0.00    -0.264 OA
HETATM   30  H   UNL     1      -3.395   5.129 -31.790  1.00  0.00     0.190 HD
BRANCH  28  31
HETATM   31  C   UNL     1      -1.003   5.610 -32.385  1.00  0.00     0.144 A 
HETATM   32  O   UNL     1      -0.452   4.675 -31.545  1.00  0.00    -0.317 OA
HETATM   33  C   UNL     1       0.448   5.321 -30.759  1.00  0.00     0.143 A 
HETATM   34  C   UNL     1       0.496   6.657 -31.080  1.00  0.00     0.027 A 
HETATM   35  C   UNL     1      -0.437   6.845 -32.128  1.00  0.00     0.045 A 
ENDBRANCH  28  31
ENDBRANCH  24  27
ENDBRANCH  22  23
ENDBRANCH   1  22
TORSDOF 8
ENDMDL
MODEL 4
REMARK VINA RESULT:      -9.3      1.618      2.032
REMARK  8 active torsions:
REMARK  status: ('A' for Active; 'I' for Inactive)
REMARK    1  A    between atoms: C_4  and  O_5 
REMARK    2  A    between atoms: O_5  and  C_6 
REMARK    3  A    between atoms: C_8  and  C_9 
REMARK    4  A    between atoms: C_9  and  N_10 
REMARK    5  A    between atoms: C_9  and  C_14 
REMARK       I    between atoms: N_10  and  C_11 
REMARK       I    between atoms: C_11  and  N_12 
REMARK    6  A    between atoms: C_14  and  C_15 
REMARK       I    between atoms: C_15  and  N_16 
REMARK    7  A    between atoms: N_16  and  N_17 
REMARK       I    between atoms: N_17  and  C_18 
REMARK    8  A    between atoms: C_18  and  C_19 
ROOT
HETATM    1  C   UNL     1      -4.479   3.652 -33.037  1.00  0.00     0.127 C 
ENDROOT
BRANCH   1   2
HETATM    2  C   UNL     1      -5.151   2.554 -32.232  1.00  0.00    -0.032 A 
HETATM    3  C   UNL     1      -5.882   1.573 -32.926  1.00  0.00     0.046 A 
HETATM    4  C   UNL     1      -6.530   0.540 -32.247  1.00  0.00     0.076 A 
HETATM    5  C   UNL     1      -6.428   0.450 -30.859  1.00  0.00     0.037 A 
HETATM    6  C   UNL     1      -5.730   1.431 -30.154  1.00  0.00     0.003 A 
HETATM    7  C   UNL     1      -5.108   2.483 -30.832  1.00  0.00     0.009 A 
BRANCH   4   8
HETATM    8  O   UNL     1      -7.173  -0.392 -33.026  1.00  0.00    -0.311 OA
BRANCH   8   9
HETATM    9  C   UNL     1      -6.434  -1.404 -33.595  1.00  0.00     0.076 A 
HETATM   10  C   UNL     1      -5.051  -1.529 -33.446  1.00  0.00     0.037 A 
HETATM   11  C   UNL     1      -4.387  -2.614 -34.024  1.00  0.00     0.003 A 
HETATM   12  C   UNL     1      -5.106  -3.581 -34.727  1.00  0.00     0.000 A 
HETATM   13  C   UNL     1      -6.491  -3.470 -34.849  1.00  0.00     0.003 A 
HETATM   14  C   UNL     1      -7.155  -2.385 -34.278  1.00  0.00     0.037 A 
ENDBRANCH   8   9
ENDBRANCH   4   8
ENDBRANCH   1   2
BRANCH   1  15
HETATM   15  N   UNL     1      -5.001   4.934 -32.578  1.00  0.00    -0.339 N 
HETATM   16  C   UNL     1      -6.023   5.556 -33.223  1.00  0.00     0.292 C 
HETATM   17  N   UNL     1      -6.319   6.763 -32.680  1.00  0.00    -0.254 NA
HETATM   18  O   UNL     1      -6.631   5.109 -34.182  1.00  0.00    -0.254 OA
HETATM   19  H   UNL     1      -6.252   6.836 -31.676  1.00  0.00     0.128 HD
HETATM   20  H   UNL     1      -7.152   7.182 -33.076  1.00  0.00     0.128 HD
HETATM   21  H   UNL     1      -4.382   5.526 -32.042  1.00  0.00     0.164 HD
ENDBRANCH   1  15
BRANCH   1  22
HETATM   22  C   UNL     1      -2.945   3.657 -33.039  1.00  0.00     0.134 C 
BRANCH  22  23
HETATM   23  C   UNL     1      -2.280   4.759 -32.241  1.00  0.00     0.238 C 
HETATM   24  N   UNL     1      -1.809   4.430 -30.987  1.00  0.00    -0.267 N 
HETATM   25  H   UNL     1      -2.219   3.673 -30.442  1.00  0.00     0.190 HD
HETATM   26  O   UNL     1      -2.089   5.873 -32.736  1.00  0.00    -0.272 OA
BRANCH  24  27
HETATM   27  N   UNL     1      -1.301   5.493 -30.213  1.00  0.00    -0.262 N 
HETATM   28  C   UNL     1       0.017   5.431 -29.791  1.00  0.00     0.293 C 
HETATM   29  O   UNL     1       0.814   4.628 -30.274  1.00  0.00    -0.264 OA
HETATM   30  H   UNL     1      -1.975   5.984 -29.624  1.00  0.00     0.190 HD
BRANCH  28  31
HETATM   31  C   UNL     1       0.345   6.378 -28.748  1.00  0.00     0.144 A 
HETATM   32  O   UNL     1       0.142   6.031 -27.436  1.00  0.00    -0.317 OA
HETATM   33  C   UNL     1       0.517   7.092 -26.675  1.00  0.00     0.143 A 
HETATM   34  C   UNL     1       0.967   8.119 -27.471  1.00  0.00     0.027 A 
HETATM   35  C   UNL     1       0.858   7.661 -28.806  1.00  0.00     0.045 A 
ENDBRANCH  28  31
ENDBRANCH  24  27
ENDBRANCH  22  23
ENDBRANCH   1  22
TORSDOF 8
ENDMDL
MODEL 5
REMARK VINA RESULT:      -8.9      4.411      7.926
REMARK  8 active torsions:
REMARK  status: ('A' for Active; 'I' for Inactive)
REMARK    1  A    between atoms: C_4  and  O_5 
REMARK    2  A    between atoms: O_5  and  C_6 
REMARK    3  A    between atoms: C_8  and  C_9 
REMARK    4  A    between atoms: C_9  and  N_10 
REMARK    5  A    between atoms: C_9  and  C_14 
REMARK       I    between atoms: N_10  and  C_11 
REMARK       I    between atoms: C_11  and  N_12 
REMARK    6  A    between atoms: C_14  and  C_15 
REMARK       I    between atoms: C_15  and  N_16 
REMARK    7  A    between atoms: N_16  and  N_17 
REMARK       I    between atoms: N_17  and  C_18 
REMARK    8  A    between atoms: C_18  and  C_19 
ROOT
HETATM    1  C   UNL     1      -5.673   2.938 -31.396  1.00  0.00     0.127 C 
ENDROOT
BRANCH   1   2
HETATM    2  C   UNL     1      -4.965   1.663 -31.819  1.00  0.00    -0.032 A 
HETATM    3  C   UNL     1      -5.487   0.943 -32.908  1.00  0.00     0.046 A 
HETATM    4  C   UNL     1      -4.889  -0.241 -33.345  1.00  0.00     0.076 A 
HETATM    5  C   UNL     1      -3.733  -0.707 -32.719  1.00  0.00     0.037 A 
HETATM    6  C   UNL     1      -3.219  -0.018 -31.620  1.00  0.00     0.003 A 
HETATM    7  C   UNL     1      -3.836   1.150 -31.164  1.00  0.00     0.009 A 
BRANCH   4   8
HETATM    8  O   UNL     1      -5.451  -0.837 -34.448  1.00  0.00    -0.311 OA
BRANCH   8   9
HETATM    9  C   UNL     1      -5.555  -2.209 -34.481  1.00  0.00     0.076 A 
HETATM   10  C   UNL     1      -6.761  -2.889 -34.665  1.00  0.00     0.037 A 
HETATM   11  C   UNL     1      -6.767  -4.284 -34.729  1.00  0.00     0.003 A 
HETATM   12  C   UNL     1      -5.570  -4.994 -34.634  1.00  0.00     0.000 A 
HETATM   13  C   UNL     1      -4.363  -4.312 -34.481  1.00  0.00     0.003 A 
HETATM   14  C   UNL     1      -4.355  -2.919 -34.411  1.00  0.00     0.037 A 
ENDBRANCH   8   9
ENDBRANCH   4   8
ENDBRANCH   1   2
BRANCH   1  15
HETATM   15  N   UNL     1      -6.164   3.603 -32.597  1.00  0.00    -0.339 N 
HETATM   16  C   UNL     1      -5.833   4.891 -32.881  1.00  0.00     0.292 C 
HETATM   17  N   UNL     1      -6.439   5.346 -34.005  1.00  0.00    -0.254 NA
HETATM   18  O   UNL     1      -5.077   5.589 -32.223  1.00  0.00    -0.254 OA
HETATM   19  H   UNL     1      -6.544   4.685 -34.761  1.00  0.00     0.128 HD
HETATM   20  H   UNL     1      -6.111   6.260 -34.290  1.00  0.00     0.128 HD
HETATM   21  H   UNL     1      -7.023   3.262 -33.003  1.00  0.00     0.164 HD
ENDBRANCH   1  15
BRANCH   1  22
HETATM   22  C   UNL     1      -6.794   2.785 -30.361  1.00  0.00     0.134 C 
BRANCH  22  23
HETATM   23  C   UNL     1      -8.185   2.552 -30.912  1.00  0.00     0.238 C 
HETATM   24  N   UNL     1      -8.588   1.242 -31.065  1.00  0.00    -0.267 N 
HETATM   25  H   UNL     1      -7.919   0.489 -31.217  1.00  0.00     0.190 HD
HETATM   26  O   UNL     1      -8.949   3.498 -31.123  1.00  0.00    -0.272 OA
BRANCH  24  27
HETATM   27  N   UNL     1      -9.837   1.043 -31.689  1.00  0.00    -0.262 N 
HETATM   28  C   UNL     1      -9.856   0.660 -33.020  1.00  0.00     0.293 C 
HETATM   29  O   UNL     1      -8.846   0.245 -33.589  1.00  0.00    -0.264 OA
HETATM   30  H   UNL     1     -10.612   1.607 -31.337  1.00  0.00     0.190 HD
BRANCH  28  31
HETATM   31  C   UNL     1     -11.148   0.802 -33.655  1.00  0.00     0.144 A 
HETATM   32  O   UNL     1     -12.169  -0.043 -33.299  1.00  0.00    -0.317 OA
HETATM   33  C   UNL     1     -13.251   0.296 -34.045  1.00  0.00     0.143 A 
HETATM   34  C   UNL     1     -12.953   1.352 -34.873  1.00  0.00     0.027 A 
HETATM   35  C   UNL     1     -11.599   1.680 -34.623  1.00  0.00     0.045 A 
ENDBRANCH  28  31
ENDBRANCH  24  27
ENDBRANCH  22  23
ENDBRANCH   1  22
TORSDOF 8
ENDMDL
MODEL 6
REMARK VINA RESULT:      -8.8      1.611      2.257
REMARK  8 active torsions:
REMARK  status: ('A' for Active; 'I' for Inactive)
REMARK    1  A    between atoms: C_4  and  O_5 
REMARK    2  A    between atoms: O_5  and  C_6 
REMARK    3  A    between atoms: C_8  and  C_9 
REMARK    4  A    between atoms: C_9  and  N_10 
REMARK    5  A    between atoms: C_9  and  C_14 
REMARK       I    between atoms: N_10  and  C_11 
REMARK       I    between atoms: C_11  and  N_12 
REMARK    6  A    between atoms: C_14  and  C_15 
REMARK       I    between atoms: C_15  and  N_16 
REMARK    7  A    between atoms: N_16  and  N_17 
REMARK       I    between atoms: N_17  and  C_18 
REMARK    8  A    between atoms: C_18  and  C_19 
ROOT
HETATM    1  C   UNL     1      -4.552   3.630 -31.875  1.00  0.00     0.127 C 
ENDROOT
BRANCH   1   2
HETATM    2  C   UNL     1      -4.901   2.158 -31.742  1.00  0.00    -0.032 A 
HETATM    3  C   UNL     1      -4.499   1.284 -32.767  1.00  0.00     0.046 A 
HETATM    4  C   UNL     1      -4.794  -0.079 -32.711  1.00  0.00     0.076 A 
HETATM    5  C   UNL     1      -5.469  -0.599 -31.606  1.00  0.00     0.037 A 
HETATM    6  C   UNL     1      -5.899   0.259 -30.595  1.00  0.00     0.003 A 
HETATM    7  C   UNL     1      -5.631   1.629 -30.667  1.00  0.00     0.009 A 
BRANCH   4   8
HETATM    8  O   UNL     1      -4.309  -0.851 -33.740  1.00  0.00    -0.311 OA
BRANCH   8   9
HETATM    9  C   UNL     1      -4.948  -2.032 -34.041  1.00  0.00     0.076 A 
HETATM   10  C   UNL     1      -6.271  -2.104 -34.485  1.00  0.00     0.037 A 
HETATM   11  C   UNL     1      -6.826  -3.344 -34.810  1.00  0.00     0.003 A 
HETATM   12  C   UNL     1      -6.055  -4.503 -34.715  1.00  0.00     0.000 A 
HETATM   13  C   UNL     1      -4.725  -4.425 -34.301  1.00  0.00     0.003 A 
HETATM   14  C   UNL     1      -4.170  -3.189 -33.970  1.00  0.00     0.037 A 
ENDBRANCH   8   9
ENDBRANCH   4   8
ENDBRANCH   1   2
BRANCH   1  15
HETATM   15  N   UNL     1      -4.758   4.020 -33.265  1.00  0.00    -0.339 N 
HETATM   16  C   UNL     1      -3.905   4.869 -33.897  1.00  0.00     0.292 C 
HETATM   17  N   UNL     1      -4.303   5.157 -35.160  1.00  0.00    -0.254 NA
HETATM   18  O   UNL     1      -2.885   5.336 -33.416  1.00  0.00    -0.254 OA
HETATM   19  H   UNL     1      -4.730   4.405 -35.683  1.00  0.00     0.128 HD
HETATM   20  H   UNL     1      -3.619   5.692 -35.680  1.00  0.00     0.128 HD
HETATM   21  H   UNL     1      -5.700   3.978 -33.628  1.00  0.00     0.164 HD
ENDBRANCH   1  15
BRANCH   1  22
HETATM   22  C   UNL     1      -5.276   4.592 -30.925  1.00  0.00     0.134 C 
BRANCH  22  23
HETATM   23  C   UNL     1      -4.394   5.504 -30.098  1.00  0.00     0.238 C 
HETATM   24  N   UNL     1      -3.070   5.604 -30.471  1.00  0.00    -0.267 N 
HETATM   25  H   UNL     1      -2.592   4.848 -30.961  1.00  0.00     0.190 HD
HETATM   26  O   UNL     1      -4.869   6.194 -29.192  1.00  0.00    -0.272 OA
BRANCH  24  27
HETATM   27  N   UNL     1      -2.238   6.362 -29.622  1.00  0.00    -0.262 N 
HETATM   28  C   UNL     1      -0.868   6.299 -29.812  1.00  0.00     0.293 C 
HETATM   29  O   UNL     1      -0.377   5.822 -30.835  1.00  0.00    -0.264 OA
HETATM   30  H   UNL     1      -2.589   6.526 -28.676  1.00  0.00     0.190 HD
BRANCH  28  31
HETATM   31  C   UNL     1      -0.096   6.831 -28.710  1.00  0.00     0.144 A 
HETATM   32  O   UNL     1      -0.291   6.329 -27.448  1.00  0.00    -0.317 OA
HETATM   33  C   UNL     1       0.540   7.004 -26.613  1.00  0.00     0.143 A 
HETATM   34  C   UNL     1       1.277   7.930 -27.313  1.00  0.00     0.027 A 
HETATM   35  C   UNL     1       0.869   7.820 -28.663  1.00  0.00     0.045 A 
ENDBRANCH  28  31
ENDBRANCH  24  27
ENDBRANCH  22  23
ENDBRANCH   1  22
TORSDOF 8
ENDMDL
MODEL 7
REMARK VINA RESULT:      -8.8      3.171      4.420
REMARK  8 active torsions:
REMARK  status: ('A' for Active; 'I' for Inactive)
REMARK    1  A    between atoms: C_4  and  O_5 
REMARK    2  A    between atoms: O_5  and  C_6 
REMARK    3  A    between atoms: C_8  and  C_9 
REMARK    4  A    between atoms: C_9  and  N_10 
REMARK    5  A    between atoms: C_9  and  C_14 
REMARK       I    between atoms: N_10  and  C_11 
REMARK       I    between atoms: C_11  and  N_12 
REMARK    6  A    between atoms: C_14  and  C_15 
REMARK       I    between atoms: C_15  and  N_16 
REMARK    7  A    between atoms: N_16  and  N_17 
REMARK       I    between atoms: N_17  and  C_18 
REMARK    8  A    between atoms: C_18  and  C_19 
ROOT
HETATM    1  C   UNL     1      -8.800   2.504 -33.113  1.00  0.00     0.127 C 
ENDROOT
BRANCH   1   2
HETATM    2  C   UNL     1      -7.828   1.443 -32.628  1.00  0.00    -0.032 A 
HETATM    3  C   UNL     1      -7.037   0.779 -33.584  1.00  0.00     0.046 A 
HETATM    4  C   UNL     1      -6.129  -0.212 -33.207  1.00  0.00     0.076 A 
HETATM    5  C   UNL     1      -5.970  -0.532 -31.859  1.00  0.00     0.037 A 
HETATM    6  C   UNL     1      -6.766   0.098 -30.902  1.00  0.00     0.003 A 
HETATM    7  C   UNL     1      -7.698   1.067 -31.283  1.00  0.00     0.009 A 
BRANCH   4   8
HETATM    8  O   UNL     1      -5.372  -0.760 -34.215  1.00  0.00    -0.311 OA
BRANCH   8   9
HETATM    9  C   UNL     1      -5.367  -2.127 -34.373  1.00  0.00     0.076 A 
HETATM   10  C   UNL     1      -4.268  -2.936 -34.075  1.00  0.00     0.037 A 
HETATM   11  C   UNL     1      -4.365  -4.321 -34.225  1.00  0.00     0.003 A 
HETATM   12  C   UNL     1      -5.564  -4.897 -34.646  1.00  0.00     0.000 A 
HETATM   13  C   UNL     1      -6.671  -4.090 -34.913  1.00  0.00     0.003 A 
HETATM   14  C   UNL     1      -6.573  -2.706 -34.771  1.00  0.00     0.037 A 
ENDBRANCH   8   9
ENDBRANCH   4   8
ENDBRANCH   1   2
BRANCH   1  15
HETATM   15  N   UNL     1     -10.134   2.142 -32.648  1.00  0.00    -0.339 N 
HETATM   16  C   UNL     1     -11.218   2.232 -33.463  1.00  0.00     0.292 C 
HETATM   17  N   UNL     1     -12.371   1.912 -32.827  1.00  0.00    -0.254 NA
HETATM   18  O   UNL     1     -11.194   2.556 -34.639  1.00  0.00    -0.254 OA
HETATM   19  H   UNL     1     -12.323   1.164 -32.151  1.00  0.00     0.128 HD
HETATM   20  H   UNL     1     -13.167   1.861 -33.451  1.00  0.00     0.128 HD
HETATM   21  H   UNL     1     -10.313   2.195 -31.655  1.00  0.00     0.164 HD
ENDBRANCH   1  15
BRANCH   1  22
HETATM   22  C   UNL     1      -8.468   3.955 -32.741  1.00  0.00     0.134 C 
BRANCH  22  23
HETATM   23  C   UNL     1      -7.063   4.421 -33.061  1.00  0.00     0.238 C 
HETATM   24  N   UNL     1      -6.152   4.428 -32.025  1.00  0.00    -0.267 N 
HETATM   25  H   UNL     1      -6.445   4.534 -31.055  1.00  0.00     0.190 HD
HETATM   26  O   UNL     1      -6.733   4.690 -34.219  1.00  0.00    -0.272 OA
BRANCH  24  27
HETATM   27  N   UNL     1      -4.886   4.976 -32.312  1.00  0.00    -0.262 N 
HETATM   28  C   UNL     1      -3.777   4.149 -32.237  1.00  0.00     0.293 C 
HETATM   29  O   UNL     1      -3.885   2.924 -32.184  1.00  0.00    -0.264 OA
HETATM   30  H   UNL     1      -4.765   5.968 -32.102  1.00  0.00     0.190 HD
BRANCH  28  31
HETATM   31  C   UNL     1      -2.515   4.858 -32.220  1.00  0.00     0.144 A 
HETATM   32  O   UNL     1      -1.459   4.333 -31.520  1.00  0.00    -0.317 OA
HETATM   33  C   UNL     1      -0.416   5.192 -31.659  1.00  0.00     0.143 A 
HETATM   34  C   UNL     1      -0.776   6.261 -32.444  1.00  0.00     0.027 A 
HETATM   35  C   UNL     1      -2.127   6.048 -32.807  1.00  0.00     0.045 A 
ENDBRANCH  28  31
ENDBRANCH  24  27
ENDBRANCH  22  23
ENDBRANCH   1  22
TORSDOF 8
ENDMDL
MODEL 8
REMARK VINA RESULT:      -8.7      5.205     10.058
REMARK  8 active torsions:
REMARK  status: ('A' for Active; 'I' for Inactive)
REMARK    1  A    between atoms: C_4  and  O_5 
REMARK    2  A    between atoms: O_5  and  C_6 
REMARK    3  A    between atoms: C_8  and  C_9 
REMARK    4  A    between atoms: C_9  and  N_10 
REMARK    5  A    between atoms: C_9  and  C_14 
REMARK       I    between atoms: N_10  and  C_11 
REMARK       I    between atoms: C_11  and  N_12 
REMARK    6  A    between atoms: C_14  and  C_15 
REMARK       I    between atoms: C_15  and  N_16 
REMARK    7  A    between atoms: N_16  and  N_17 
REMARK       I    between atoms: N_17  and  C_18 
REMARK    8  A    between atoms: C_18  and  C_19 
ROOT
HETATM    1  C   UNL     1      -6.610  -0.474 -34.593  1.00  0.00     0.127 C 
ENDROOT
BRANCH   1   2
HETATM    2  C   UNL     1      -5.931   0.114 -33.369  1.00  0.00    -0.032 A 
HETATM    3  C   UNL     1      -5.757   1.509 -33.310  1.00  0.00     0.046 A 
HETATM    4  C   UNL     1      -5.134   2.114 -32.217  1.00  0.00     0.076 A 
HETATM    5  C   UNL     1      -4.705   1.334 -31.143  1.00  0.00     0.037 A 
HETATM    6  C   UNL     1      -4.845  -0.053 -31.199  1.00  0.00     0.003 A 
HETATM    7  C   UNL     1      -5.441  -0.661 -32.308  1.00  0.00     0.009 A 
BRANCH   4   8
HETATM    8  O   UNL     1      -5.061   3.486 -32.240  1.00  0.00    -0.311 OA
BRANCH   8   9
HETATM    9  C   UNL     1      -4.132   4.088 -33.057  1.00  0.00     0.076 A 
HETATM   10  C   UNL     1      -2.753   4.008 -32.849  1.00  0.00     0.037 A 
HETATM   11  C   UNL     1      -1.879   4.615 -33.755  1.00  0.00     0.003 A 
HETATM   12  C   UNL     1      -2.381   5.276 -34.876  1.00  0.00     0.000 A 
HETATM   13  C   UNL     1      -3.758   5.328 -35.098  1.00  0.00     0.003 A 
HETATM   14  C   UNL     1      -4.632   4.728 -34.192  1.00  0.00     0.037 A 
ENDBRANCH   8   9
ENDBRANCH   4   8
ENDBRANCH   1   2
BRANCH   1  15
HETATM   15  N   UNL     1      -7.017  -1.837 -34.273  1.00  0.00    -0.339 N 
HETATM   16  C   UNL     1      -6.358  -2.912 -34.781  1.00  0.00     0.292 C 
HETATM   17  N   UNL     1      -6.927  -4.088 -34.417  1.00  0.00    -0.254 NA
HETATM   18  O   UNL     1      -5.362  -2.864 -35.484  1.00  0.00    -0.254 OA
HETATM   19  H   UNL     1      -7.305  -4.137 -33.482  1.00  0.00     0.128 HD
HETATM   20  H   UNL     1      -6.379  -4.894 -34.690  1.00  0.00     0.128 HD
HETATM   21  H   UNL     1      -7.979  -1.987 -34.004  1.00  0.00     0.164 HD
ENDBRANCH   1  15
BRANCH   1  22
HETATM   22  C   UNL     1      -7.785   0.324 -35.172  1.00  0.00     0.134 C 
BRANCH  22  23
HETATM   23  C   UNL     1      -8.983   0.502 -34.263  1.00  0.00     0.238 C 
HETATM   24  N   UNL     1      -9.858   1.523 -34.571  1.00  0.00    -0.267 N 
HETATM   25  H   UNL     1      -9.554   2.356 -35.073  1.00  0.00     0.190 HD
HETATM   26  O   UNL     1      -9.208  -0.295 -33.348  1.00  0.00    -0.272 OA
BRANCH  24  27
HETATM   27  N   UNL     1     -10.901   1.750 -33.649  1.00  0.00    -0.262 N 
HETATM   28  C   UNL     1     -12.205   1.741 -34.113  1.00  0.00     0.293 C 
HETATM   29  O   UNL     1     -12.494   1.296 -35.224  1.00  0.00    -0.264 OA
HETATM   30  H   UNL     1     -10.675   2.345 -32.850  1.00  0.00     0.190 HD
BRANCH  28  31
HETATM   31  C   UNL     1     -13.164   2.300 -33.186  1.00  0.00     0.144 A 
HETATM   32  O   UNL     1     -14.356   1.653 -32.978  1.00  0.00    -0.317 OA
HETATM   33  C   UNL     1     -15.063   2.389 -32.082  1.00  0.00     0.143 A 
HETATM   34  C   UNL     1     -14.347   3.498 -31.699  1.00  0.00     0.027 A 
HETATM   35  C   UNL     1     -13.124   3.443 -32.408  1.00  0.00     0.045 A 
ENDBRANCH  28  31
ENDBRANCH  24  27
ENDBRANCH  22  23
ENDBRANCH   1  22
TORSDOF 8
ENDMDL
MODEL 9
REMARK VINA RESULT:      -8.6      2.281      3.019
REMARK  8 active torsions:
REMARK  status: ('A' for Active; 'I' for Inactive)
REMARK    1  A    between atoms: C_4  and  O_5 
REMARK    2  A    between atoms: O_5  and  C_6 
REMARK    3  A    between atoms: C_8  and  C_9 
REMARK    4  A    between atoms: C_9  and  N_10 
REMARK    5  A    between atoms: C_9  and  C_14 
REMARK       I    between atoms: N_10  and  C_11 
REMARK       I    between atoms: C_11  and  N_12 
REMARK    6  A    between atoms: C_14  and  C_15 
REMARK       I    between atoms: C_15  and  N_16 
REMARK    7  A    between atoms: N_16  and  N_17 
REMARK       I    between atoms: N_17  and  C_18 
REMARK    8  A    between atoms: C_18  and  C_19 
ROOT
HETATM    1  C   UNL     1      -7.087   3.495 -32.902  1.00  0.00     0.127 C 
ENDROOT
BRANCH   1   2
HETATM    2  C   UNL     1      -7.237   2.139 -33.568  1.00  0.00    -0.032 A 
HETATM    3  C   UNL     1      -6.135   1.265 -33.552  1.00  0.00     0.046 A 
HETATM    4  C   UNL     1      -6.203   0.006 -34.152  1.00  0.00     0.076 A 
HETATM    5  C   UNL     1      -7.391  -0.416 -34.749  1.00  0.00     0.037 A 
HETATM    6  C   UNL     1      -8.483   0.450 -34.797  1.00  0.00     0.003 A 
HETATM    7  C   UNL     1      -8.404   1.723 -34.224  1.00  0.00     0.009 A 
BRANCH   4   8
HETATM    8  O   UNL     1      -5.086  -0.786 -34.034  1.00  0.00    -0.311 OA
BRANCH   8   9
HETATM    9  C   UNL     1      -5.219  -2.147 -34.189  1.00  0.00     0.076 A 
HETATM   10  C   UNL     1      -6.344  -2.755 -34.750  1.00  0.00     0.037 A 
HETATM   11  C   UNL     1      -6.376  -4.142 -34.909  1.00  0.00     0.003 A 
HETATM   12  C   UNL     1      -5.278  -4.916 -34.531  1.00  0.00     0.000 A 
HETATM   13  C   UNL     1      -4.143  -4.304 -33.999  1.00  0.00     0.003 A 
HETATM   14  C   UNL     1      -4.112  -2.919 -33.834  1.00  0.00     0.037 A 
ENDBRANCH   8   9
ENDBRANCH   4   8
ENDBRANCH   1   2
BRANCH   1  15
HETATM   15  N   UNL     1      -6.261   3.327 -31.712  1.00  0.00    -0.339 N 
HETATM   16  C   UNL     1      -6.815   3.130 -30.487  1.00  0.00     0.292 C 
HETATM   17  N   UNL     1      -5.885   3.059 -29.503  1.00  0.00    -0.254 NA
HETATM   18  O   UNL     1      -8.010   3.020 -30.259  1.00  0.00    -0.254 OA
HETATM   19  H   UNL     1      -5.018   2.596 -29.733  1.00  0.00     0.128 HD
HETATM   20  H   UNL     1      -6.275   2.797 -28.606  1.00  0.00     0.128 HD
HETATM   21  H   UNL     1      -5.334   3.726 -31.726  1.00  0.00     0.164 HD
ENDBRANCH   1  15
BRANCH   1  22
HETATM   22  C   UNL     1      -6.550   4.632 -33.781  1.00  0.00     0.134 C 
BRANCH  22  23
HETATM   23  C   UNL     1      -5.224   5.231 -33.362  1.00  0.00     0.238 C 
HETATM   24  N   UNL     1      -4.096   4.772 -34.010  1.00  0.00    -0.267 N 
HETATM   25  H   UNL     1      -4.053   3.838 -34.416  1.00  0.00     0.190 HD
HETATM   26  O   UNL     1      -5.176   6.154 -32.545  1.00  0.00    -0.272 OA
BRANCH  24  27
HETATM   27  N   UNL     1      -2.861   5.252 -33.526  1.00  0.00    -0.262 N 
HETATM   28  C   UNL     1      -2.176   4.490 -32.595  1.00  0.00     0.293 C 
HETATM   29  O   UNL     1      -2.472   3.315 -32.375  1.00  0.00    -0.264 OA
HETATM   30  H   UNL     1      -2.753   6.267 -33.495  1.00  0.00     0.190 HD
BRANCH  28  31
HETATM   31  C   UNL     1      -1.111   5.201 -31.922  1.00  0.00     0.144 A 
HETATM   32  O   UNL     1      -0.415   4.577 -30.918  1.00  0.00    -0.317 OA
HETATM   33  C   UNL     1       0.506   5.460 -30.456  1.00  0.00     0.143 A 
HETATM   34  C   UNL     1       0.426   6.645 -31.149  1.00  0.00     0.027 A 
HETATM   35  C   UNL     1      -0.615   6.480 -32.094  1.00  0.00     0.045 A 
ENDBRANCH  28  31
ENDBRANCH  24  27
ENDBRANCH  22  23
ENDBRANCH   1  22
TORSDOF 8
ENDMDL
MODEL 10
REMARK VINA RESULT:      -8.6      2.523      9.054
REMARK  8 active torsions:
REMARK  status: ('A' for Active; 'I' for Inactive)
REMARK    1  A    between atoms: C_4  and  O_5 
REMARK    2  A    between atoms: O_5  and  C_6 
REMARK    3  A    between atoms: C_8  and  C_9 
REMARK    4  A    between atoms: C_9  and  N_10 
REMARK    5  A    between atoms: C_9  and  C_14 
REMARK       I    between atoms: N_10  and  C_11 
REMARK       I    between atoms: C_11  and  N_12 
REMARK    6  A    between atoms: C_14  and  C_15 
REMARK       I    between atoms: C_15  and  N_16 
REMARK    7  A    between atoms: N_16  and  N_17 
REMARK       I    between atoms: N_17  and  C_18 
REMARK    8  A    between atoms: C_18  and  C_19 
ROOT
HETATM    1  C   UNL     1      -4.879   4.845 -31.930  1.00  0.00     0.127 C 
ENDROOT
BRANCH   1   2
HETATM    2  C   UNL     1      -3.577   5.079 -32.677  1.00  0.00    -0.032 A 
HETATM    3  C   UNL     1      -2.369   4.880 -31.986  1.00  0.00     0.046 A 
HETATM    4  C   UNL     1      -1.137   5.085 -32.610  1.00  0.00     0.076 A 
HETATM    5  C   UNL     1      -1.093   5.458 -33.953  1.00  0.00     0.037 A 
HETATM    6  C   UNL     1      -2.283   5.686 -34.645  1.00  0.00     0.003 A 
HETATM    7  C   UNL     1      -3.516   5.512 -34.009  1.00  0.00     0.009 A 
BRANCH   4   8
HETATM    8  O   UNL     1      -0.020   4.813 -31.858  1.00  0.00    -0.311 OA
BRANCH   8   9
HETATM    9  C   UNL     1       0.191   5.527 -30.700  1.00  0.00     0.076 A 
HETATM   10  C   UNL     1       0.482   4.935 -29.469  1.00  0.00     0.037 A 
HETATM   11  C   UNL     1       0.725   5.739 -28.353  1.00  0.00     0.003 A 
HETATM   12  C   UNL     1       0.700   7.129 -28.473  1.00  0.00     0.000 A 
HETATM   13  C   UNL     1       0.438   7.719 -29.710  1.00  0.00     0.003 A 
HETATM   14  C   UNL     1       0.190   6.917 -30.824  1.00  0.00     0.037 A 
ENDBRANCH   8   9
ENDBRANCH   4   8
ENDBRANCH   1   2
BRANCH   1  15
HETATM   15  N   UNL     1      -5.938   4.659 -32.915  1.00  0.00    -0.339 N 
HETATM   16  C   UNL     1      -6.845   5.638 -33.176  1.00  0.00     0.292 C 
HETATM   17  N   UNL     1      -7.784   5.248 -34.073  1.00  0.00    -0.254 NA
HETATM   18  O   UNL     1      -6.844   6.753 -32.680  1.00  0.00    -0.254 OA
HETATM   19  H   UNL     1      -7.470   4.653 -34.826  1.00  0.00     0.128 HD
HETATM   20  H   UNL     1      -8.393   6.003 -34.362  1.00  0.00     0.128 HD
HETATM   21  H   UNL     1      -6.230   3.713 -33.115  1.00  0.00     0.164 HD
ENDBRANCH   1  15
BRANCH   1  22
HETATM   22  C   UNL     1      -4.882   3.706 -30.904  1.00  0.00     0.134 C 
BRANCH  22  23
HETATM   23  C   UNL     1      -5.391   2.367 -31.395  1.00  0.00     0.238 C 
HETATM   24  N   UNL     1      -4.457   1.491 -31.910  1.00  0.00    -0.267 N 
HETATM   25  H   UNL     1      -3.591   1.819 -32.334  1.00  0.00     0.190 HD
HETATM   26  O   UNL     1      -6.573   2.046 -31.250  1.00  0.00    -0.272 OA
BRANCH  24  27
HETATM   27  N   UNL     1      -4.962   0.300 -32.470  1.00  0.00    -0.262 N 
HETATM   28  C   UNL     1      -4.096  -0.767 -32.644  1.00  0.00     0.293 C 
HETATM   29  O   UNL     1      -2.992  -0.799 -32.102  1.00  0.00    -0.264 OA
HETATM   30  H   UNL     1      -5.741   0.403 -33.124  1.00  0.00     0.190 HD
BRANCH  28  31
HETATM   31  C   UNL     1      -4.608  -1.805 -33.512  1.00  0.00     0.144 A 
HETATM   32  O   UNL     1      -3.986  -3.027 -33.539  1.00  0.00    -0.317 OA
HETATM   33  C   UNL     1      -4.653  -3.800 -34.434  1.00  0.00     0.143 A 
HETATM   34  C   UNL     1      -5.703  -3.102 -34.983  1.00  0.00     0.027 A 
HETATM   35  C   UNL     1      -5.676  -1.817 -34.391  1.00  0.00     0.045 A 
ENDBRANCH  28  31
ENDBRANCH  24  27
ENDBRANCH  22  23
ENDBRANCH   1  22
TORSDOF 8
ENDMDL
