MODEL 1
REMARK VINA RESULT:      -7.7      0.000      0.000
REMARK  2 active torsions:
REMARK  status: ('A' for Active; 'I' for Inactive)
REMARK    1  A    between atoms: N_8  and  C_9 
REMARK    2  A    between atoms: C_11  and  C_12 
ROOT
HETATM    1  C   UNL     1      -7.126   4.015 -29.516  1.00  0.00     0.269 C 
HETATM    2  N   UNL     1      -6.221   3.312 -30.493  1.00  0.00    -0.075 N 
HETATM    3  H   UNL     1      -5.303   3.287 -30.028  1.00  0.00     0.279 HD
HETATM    4  C   UNL     1      -6.583   1.864 -30.714  1.00  0.00     0.235 C 
HETATM    5  C   UNL     1      -7.798   1.750 -31.626  1.00  0.00     0.039 C 
HETATM    6  C   UNL     1      -7.601   2.464 -32.989  1.00  0.00    -0.021 C 
HETATM    7  C   UNL     1      -6.511   1.758 -33.837  1.00  0.00     0.151 C 
HETATM    8  N   UNL     1      -6.963   0.408 -34.107  1.00  0.00    -0.213 N 
HETATM    9  C   UNL     1      -8.133   0.282 -34.965  1.00  0.00     0.141 C 
HETATM   10  C   UNL     1      -9.299   1.022 -34.296  1.00  0.00     0.021 C 
HETATM   11  C   UNL     1      -8.918   2.431 -33.817  1.00  0.00     0.013 C 
HETATM   12  C   UNL     1      -7.203   3.932 -32.712  1.00  0.00     0.039 C 
HETATM   13  C   UNL     1      -6.006   4.072 -31.774  1.00  0.00     0.235 C 
ENDROOT
BRANCH   8  14
HETATM   14  C   UNL     1      -6.079  -0.635 -33.978  1.00  0.00     0.724 A 
HETATM   15  N   UNL     1      -6.497  -1.851 -34.366  1.00  0.00    -0.058 NA
HETATM   16  C   UNL     1      -5.612  -2.885 -34.337  1.00  0.00     0.160 A 
HETATM   17  C   UNL     1      -4.315  -2.718 -33.901  1.00  0.00     0.057 A 
HETATM   18  C   UNL     1      -3.974  -1.446 -33.525  1.00  0.00     0.139 A 
HETATM   19  N   UNL     1      -4.827  -0.406 -33.569  1.00  0.00    -0.075 NA
BRANCH  16  20
HETATM   20  C   UNL     1      -6.080  -4.250 -34.803  1.00  0.00     0.435 C 
HETATM   21  F   UNL     1      -5.264  -5.267 -34.386  1.00  0.00    -0.165 F 
HETATM   22  F   UNL     1      -7.322  -4.569 -34.345  1.00  0.00    -0.165 F 
HETATM   23  F   UNL     1      -6.140  -4.355 -36.159  1.00  0.00    -0.165 F 
ENDBRANCH  16  20
ENDBRANCH   8  14
TORSDOF 2
ENDMDL
MODEL 2
REMARK VINA RESULT:      -7.7      1.717      3.332
REMARK  2 active torsions:
REMARK  status: ('A' for Active; 'I' for Inactive)
REMARK    1  A    between atoms: N_8  and  C_9 
REMARK    2  A    between atoms: C_11  and  C_12 
ROOT
HETATM    1  C   UNL     1      -9.494   1.835 -34.108  1.00  0.00     0.269 C 
HETATM    2  N   UNL     1      -8.862   0.680 -33.378  1.00  0.00    -0.075 N 
HETATM    3  H   UNL     1      -9.521  -0.101 -33.504  1.00  0.00     0.279 HD
HETATM    4  C   UNL     1      -7.572   0.205 -34.001  1.00  0.00     0.235 C 
HETATM    5  C   UNL     1      -6.432   1.156 -33.661  1.00  0.00     0.039 C 
HETATM    6  C   UNL     1      -6.244   1.353 -32.133  1.00  0.00    -0.021 C 
HETATM    7  C   UNL     1      -5.768   0.042 -31.455  1.00  0.00     0.151 C 
HETATM    8  N   UNL     1      -4.477  -0.305 -32.017  1.00  0.00    -0.213 N 
HETATM    9  C   UNL     1      -3.379   0.602 -31.714  1.00  0.00     0.141 C 
HETATM   10  C   UNL     1      -3.745   1.993 -32.250  1.00  0.00     0.021 C 
HETATM   11  C   UNL     1      -5.162   2.434 -31.851  1.00  0.00     0.013 C 
HETATM   12  C   UNL     1      -7.595   1.808 -31.535  1.00  0.00     0.039 C 
HETATM   13  C   UNL     1      -8.760   0.887 -31.890  1.00  0.00     0.235 C 
ENDROOT
BRANCH   8  14
HETATM   14  C   UNL     1      -4.226  -1.609 -32.369  1.00  0.00     0.724 A 
HETATM   15  N   UNL     1      -4.966  -2.135 -33.358  1.00  0.00    -0.058 NA
HETATM   16  C   UNL     1      -4.676  -3.393 -33.790  1.00  0.00     0.160 A 
HETATM   17  C   UNL     1      -3.664  -4.140 -33.226  1.00  0.00     0.057 A 
HETATM   18  C   UNL     1      -2.962  -3.525 -32.224  1.00  0.00     0.139 A 
HETATM   19  N   UNL     1      -3.217  -2.274 -31.798  1.00  0.00    -0.075 NA
BRANCH  16  20
HETATM   20  C   UNL     1      -5.495  -3.973 -34.928  1.00  0.00     0.435 C 
HETATM   21  F   UNL     1      -5.125  -5.249 -35.257  1.00  0.00    -0.165 F 
HETATM   22  F   UNL     1      -6.825  -4.043 -34.640  1.00  0.00    -0.165 F 
HETATM   23  F   UNL     1      -5.395  -3.249 -36.076  1.00  0.00    -0.165 F 
ENDBRANCH  16  20
ENDBRANCH   8  14
TORSDOF 2
ENDMDL
MODEL 3
REMARK VINA RESULT:      -7.5      1.731      3.382
REMARK  2 active torsions:
REMARK  status: ('A' for Active; 'I' for Inactive)
REMARK    1  A    between atoms: N_8  and  C_9 
REMARK    2  A    between atoms: C_11  and  C_12 
ROOT
HETATM    1  C   UNL     1     -10.093   3.520 -34.572  1.00  0.00     0.269 C 
HETATM    2  N   UNL     1      -9.596   2.176 -34.110  1.00  0.00    -0.075 N 
HETATM    3  H   UNL     1      -9.906   1.518 -34.839  1.00  0.00     0.279 HD
HETATM    4  C   UNL     1      -8.091   2.062 -34.099  1.00  0.00     0.235 C 
HETATM    5  C   UNL     1      -7.509   2.788 -32.893  1.00  0.00     0.039 C 
HETATM    6  C   UNL     1      -8.091   2.285 -31.545  1.00  0.00    -0.021 C 
HETATM    7  C   UNL     1      -7.663   0.821 -31.263  1.00  0.00     0.151 C 
HETATM    8  N   UNL     1      -6.218   0.795 -31.156  1.00  0.00    -0.213 N 
HETATM    9  C   UNL     1      -5.644   1.497 -30.017  1.00  0.00     0.141 C 
HETATM   10  C   UNL     1      -6.062   2.971 -30.103  1.00  0.00     0.021 C 
HETATM   11  C   UNL     1      -7.565   3.152 -30.366  1.00  0.00     0.013 C 
HETATM   12  C   UNL     1      -9.632   2.392 -31.615  1.00  0.00     0.039 C 
HETATM   13  C   UNL     1     -10.236   1.698 -32.834  1.00  0.00     0.235 C 
ENDROOT
BRANCH   8  14
HETATM   14  C   UNL     1      -5.517  -0.208 -31.781  1.00  0.00     0.724 A 
HETATM   15  N   UNL     1      -6.108  -0.822 -32.818  1.00  0.00    -0.058 NA
HETATM   16  C   UNL     1      -5.401  -1.753 -33.515  1.00  0.00     0.160 A 
HETATM   17  C   UNL     1      -4.110  -2.093 -33.169  1.00  0.00     0.057 A 
HETATM   18  C   UNL     1      -3.586  -1.418 -32.098  1.00  0.00     0.139 A 
HETATM   19  N   UNL     1      -4.260  -0.477 -31.412  1.00  0.00    -0.075 NA
BRANCH  16  20
HETATM   20  C   UNL     1      -6.062  -2.423 -34.704  1.00  0.00     0.435 C 
HETATM   21  F   UNL     1      -6.850  -3.485 -34.350  1.00  0.00    -0.165 F 
HETATM   22  F   UNL     1      -6.877  -1.581 -35.399  1.00  0.00    -0.165 F 
HETATM   23  F   UNL     1      -5.165  -2.909 -35.605  1.00  0.00    -0.165 F 
ENDBRANCH  16  20
ENDBRANCH   8  14
TORSDOF 2
ENDMDL
MODEL 4
REMARK VINA RESULT:      -7.4      5.180      7.018
REMARK  2 active torsions:
REMARK  status: ('A' for Active; 'I' for Inactive)
REMARK    1  A    between atoms: N_8  and  C_9 
REMARK    2  A    between atoms: C_11  and  C_12 
ROOT
HETATM    1  C   UNL     1      -0.719   8.844 -28.417  1.00  0.00     0.269 C 
HETATM    2  N   UNL     1      -0.884   7.367 -28.654  1.00  0.00    -0.075 N 
HETATM    3  H   UNL     1      -0.961   6.958 -27.712  1.00  0.00     0.279 HD
HETATM    4  C   UNL     1      -2.178   7.007 -29.341  1.00  0.00     0.235 C 
HETATM    5  C   UNL     1      -2.100   7.325 -30.829  1.00  0.00     0.039 C 
HETATM    6  C   UNL     1      -0.910   6.623 -31.535  1.00  0.00    -0.021 C 
HETATM    7  C   UNL     1      -1.101   5.084 -31.556  1.00  0.00     0.151 C 
HETATM    8  N   UNL     1      -2.298   4.796 -32.319  1.00  0.00    -0.213 N 
HETATM    9  C   UNL     1      -2.246   5.108 -33.741  1.00  0.00     0.141 C 
HETATM   10  C   UNL     1      -1.966   6.609 -33.892  1.00  0.00     0.021 C 
HETATM   11  C   UNL     1      -0.801   7.092 -33.015  1.00  0.00     0.013 C 
HETATM   12  C   UNL     1       0.387   6.996 -30.780  1.00  0.00     0.039 C 
HETATM   13  C   UNL     1       0.321   6.716 -29.280  1.00  0.00     0.235 C 
ENDROOT
BRANCH   8  14
HETATM   14  C   UNL     1      -3.191   3.866 -31.843  1.00  0.00     0.724 A 
HETATM   15  N   UNL     1      -2.904   2.571 -32.050  1.00  0.00    -0.058 NA
HETATM   16  C   UNL     1      -3.721   1.627 -31.509  1.00  0.00     0.160 A 
HETATM   17  C   UNL     1      -4.839   1.968 -30.778  1.00  0.00     0.057 A 
HETATM   18  C   UNL     1      -5.056   3.311 -30.616  1.00  0.00     0.139 A 
HETATM   19  N   UNL     1      -4.247   4.259 -31.123  1.00  0.00    -0.075 NA
BRANCH  16  20
HETATM   20  C   UNL     1      -3.377   0.165 -31.720  1.00  0.00     0.435 C 
HETATM   21  F   UNL     1      -2.366  -0.270 -30.905  1.00  0.00    -0.165 F 
HETATM   22  F   UNL     1      -4.428  -0.666 -31.472  1.00  0.00    -0.165 F 
HETATM   23  F   UNL     1      -2.973  -0.106 -32.991  1.00  0.00    -0.165 F 
ENDBRANCH  16  20
ENDBRANCH   8  14
TORSDOF 2
ENDMDL
MODEL 5
REMARK VINA RESULT:      -7.4      3.480      5.507
REMARK  2 active torsions:
REMARK  status: ('A' for Active; 'I' for Inactive)
REMARK    1  A    between atoms: N_8  and  C_9 
REMARK    2  A    between atoms: C_11  and  C_12 
ROOT
HETATM    1  C   UNL     1      -3.633   3.410 -31.195  1.00  0.00     0.269 C 
HETATM    2  N   UNL     1      -5.118   3.189 -31.091  1.00  0.00    -0.075 N 
HETATM    3  H   UNL     1      -5.483   4.057 -30.672  1.00  0.00     0.279 HD
HETATM    4  C   UNL     1      -5.808   3.086 -32.430  1.00  0.00     0.235 C 
HETATM    5  C   UNL     1      -5.562   1.719 -33.054  1.00  0.00     0.039 C 
HETATM    6  C   UNL     1      -6.003   0.547 -32.136  1.00  0.00    -0.021 C 
HETATM    7  C   UNL     1      -7.542   0.531 -31.951  1.00  0.00     0.151 C 
HETATM    8  N   UNL     1      -8.144   0.322 -33.252  1.00  0.00    -0.213 N 
HETATM    9  C   UNL     1      -7.906  -0.975 -33.870  1.00  0.00     0.141 C 
HETATM   10  C   UNL     1      -6.391  -1.154 -34.040  1.00  0.00     0.021 C 
HETATM   11  C   UNL     1      -5.602  -0.818 -32.765  1.00  0.00     0.013 C 
HETATM   12  C   UNL     1      -5.297   0.712 -30.771  1.00  0.00     0.039 C 
HETATM   13  C   UNL     1      -5.502   2.087 -30.140  1.00  0.00     0.235 C 
ENDROOT
BRANCH   8  14
HETATM   14  C   UNL     1      -9.229   1.079 -33.620  1.00  0.00     0.724 A 
HETATM   15  N   UNL     1     -10.437   0.495 -33.566  1.00  0.00    -0.058 NA
HETATM   16  C   UNL     1     -11.538   1.249 -33.834  1.00  0.00     0.160 A 
HETATM   17  C   UNL     1     -11.441   2.580 -34.180  1.00  0.00     0.057 A 
HETATM   18  C   UNL     1     -10.171   3.093 -34.211  1.00  0.00     0.139 A 
HETATM   19  N   UNL     1      -9.073   2.371 -33.926  1.00  0.00    -0.075 NA
BRANCH  16  20
HETATM   20  C   UNL     1     -12.903   0.593 -33.743  1.00  0.00     0.435 C 
HETATM   21  F   UNL     1     -12.849  -0.693 -33.278  1.00  0.00    -0.165 F 
HETATM   22  F   UNL     1     -13.749   1.250 -32.900  1.00  0.00    -0.165 F 
HETATM   23  F   UNL     1     -13.542   0.528 -34.943  1.00  0.00    -0.165 F 
ENDBRANCH  16  20
ENDBRANCH   8  14
TORSDOF 2
ENDMDL
MODEL 6
REMARK VINA RESULT:      -7.3      7.806      9.851
REMARK  2 active torsions:
REMARK  status: ('A' for Active; 'I' for Inactive)
REMARK    1  A    between atoms: N_8  and  C_9 
REMARK    2  A    between atoms: C_11  and  C_12 
ROOT
HETATM    1  C   UNL     1      -5.327   1.820 -32.670  1.00  0.00     0.269 C 
HETATM    2  N   UNL     1      -4.740   2.827 -31.717  1.00  0.00    -0.075 N 
HETATM    3  H   UNL     1      -4.966   2.463 -30.780  1.00  0.00     0.279 HD
HETATM    4  C   UNL     1      -3.233   2.887 -31.757  1.00  0.00     0.235 C 
HETATM    5  C   UNL     1      -2.761   3.650 -32.988  1.00  0.00     0.039 C 
HETATM    6  C   UNL     1      -3.354   5.081 -33.077  1.00  0.00    -0.021 C 
HETATM    7  C   UNL     1      -2.819   5.980 -31.932  1.00  0.00     0.151 C 
HETATM    8  N   UNL     1      -1.382   6.087 -32.086  1.00  0.00    -0.213 N 
HETATM    9  C   UNL     1      -0.913   6.800 -33.267  1.00  0.00     0.141 C 
HETATM   10  C   UNL     1      -1.447   6.073 -34.509  1.00  0.00     0.021 C 
HETATM   11  C   UNL     1      -2.948   5.757 -34.418  1.00  0.00     0.013 C 
HETATM   12  C   UNL     1      -4.894   4.971 -33.001  1.00  0.00     0.039 C 
HETATM   13  C   UNL     1      -5.390   4.183 -31.791  1.00  0.00     0.235 C 
ENDROOT
BRANCH   8  14
HETATM   14  C   UNL     1      -0.576   5.968 -30.980  1.00  0.00     0.724 A 
HETATM   15  N   UNL     1      -0.437   7.050 -30.198  1.00  0.00    -0.058 NA
HETATM   16  C   UNL     1       0.279   6.934 -29.046  1.00  0.00     0.160 A 
HETATM   17  C   UNL     1       0.877   5.748 -28.679  1.00  0.00     0.057 A 
HETATM   18  C   UNL     1       0.684   4.696 -29.535  1.00  0.00     0.139 A 
HETATM   19  N   UNL     1      -0.040   4.784 -30.666  1.00  0.00    -0.075 NA
BRANCH  16  20
HETATM   20  C   UNL     1       0.409   8.151 -28.150  1.00  0.00     0.435 C 
HETATM   21  F   UNL     1       1.667   8.692 -28.161  1.00  0.00    -0.165 F 
HETATM   22  F   UNL     1      -0.427   9.165 -28.510  1.00  0.00    -0.165 F 
HETATM   23  F   UNL     1       0.133   7.880 -26.845  1.00  0.00    -0.165 F 
ENDBRANCH  16  20
ENDBRANCH   8  14
TORSDOF 2
ENDMDL
MODEL 7
REMARK VINA RESULT:      -7.2     13.812     15.160
REMARK  2 active torsions:
REMARK  status: ('A' for Active; 'I' for Inactive)
REMARK    1  A    between atoms: N_8  and  C_9 
REMARK    2  A    between atoms: C_11  and  C_12 
ROOT
HETATM    1  C   UNL     1     -10.875 -14.670 -41.069  1.00  0.00     0.269 C 
HETATM    2  N   UNL     1     -10.267 -14.296 -39.744  1.00  0.00    -0.075 N 
HETATM    3  H   UNL     1     -10.898 -14.706 -39.041  1.00  0.00     0.279 HD
HETATM    4  C   UNL     1      -8.928 -14.946 -39.490  1.00  0.00     0.235 C 
HETATM    5  C   UNL     1      -7.835 -14.247 -40.287  1.00  0.00     0.039 C 
HETATM    6  C   UNL     1      -7.751 -12.725 -39.994  1.00  0.00    -0.021 C 
HETATM    7  C   UNL     1      -7.291 -12.461 -38.537  1.00  0.00     0.151 C 
HETATM    8  N   UNL     1      -5.959 -13.012 -38.386  1.00  0.00    -0.213 N 
HETATM    9  C   UNL     1      -4.904 -12.365 -39.153  1.00  0.00     0.141 C 
HETATM   10  C   UNL     1      -5.266 -12.462 -40.642  1.00  0.00     0.021 C 
HETATM   11  C   UNL     1      -6.715 -12.044 -40.934  1.00  0.00     0.013 C 
HETATM   12  C   UNL     1      -9.149 -12.109 -40.237  1.00  0.00     0.039 C 
HETATM   13  C   UNL     1     -10.267 -12.815 -39.473  1.00  0.00     0.235 C 
ENDROOT
BRANCH   8  14
HETATM   14  C   UNL     1      -5.655 -13.737 -37.259  1.00  0.00     0.724 A 
HETATM   15  N   UNL     1      -6.228 -13.355 -36.106  1.00  0.00    -0.058 NA
HETATM   16  C   UNL     1      -6.020 -14.110 -34.993  1.00  0.00     0.160 A 
HETATM   17  C   UNL     1      -5.223 -15.235 -35.017  1.00  0.00     0.057 A 
HETATM   18  C   UNL     1      -4.679 -15.550 -36.234  1.00  0.00     0.139 A 
HETATM   19  N   UNL     1      -4.892 -14.831 -37.351  1.00  0.00    -0.075 NA
BRANCH  16  20
HETATM   20  C   UNL     1      -6.692 -13.692 -33.700  1.00  0.00     0.435 C 
HETATM   21  F   UNL     1      -7.491 -14.670 -33.171  1.00  0.00    -0.165 F 
HETATM   22  F   UNL     1      -5.801 -13.380 -32.717  1.00  0.00    -0.165 F 
HETATM   23  F   UNL     1      -7.491 -12.600 -33.846  1.00  0.00    -0.165 F 
ENDBRANCH  16  20
ENDBRANCH   8  14
TORSDOF 2
ENDMDL
MODEL 8
REMARK VINA RESULT:      -7.2      2.073      2.657
REMARK  2 active torsions:
REMARK  status: ('A' for Active; 'I' for Inactive)
REMARK    1  A    between atoms: N_8  and  C_9 
REMARK    2  A    between atoms: C_11  and  C_12 
ROOT
HETATM    1  C   UNL     1      -6.536   4.241 -29.774  1.00  0.00     0.269 C 
HETATM    2  N   UNL     1      -5.746   3.482 -30.806  1.00  0.00    -0.075 N 
HETATM    3  H   UNL     1      -4.788   3.449 -30.430  1.00  0.00     0.279 HD
HETATM    4  C   UNL     1      -6.160   2.037 -30.940  1.00  0.00     0.235 C 
HETATM    5  C   UNL     1      -7.459   1.924 -31.727  1.00  0.00     0.039 C 
HETATM    6  C   UNL     1      -7.378   2.586 -33.128  1.00  0.00    -0.021 C 
HETATM    7  C   UNL     1      -6.390   1.824 -34.049  1.00  0.00     0.151 C 
HETATM    8  N   UNL     1      -6.897   0.478 -34.227  1.00  0.00    -0.213 N 
HETATM    9  C   UNL     1      -8.147   0.353 -34.964  1.00  0.00     0.141 C 
HETATM   10  C   UNL     1      -9.226   1.146 -34.214  1.00  0.00     0.021 C 
HETATM   11  C   UNL     1      -8.768   2.560 -33.825  1.00  0.00     0.013 C 
HETATM   12  C   UNL     1      -6.921   4.052 -32.943  1.00  0.00     0.039 C 
HETATM   13  C   UNL     1      -5.637   4.192 -32.129  1.00  0.00     0.235 C 
ENDROOT
BRANCH   8  14
HETATM   14  C   UNL     1      -6.029  -0.583 -34.145  1.00  0.00     0.724 A 
HETATM   15  N   UNL     1      -5.067  -0.524 -33.209  1.00  0.00    -0.058 NA
HETATM   16  C   UNL     1      -4.252  -1.601 -33.043  1.00  0.00     0.160 A 
HETATM   17  C   UNL     1      -4.375  -2.733 -33.821  1.00  0.00     0.057 A 
HETATM   18  C   UNL     1      -5.382  -2.706 -34.750  1.00  0.00     0.139 A 
HETATM   19  N   UNL     1      -6.213  -1.661 -34.914  1.00  0.00    -0.075 NA
BRANCH  16  20
HETATM   20  C   UNL     1      -3.187  -1.542 -31.965  1.00  0.00     0.435 C 
HETATM   21  F   UNL     1      -3.574  -0.821 -30.868  1.00  0.00    -0.165 F 
HETATM   22  F   UNL     1      -2.847  -2.773 -31.490  1.00  0.00    -0.165 F 
HETATM   23  F   UNL     1      -2.029  -0.971 -32.395  1.00  0.00    -0.165 F 
ENDBRANCH  16  20
ENDBRANCH   8  14
TORSDOF 2
ENDMDL
MODEL 9
REMARK VINA RESULT:      -7.1      7.026      9.501
REMARK  2 active torsions:
REMARK  status: ('A' for Active; 'I' for Inactive)
REMARK    1  A    between atoms: N_8  and  C_9 
REMARK    2  A    between atoms: C_11  and  C_12 
ROOT
HETATM    1  C   UNL     1      -5.123   1.727 -32.545  1.00  0.00     0.269 C 
HETATM    2  N   UNL     1      -5.079   3.125 -31.987  1.00  0.00    -0.075 N 
HETATM    3  H   UNL     1      -5.661   3.086 -31.138  1.00  0.00     0.279 HD
HETATM    4  C   UNL     1      -3.711   3.538 -31.502  1.00  0.00     0.235 C 
HETATM    5  C   UNL     1      -2.809   3.887 -32.678  1.00  0.00     0.039 C 
HETATM    6  C   UNL     1      -3.405   4.991 -33.591  1.00  0.00    -0.021 C 
HETATM    7  C   UNL     1      -3.483   6.349 -32.847  1.00  0.00     0.151 C 
HETATM    8  N   UNL     1      -2.133   6.744 -32.502  1.00  0.00    -0.213 N 
HETATM    9  C   UNL     1      -1.252   7.067 -33.616  1.00  0.00     0.141 C 
HETATM   10  C   UNL     1      -1.143   5.827 -34.514  1.00  0.00     0.021 C 
HETATM   11  C   UNL     1      -2.509   5.205 -34.844  1.00  0.00     0.013 C 
HETATM   12  C   UNL     1      -4.815   4.539 -34.038  1.00  0.00     0.039 C 
HETATM   13  C   UNL     1      -5.728   4.153 -32.875  1.00  0.00     0.235 C 
ENDROOT
BRANCH   8  14
HETATM   14  C   UNL     1      -1.878   7.243 -31.247  1.00  0.00     0.724 A 
HETATM   15  N   UNL     1      -1.047   6.540 -30.460  1.00  0.00    -0.058 NA
HETATM   16  C   UNL     1      -0.704   7.057 -29.249  1.00  0.00     0.160 A 
HETATM   17  C   UNL     1      -1.203   8.264 -28.806  1.00  0.00     0.057 A 
HETATM   18  C   UNL     1      -2.043   8.912 -29.672  1.00  0.00     0.139 A 
HETATM   19  N   UNL     1      -2.375   8.429 -30.883  1.00  0.00    -0.075 NA
BRANCH  16  20
HETATM   20  C   UNL     1       0.258   6.275 -28.376  1.00  0.00     0.435 C 
HETATM   21  F   UNL     1      -0.325   5.794 -27.234  1.00  0.00    -0.165 F 
HETATM   22  F   UNL     1       0.777   5.184 -29.006  1.00  0.00    -0.165 F 
HETATM   23  F   UNL     1       1.324   7.016 -27.965  1.00  0.00    -0.165 F 
ENDBRANCH  16  20
ENDBRANCH   8  14
TORSDOF 2
ENDMDL
MODEL 10
REMARK VINA RESULT:      -6.9     14.262     15.587
REMARK  2 active torsions:
REMARK  status: ('A' for Active; 'I' for Inactive)
REMARK    1  A    between atoms: N_8  and  C_9 
REMARK    2  A    between atoms: C_11  and  C_12 
ROOT
HETATM    1  C   UNL     1     -10.863 -14.745 -41.196  1.00  0.00     0.269 C 
HETATM    2  N   UNL     1     -10.363 -14.343 -39.834  1.00  0.00    -0.075 N 
HETATM    3  H   UNL     1     -11.043 -14.748 -39.175  1.00  0.00     0.279 HD
HETATM    4  C   UNL     1      -9.043 -14.976 -39.466  1.00  0.00     0.235 C 
HETATM    5  C   UNL     1      -7.896 -14.280 -40.188  1.00  0.00     0.039 C 
HETATM    6  C   UNL     1      -7.849 -12.753 -39.916  1.00  0.00    -0.021 C 
HETATM    7  C   UNL     1      -7.505 -12.460 -38.433  1.00  0.00     0.151 C 
HETATM    8  N   UNL     1      -6.184 -12.996 -38.169  1.00  0.00    -0.213 N 
HETATM    9  C   UNL     1      -5.078 -12.351 -38.863  1.00  0.00     0.141 C 
HETATM   10  C   UNL     1      -5.322 -12.477 -40.374  1.00  0.00     0.021 C 
HETATM   11  C   UNL     1      -6.748 -12.078 -40.784  1.00  0.00     0.013 C 
HETATM   12  C   UNL     1      -9.228 -12.155 -40.278  1.00  0.00     0.039 C 
HETATM   13  C   UNL     1     -10.396 -12.858 -39.590  1.00  0.00     0.235 C 
ENDROOT
BRANCH   8  14
HETATM   14  C   UNL     1      -5.963 -13.698 -37.010  1.00  0.00     0.724 A 
HETATM   15  N   UNL     1      -6.748 -14.761 -36.772  1.00  0.00    -0.058 NA
HETATM   16  C   UNL     1      -6.491 -15.531 -35.679  1.00  0.00     0.160 A 
HETATM   17  C   UNL     1      -5.467 -15.233 -34.806  1.00  0.00     0.057 A 
HETATM   18  C   UNL     1      -4.717 -14.131 -35.125  1.00  0.00     0.139 A 
HETATM   19  N   UNL     1      -4.940 -13.372 -36.213  1.00  0.00    -0.075 NA
BRANCH  16  20
HETATM   20  C   UNL     1      -7.361 -16.748 -35.431  1.00  0.00     0.435 C 
HETATM   21  F   UNL     1      -8.329 -16.918 -36.384  1.00  0.00    -0.165 F 
HETATM   22  F   UNL     1      -6.652 -17.911 -35.419  1.00  0.00    -0.165 F 
HETATM   23  F   UNL     1      -8.019 -16.695 -34.240  1.00  0.00    -0.165 F 
ENDBRANCH  16  20
ENDBRANCH   8  14
TORSDOF 2
ENDMDL
