MODEL 1
REMARK VINA RESULT:      -8.4      0.000      0.000
REMARK  3 active torsions:
REMARK  status: ('A' for Active; 'I' for Inactive)
REMARK    1  A    between atoms: C_3  and  N_4 
REMARK       I    between atoms: N_4  and  C_5 
REMARK    2  A    between atoms: C_5  and  C_6 
REMARK    3  A    between atoms: C_6  and  C_7 
ROOT
HETATM    1  C   UNL     1      -7.117   1.719 -33.354  1.00  0.00     0.286 C 
HETATM    2  N   UNL     1      -7.955   1.602 -32.080  1.00  0.00    -0.056 N 
HETATM    3  H   UNL     1      -7.763   0.645 -31.716  1.00  0.00     0.278 HD
HETATM    4  H   UNL     1      -7.632   2.255 -31.357  1.00  0.00     0.278 HD
HETATM    5  C   UNL     1      -9.440   1.681 -32.273  1.00  0.00     0.209 C 
HETATM    6  C   UNL     1      -9.868   0.661 -33.354  1.00  0.00     0.115 C 
HETATM    7  N   UNL     1      -9.082   0.788 -34.581  1.00  0.00    -0.353 N 
HETATM    8  C   UNL     1      -7.724   0.995 -34.576  1.00  0.00     0.249 C 
HETATM    9  O   UNL     1      -7.054   0.698 -35.560  1.00  0.00    -0.271 OA
HETATM   10  C   UNL     1      -9.859   3.114 -32.604  1.00  0.00     0.035 C 
HETATM   11  C   UNL     1     -11.363   3.187 -32.864  1.00  0.00     0.002 C 
HETATM   12  C   UNL     1     -11.795   2.212 -33.958  1.00  0.00     0.002 C 
HETATM   13  C   UNL     1     -11.368   0.778 -33.643  1.00  0.00     0.027 C 
HETATM   14  H   UNL     1      -9.385   0.259 -35.396  1.00  0.00     0.163 HD
ENDROOT
BRANCH   1  15
HETATM   15  C   UNL     1      -5.681   1.230 -33.099  1.00  0.00     0.146 C 
BRANCH  15  16
HETATM   16  C   UNL     1      -5.679  -0.270 -32.892  1.00  0.00     0.224 C 
HETATM   17  N   UNL     1      -4.874  -0.961 -33.763  1.00  0.00    -0.327 N 
HETATM   18  H   UNL     1      -4.240  -0.433 -34.349  1.00  0.00     0.169 HD
HETATM   19  O   UNL     1      -6.294  -0.731 -31.927  1.00  0.00    -0.273 OA
BRANCH  17  20
HETATM   20  C   UNL     1      -4.768  -2.371 -33.859  1.00  0.00     0.040 A 
HETATM   21  C   UNL     1      -3.835  -3.049 -33.047  1.00  0.00    -0.035 A 
HETATM   22  C   UNL     1      -2.979  -2.345 -32.029  1.00  0.00     0.050 C 
HETATM   23  C   UNL     1      -3.697  -4.443 -33.178  1.00  0.00     0.009 A 
HETATM   24  C   UNL     1      -4.469  -5.158 -34.092  1.00  0.00     0.001 A 
HETATM   25  C   UNL     1      -5.387  -4.488 -34.891  1.00  0.00     0.002 A 
HETATM   26  C   UNL     1      -5.536  -3.105 -34.774  1.00  0.00     0.030 A 
ENDBRANCH  17  20
ENDBRANCH  15  16
ENDBRANCH   1  15
TORSDOF 3
ENDMDL
MODEL 2
REMARK VINA RESULT:      -8.4      1.816      2.954
REMARK  3 active torsions:
REMARK  status: ('A' for Active; 'I' for Inactive)
REMARK    1  A    between atoms: C_3  and  N_4 
REMARK       I    between atoms: N_4  and  C_5 
REMARK    2  A    between atoms: C_5  and  C_6 
REMARK    3  A    between atoms: C_6  and  C_7 
ROOT
HETATM    1  C   UNL     1      -9.528   1.415 -33.577  1.00  0.00     0.286 C 
HETATM    2  N   UNL     1     -10.286   1.805 -34.846  1.00  0.00    -0.056 N 
HETATM    3  H   UNL     1      -9.861   2.707 -35.149  1.00  0.00     0.278 HD
HETATM    4  H   UNL     1     -10.116   1.137 -35.606  1.00  0.00     0.278 HD
HETATM    5  C   UNL     1     -11.750   2.077 -34.666  1.00  0.00     0.209 C 
HETATM    6  C   UNL     1     -11.941   3.105 -33.526  1.00  0.00     0.115 C 
HETATM    7  N   UNL     1     -11.234   2.719 -32.306  1.00  0.00    -0.353 N 
HETATM    8  C   UNL     1      -9.967   2.191 -32.316  1.00  0.00     0.249 C 
HETATM    9  O   UNL     1      -9.265   2.258 -31.312  1.00  0.00    -0.271 OA
HETATM   10  C   UNL     1     -12.510   0.771 -34.427  1.00  0.00     0.035 C 
HETATM   11  C   UNL     1     -13.992   1.050 -34.180  1.00  0.00     0.002 C 
HETATM   12  C   UNL     1     -14.197   2.035 -33.031  1.00  0.00     0.002 C 
HETATM   13  C   UNL     1     -13.430   3.338 -33.253  1.00  0.00     0.027 C 
HETATM   14  H   UNL     1     -11.417   3.258 -31.461  1.00  0.00     0.163 HD
ENDROOT
BRANCH   1  15
HETATM   15  C   UNL     1      -8.011   1.555 -33.794  1.00  0.00     0.146 C 
BRANCH  15  16
HETATM   16  C   UNL     1      -7.473   0.312 -34.471  1.00  0.00     0.224 C 
HETATM   17  N   UNL     1      -7.044  -0.664 -33.606  1.00  0.00    -0.327 N 
HETATM   18  H   UNL     1      -7.258  -0.558 -32.622  1.00  0.00     0.169 HD
HETATM   19  O   UNL     1      -7.555   0.229 -35.699  1.00  0.00    -0.273 OA
BRANCH  17  20
HETATM   20  C   UNL     1      -6.403  -1.875 -33.968  1.00  0.00     0.040 A 
HETATM   21  C   UNL     1      -4.998  -1.964 -33.881  1.00  0.00    -0.035 A 
HETATM   22  C   UNL     1      -4.143  -0.841 -33.360  1.00  0.00     0.050 C 
HETATM   23  C   UNL     1      -4.360  -3.150 -34.286  1.00  0.00     0.009 A 
HETATM   24  C   UNL     1      -5.095  -4.233 -34.765  1.00  0.00     0.001 A 
HETATM   25  C   UNL     1      -6.478  -4.144 -34.850  1.00  0.00     0.002 A 
HETATM   26  C   UNL     1      -7.127  -2.973 -34.453  1.00  0.00     0.030 A 
ENDBRANCH  17  20
ENDBRANCH  15  16
ENDBRANCH   1  15
TORSDOF 3
ENDMDL
MODEL 3
REMARK VINA RESULT:      -8.2      4.000      6.147
REMARK  3 active torsions:
REMARK  status: ('A' for Active; 'I' for Inactive)
REMARK    1  A    between atoms: C_3  and  N_4 
REMARK       I    between atoms: N_4  and  C_5 
REMARK    2  A    between atoms: C_5  and  C_6 
REMARK    3  A    between atoms: C_6  and  C_7 
ROOT
HETATM    1  C   UNL     1      -4.946   3.974 -32.201  1.00  0.00     0.286 C 
HETATM    2  N   UNL     1      -3.822   3.276 -32.967  1.00  0.00    -0.056 N 
HETATM    3  H   UNL     1      -3.634   2.401 -32.434  1.00  0.00     0.278 HD
HETATM    4  H   UNL     1      -4.129   2.983 -33.901  1.00  0.00     0.278 HD
HETATM    5  C   UNL     1      -2.519   4.017 -33.020  1.00  0.00     0.209 C 
HETATM    6  C   UNL     1      -2.098   4.409 -31.584  1.00  0.00     0.115 C 
HETATM    7  N   UNL     1      -3.166   5.097 -30.860  1.00  0.00    -0.353 N 
HETATM    8  C   UNL     1      -4.480   4.704 -30.922  1.00  0.00     0.249 C 
HETATM    9  O   UNL     1      -5.259   5.018 -30.028  1.00  0.00    -0.271 OA
HETATM   10  C   UNL     1      -2.626   5.218 -33.961  1.00  0.00     0.035 C 
HETATM   11  C   UNL     1      -1.320   6.011 -33.968  1.00  0.00     0.002 C 
HETATM   12  C   UNL     1      -0.911   6.439 -32.560  1.00  0.00     0.002 C 
HETATM   13  C   UNL     1      -0.816   5.247 -31.607  1.00  0.00     0.027 C 
HETATM   14  H   UNL     1      -2.936   5.520 -29.963  1.00  0.00     0.163 HD
ENDROOT
BRANCH   1  15
HETATM   15  C   UNL     1      -6.071   2.978 -31.872  1.00  0.00     0.146 C 
BRANCH  15  16
HETATM   16  C   UNL     1      -6.102   1.878 -32.911  1.00  0.00     0.224 C 
HETATM   17  N   UNL     1      -5.977   0.610 -32.398  1.00  0.00    -0.327 N 
HETATM   18  H   UNL     1      -6.036   0.493 -31.394  1.00  0.00     0.169 HD
HETATM   19  O   UNL     1      -6.333   2.182 -34.084  1.00  0.00    -0.273 OA
BRANCH  17  20
HETATM   20  C   UNL     1      -5.869  -0.586 -33.150  1.00  0.00     0.040 A 
HETATM   21  C   UNL     1      -4.594  -1.145 -33.376  1.00  0.00    -0.035 A 
HETATM   22  C   UNL     1      -3.334  -0.558 -32.799  1.00  0.00     0.050 C 
HETATM   23  C   UNL     1      -4.483  -2.306 -34.162  1.00  0.00     0.009 A 
HETATM   24  C   UNL     1      -5.612  -2.909 -34.715  1.00  0.00     0.001 A 
HETATM   25  C   UNL     1      -6.867  -2.357 -34.492  1.00  0.00     0.002 A 
HETATM   26  C   UNL     1      -6.994  -1.205 -33.714  1.00  0.00     0.030 A 
ENDBRANCH  17  20
ENDBRANCH  15  16
ENDBRANCH   1  15
TORSDOF 3
ENDMDL
MODEL 4
REMARK VINA RESULT:      -8.2      4.031      5.987
REMARK  3 active torsions:
REMARK  status: ('A' for Active; 'I' for Inactive)
REMARK    1  A    between atoms: C_3  and  N_4 
REMARK       I    between atoms: N_4  and  C_5 
REMARK    2  A    between atoms: C_5  and  C_6 
REMARK    3  A    between atoms: C_6  and  C_7 
ROOT
HETATM    1  C   UNL     1      -4.477   4.065 -31.641  1.00  0.00     0.286 C 
HETATM    2  N   UNL     1      -4.883   4.973 -32.802  1.00  0.00    -0.056 N 
HETATM    3  H   UNL     1      -5.262   4.329 -33.530  1.00  0.00     0.278 HD
HETATM    4  H   UNL     1      -5.656   5.595 -32.540  1.00  0.00     0.278 HD
HETATM    5  C   UNL     1      -3.763   5.725 -33.457  1.00  0.00     0.209 C 
HETATM    6  C   UNL     1      -2.644   4.732 -33.849  1.00  0.00     0.115 C 
HETATM    7  N   UNL     1      -2.240   3.880 -32.732  1.00  0.00    -0.353 N 
HETATM    8  C   UNL     1      -3.140   3.322 -31.858  1.00  0.00     0.249 C 
HETATM    9  O   UNL     1      -2.833   2.325 -31.212  1.00  0.00    -0.271 OA
HETATM   10  C   UNL     1      -3.272   6.850 -32.545  1.00  0.00     0.035 C 
HETATM   11  C   UNL     1      -2.089   7.579 -33.181  1.00  0.00     0.002 C 
HETATM   12  C   UNL     1      -0.959   6.615 -33.539  1.00  0.00     0.002 C 
HETATM   13  C   UNL     1      -1.443   5.478 -34.439  1.00  0.00     0.027 C 
HETATM   14  H   UNL     1      -1.414   3.297 -32.853  1.00  0.00     0.163 HD
ENDROOT
BRANCH   1  15
HETATM   15  C   UNL     1      -5.602   3.065 -31.322  1.00  0.00     0.146 C 
BRANCH  15  16
HETATM   16  C   UNL     1      -5.754   2.083 -32.464  1.00  0.00     0.224 C 
HETATM   17  N   UNL     1      -5.723   0.764 -32.086  1.00  0.00    -0.327 N 
HETATM   18  H   UNL     1      -5.763   0.550 -31.097  1.00  0.00     0.169 HD
HETATM   19  O   UNL     1      -5.992   2.524 -33.592  1.00  0.00    -0.273 OA
BRANCH  17  20
HETATM   20  C   UNL     1      -5.736  -0.354 -32.957  1.00  0.00     0.040 A 
HETATM   21  C   UNL     1      -4.554  -1.101 -33.138  1.00  0.00    -0.035 A 
HETATM   22  C   UNL     1      -3.280  -0.800 -32.397  1.00  0.00     0.050 C 
HETATM   23  C   UNL     1      -4.557  -2.180 -34.040  1.00  0.00     0.009 A 
HETATM   24  C   UNL     1      -5.708  -2.521 -34.749  1.00  0.00     0.001 A 
HETATM   25  C   UNL     1      -6.871  -1.784 -34.569  1.00  0.00     0.002 A 
HETATM   26  C   UNL     1      -6.885  -0.709 -33.679  1.00  0.00     0.030 A 
ENDBRANCH  17  20
ENDBRANCH  15  16
ENDBRANCH   1  15
TORSDOF 3
ENDMDL
MODEL 5
REMARK VINA RESULT:      -8.0      4.087      6.192
REMARK  3 active torsions:
REMARK  status: ('A' for Active; 'I' for Inactive)
REMARK    1  A    between atoms: C_3  and  N_4 
REMARK       I    between atoms: N_4  and  C_5 
REMARK    2  A    between atoms: C_5  and  C_6 
REMARK    3  A    between atoms: C_6  and  C_7 
ROOT
HETATM    1  C   UNL     1      -4.761   3.874 -32.314  1.00  0.00     0.286 C 
HETATM    2  N   UNL     1      -4.127   4.454 -31.050  1.00  0.00    -0.056 N 
HETATM    3  H   UNL     1      -4.884   5.008 -30.597  1.00  0.00     0.278 HD
HETATM    4  H   UNL     1      -3.874   3.716 -30.384  1.00  0.00     0.278 HD
HETATM    5  C   UNL     1      -2.993   5.409 -31.275  1.00  0.00     0.209 C 
HETATM    6  C   UNL     1      -3.443   6.509 -32.267  1.00  0.00     0.115 C 
HETATM    7  N   UNL     1      -4.028   5.952 -33.485  1.00  0.00    -0.353 N 
HETATM    8  C   UNL     1      -4.890   4.884 -33.476  1.00  0.00     0.249 C 
HETATM    9  O   UNL     1      -5.657   4.704 -34.417  1.00  0.00    -0.271 OA
HETATM   10  C   UNL     1      -1.746   4.657 -31.743  1.00  0.00     0.035 C 
HETATM   11  C   UNL     1      -0.608   5.633 -32.035  1.00  0.00     0.002 C 
HETATM   12  C   UNL     1      -1.026   6.703 -33.042  1.00  0.00     0.002 C 
HETATM   13  C   UNL     1      -2.280   7.452 -32.591  1.00  0.00     0.027 C 
HETATM   14  H   UNL     1      -4.221   6.592 -34.255  1.00  0.00     0.163 HD
ENDROOT
BRANCH   1  15
HETATM   15  C   UNL     1      -6.129   3.249 -31.991  1.00  0.00     0.146 C 
BRANCH  15  16
HETATM   16  C   UNL     1      -6.046   1.742 -32.113  1.00  0.00     0.224 C 
HETATM   17  N   UNL     1      -5.689   1.293 -33.361  1.00  0.00    -0.327 N 
HETATM   18  H   UNL     1      -5.361   1.972 -34.036  1.00  0.00     0.169 HD
HETATM   19  O   UNL     1      -6.196   1.060 -31.096  1.00  0.00    -0.273 OA
BRANCH  17  20
HETATM   20  C   UNL     1      -5.640  -0.061 -33.776  1.00  0.00     0.040 A 
HETATM   21  C   UNL     1      -6.724  -0.599 -34.501  1.00  0.00    -0.035 A 
HETATM   22  C   UNL     1      -7.917   0.222 -34.909  1.00  0.00     0.050 C 
HETATM   23  C   UNL     1      -6.695  -1.955 -34.871  1.00  0.00     0.009 A 
HETATM   24  C   UNL     1      -5.613  -2.768 -34.536  1.00  0.00     0.001 A 
HETATM   25  C   UNL     1      -4.546  -2.236 -33.823  1.00  0.00     0.002 A 
HETATM   26  C   UNL     1      -4.560  -0.892 -33.447  1.00  0.00     0.030 A 
ENDBRANCH  17  20
ENDBRANCH  15  16
ENDBRANCH   1  15
TORSDOF 3
ENDMDL
MODEL 6
REMARK VINA RESULT:      -7.7      1.763      2.859
REMARK  3 active torsions:
REMARK  status: ('A' for Active; 'I' for Inactive)
REMARK    1  A    between atoms: C_3  and  N_4 
REMARK       I    between atoms: N_4  and  C_5 
REMARK    2  A    between atoms: C_5  and  C_6 
REMARK    3  A    between atoms: C_6  and  C_7 
ROOT
HETATM    1  C   UNL     1      -8.991   2.967 -32.311  1.00  0.00     0.286 C 
HETATM    2  N   UNL     1     -10.087   1.951 -31.987  1.00  0.00    -0.056 N 
HETATM    3  H   UNL     1      -9.635   1.019 -32.105  1.00  0.00     0.278 HD
HETATM    4  H   UNL     1     -10.373   2.008 -31.003  1.00  0.00     0.278 HD
HETATM    5  C   UNL     1     -11.269   1.959 -32.909  1.00  0.00     0.209 C 
HETATM    6  C   UNL     1     -10.775   1.847 -34.371  1.00  0.00     0.115 C 
HETATM    7  N   UNL     1      -9.744   2.834 -34.686  1.00  0.00    -0.353 N 
HETATM    8  C   UNL     1      -8.725   3.148 -33.822  1.00  0.00     0.249 C 
HETATM    9  O   UNL     1      -7.688   3.645 -34.248  1.00  0.00    -0.271 OA
HETATM   10  C   UNL     1     -12.130   3.199 -32.662  1.00  0.00     0.035 C 
HETATM   11  C   UNL     1     -13.301   3.243 -33.643  1.00  0.00     0.002 C 
HETATM   12  C   UNL     1     -12.825   3.172 -35.093  1.00  0.00     0.002 C 
HETATM   13  C   UNL     1     -11.952   1.944 -35.347  1.00  0.00     0.027 C 
HETATM   14  H   UNL     1      -9.462   2.932 -35.660  1.00  0.00     0.163 HD
ENDROOT
BRANCH   1  15
HETATM   15  C   UNL     1      -7.689   2.606 -31.575  1.00  0.00     0.146 C 
BRANCH  15  16
HETATM   16  C   UNL     1      -7.308   1.173 -31.881  1.00  0.00     0.224 C 
HETATM   17  N   UNL     1      -6.312   1.040 -32.817  1.00  0.00    -0.327 N 
HETATM   18  H   UNL     1      -5.811   1.871 -33.103  1.00  0.00     0.169 HD
HETATM   19  O   UNL     1      -7.826   0.272 -31.218  1.00  0.00    -0.273 OA
BRANCH  17  20
HETATM   20  C   UNL     1      -5.839  -0.180 -33.363  1.00  0.00     0.040 A 
HETATM   21  C   UNL     1      -6.513  -0.749 -34.463  1.00  0.00    -0.035 A 
HETATM   22  C   UNL     1      -7.687  -0.086 -35.130  1.00  0.00     0.050 C 
HETATM   23  C   UNL     1      -6.072  -1.984 -34.973  1.00  0.00     0.009 A 
HETATM   24  C   UNL     1      -4.982  -2.645 -34.410  1.00  0.00     0.001 A 
HETATM   25  C   UNL     1      -4.320  -2.083 -33.327  1.00  0.00     0.002 A 
HETATM   26  C   UNL     1      -4.745  -0.858 -32.808  1.00  0.00     0.030 A 
ENDBRANCH  17  20
ENDBRANCH  15  16
ENDBRANCH   1  15
TORSDOF 3
ENDMDL
MODEL 7
REMARK VINA RESULT:      -7.7      4.082      6.746
REMARK  3 active torsions:
REMARK  status: ('A' for Active; 'I' for Inactive)
REMARK    1  A    between atoms: C_3  and  N_4 
REMARK       I    between atoms: N_4  and  C_5 
REMARK    2  A    between atoms: C_5  and  C_6 
REMARK    3  A    between atoms: C_6  and  C_7 
ROOT
HETATM    1  C   UNL     1      -5.560   1.441 -31.397  1.00  0.00     0.286 C 
HETATM    2  N   UNL     1      -4.603   0.999 -32.505  1.00  0.00    -0.056 N 
HETATM    3  H   UNL     1      -4.245   1.884 -32.923  1.00  0.00     0.278 HD
HETATM    4  H   UNL     1      -3.785   0.512 -32.122  1.00  0.00     0.278 HD
HETATM    5  C   UNL     1      -5.228   0.231 -33.631  1.00  0.00     0.209 C 
HETATM    6  C   UNL     1      -6.437   1.026 -34.180  1.00  0.00     0.115 C 
HETATM    7  N   UNL     1      -7.363   1.429 -33.123  1.00  0.00    -0.353 N 
HETATM    8  C   UNL     1      -6.942   1.907 -31.907  1.00  0.00     0.249 C 
HETATM    9  O   UNL     1      -7.693   2.596 -31.224  1.00  0.00    -0.271 OA
HETATM   10  C   UNL     1      -5.599  -1.180 -33.173  1.00  0.00     0.035 C 
HETATM   11  C   UNL     1      -6.294  -1.944 -34.299  1.00  0.00     0.002 C 
HETATM   12  C   UNL     1      -7.513  -1.189 -34.826  1.00  0.00     0.002 C 
HETATM   13  C   UNL     1      -7.156   0.229 -35.272  1.00  0.00     0.027 C 
HETATM   14  H   UNL     1      -8.257   1.829 -33.402  1.00  0.00     0.163 HD
ENDROOT
BRANCH   1  15
HETATM   15  C   UNL     1      -4.911   2.534 -30.531  1.00  0.00     0.146 C 
BRANCH  15  16
HETATM   16  C   UNL     1      -3.676   3.071 -31.223  1.00  0.00     0.224 C 
HETATM   17  N   UNL     1      -3.841   4.309 -31.795  1.00  0.00    -0.327 N 
HETATM   18  H   UNL     1      -4.686   4.825 -31.583  1.00  0.00     0.169 HD
HETATM   19  O   UNL     1      -2.626   2.430 -31.136  1.00  0.00    -0.273 OA
BRANCH  17  20
HETATM   20  C   UNL     1      -2.887   4.993 -32.590  1.00  0.00     0.040 A 
HETATM   21  C   UNL     1      -2.221   6.115 -32.054  1.00  0.00    -0.035 A 
HETATM   22  C   UNL     1      -2.433   6.590 -30.642  1.00  0.00     0.050 C 
HETATM   23  C   UNL     1      -1.310   6.821 -32.861  1.00  0.00     0.009 A 
HETATM   24  C   UNL     1      -1.058   6.425 -34.174  1.00  0.00     0.001 A 
HETATM   25  C   UNL     1      -1.715   5.321 -34.699  1.00  0.00     0.002 A 
HETATM   26  C   UNL     1      -2.623   4.609 -33.912  1.00  0.00     0.030 A 
ENDBRANCH  17  20
ENDBRANCH  15  16
ENDBRANCH   1  15
TORSDOF 3
ENDMDL
MODEL 8
REMARK VINA RESULT:      -7.6      1.470      2.639
REMARK  3 active torsions:
REMARK  status: ('A' for Active; 'I' for Inactive)
REMARK    1  A    between atoms: C_3  and  N_4 
REMARK       I    between atoms: N_4  and  C_5 
REMARK    2  A    between atoms: C_5  and  C_6 
REMARK    3  A    between atoms: C_6  and  C_7 
ROOT
HETATM    1  C   UNL     1      -8.204   1.140 -34.184  1.00  0.00     0.286 C 
HETATM    2  N   UNL     1      -9.616   1.421 -34.697  1.00  0.00    -0.056 N 
HETATM    3  H   UNL     1      -9.506   1.578 -35.721  1.00  0.00     0.278 HD
HETATM    4  H   UNL     1     -10.223   0.600 -34.596  1.00  0.00     0.278 HD
HETATM    5  C   UNL     1     -10.266   2.659 -34.155  1.00  0.00     0.209 C 
HETATM    6  C   UNL     1      -9.316   3.863 -34.357  1.00  0.00     0.115 C 
HETATM    7  N   UNL     1      -7.971   3.602 -33.846  1.00  0.00    -0.353 N 
HETATM    8  C   UNL     1      -7.327   2.402 -34.024  1.00  0.00     0.249 C 
HETATM    9  O   UNL     1      -6.104   2.345 -33.956  1.00  0.00    -0.271 OA
HETATM   10  C   UNL     1     -10.669   2.455 -32.694  1.00  0.00     0.035 C 
HETATM   11  C   UNL     1     -11.274   3.735 -32.120  1.00  0.00     0.002 C 
HETATM   12  C   UNL     1     -10.330   4.925 -32.278  1.00  0.00     0.002 C 
HETATM   13  C   UNL     1      -9.909   5.130 -33.733  1.00  0.00     0.027 C 
HETATM   14  H   UNL     1      -7.319   4.383 -33.804  1.00  0.00     0.163 HD
ENDROOT
BRANCH   1  15
HETATM   15  C   UNL     1      -7.501   0.109 -35.084  1.00  0.00     0.146 C 
BRANCH  15  16
HETATM   16  C   UNL     1      -6.758  -0.896 -34.228  1.00  0.00     0.224 C 
HETATM   17  N   UNL     1      -5.874  -1.686 -34.921  1.00  0.00    -0.327 N 
HETATM   18  H   UNL     1      -5.668  -1.444 -35.882  1.00  0.00     0.169 HD
HETATM   19  O   UNL     1      -6.919  -0.861 -33.006  1.00  0.00    -0.273 OA
BRANCH  17  20
HETATM   20  C   UNL     1      -5.133  -2.771 -34.389  1.00  0.00     0.040 A 
HETATM   21  C   UNL     1      -5.498  -4.089 -34.732  1.00  0.00    -0.035 A 
HETATM   22  C   UNL     1      -6.612  -4.400 -35.694  1.00  0.00     0.050 C 
HETATM   23  C   UNL     1      -4.791  -5.165 -34.166  1.00  0.00     0.009 A 
HETATM   24  C   UNL     1      -3.739  -4.946 -33.278  1.00  0.00     0.001 A 
HETATM   25  C   UNL     1      -3.381  -3.647 -32.941  1.00  0.00     0.002 A 
HETATM   26  C   UNL     1      -4.073  -2.567 -33.494  1.00  0.00     0.030 A 
ENDBRANCH  17  20
ENDBRANCH  15  16
ENDBRANCH   1  15
TORSDOF 3
ENDMDL
MODEL 9
REMARK VINA RESULT:      -7.6      4.484      7.037
REMARK  3 active torsions:
REMARK  status: ('A' for Active; 'I' for Inactive)
REMARK    1  A    between atoms: C_3  and  N_4 
REMARK       I    between atoms: N_4  and  C_5 
REMARK    2  A    between atoms: C_5  and  C_6 
REMARK    3  A    between atoms: C_6  and  C_7 
ROOT
HETATM    1  C   UNL     1      -5.192   1.902 -31.897  1.00  0.00     0.286 C 
HETATM    2  N   UNL     1      -6.677   1.546 -31.821  1.00  0.00    -0.056 N 
HETATM    3  H   UNL     1      -6.805   1.117 -30.880  1.00  0.00     0.278 HD
HETATM    4  H   UNL     1      -7.266   2.387 -31.835  1.00  0.00     0.278 HD
HETATM    5  C   UNL     1      -7.148   0.523 -32.810  1.00  0.00     0.209 C 
HETATM    6  C   UNL     1      -6.239  -0.725 -32.725  1.00  0.00     0.115 C 
HETATM    7  N   UNL     1      -4.819  -0.386 -32.821  1.00  0.00    -0.353 N 
HETATM    8  C   UNL     1      -4.268   0.698 -32.183  1.00  0.00     0.249 C 
HETATM    9  O   UNL     1      -3.065   0.726 -31.949  1.00  0.00    -0.271 OA
HETATM   10  C   UNL     1      -7.206   1.126 -34.215  1.00  0.00     0.035 C 
HETATM   11  C   UNL     1      -7.624   0.069 -35.236  1.00  0.00     0.002 C 
HETATM   12  C   UNL     1      -6.711  -1.154 -35.189  1.00  0.00     0.002 C 
HETATM   13  C   UNL     1      -6.635  -1.756 -33.786  1.00  0.00     0.027 C 
HETATM   14  H   UNL     1      -4.154  -1.151 -32.919  1.00  0.00     0.163 HD
ENDROOT
BRANCH   1  15
HETATM   15  C   UNL     1      -4.747   2.629 -30.617  1.00  0.00     0.146 C 
BRANCH  15  16
HETATM   16  C   UNL     1      -4.087   3.943 -30.976  1.00  0.00     0.224 C 
HETATM   17  N   UNL     1      -2.737   3.855 -31.208  1.00  0.00    -0.327 N 
HETATM   18  H   UNL     1      -2.324   2.933 -31.280  1.00  0.00     0.169 HD
HETATM   19  O   UNL     1      -4.801   4.937 -31.131  1.00  0.00    -0.273 OA
BRANCH  17  20
HETATM   20  C   UNL     1      -1.861   4.941 -31.456  1.00  0.00     0.040 A 
HETATM   21  C   UNL     1      -1.651   5.367 -32.784  1.00  0.00    -0.035 A 
HETATM   22  C   UNL     1      -2.366   4.755 -33.958  1.00  0.00     0.050 C 
HETATM   23  C   UNL     1      -0.745   6.414 -33.033  1.00  0.00     0.009 A 
HETATM   24  C   UNL     1      -0.059   7.034 -31.989  1.00  0.00     0.001 A 
HETATM   25  C   UNL     1      -0.268   6.612 -30.683  1.00  0.00     0.002 A 
HETATM   26  C   UNL     1      -1.163   5.574 -30.418  1.00  0.00     0.030 A 
ENDBRANCH  17  20
ENDBRANCH  15  16
ENDBRANCH   1  15
TORSDOF 3
ENDMDL
MODEL 10
REMARK VINA RESULT:      -7.5     13.578     16.177
REMARK  3 active torsions:
REMARK  status: ('A' for Active; 'I' for Inactive)
REMARK    1  A    between atoms: C_3  and  N_4 
REMARK       I    between atoms: N_4  and  C_5 
REMARK    2  A    between atoms: C_5  and  C_6 
REMARK    3  A    between atoms: C_6  and  C_7 
ROOT
HETATM    1  C   UNL     1      -3.899 -12.861 -39.254  1.00  0.00     0.286 C 
HETATM    2  N   UNL     1      -2.688 -12.156 -38.643  1.00  0.00    -0.056 N 
HETATM    3  H   UNL     1      -2.443 -11.402 -39.321  1.00  0.00     0.278 HD
HETATM    4  H   UNL     1      -2.932 -11.684 -37.765  1.00  0.00     0.278 HD
HETATM    5  C   UNL     1      -1.456 -12.997 -38.496  1.00  0.00     0.209 C 
HETATM    6  C   UNL     1      -1.127 -13.661 -39.854  1.00  0.00     0.115 C 
HETATM    7  N   UNL     1      -2.280 -14.355 -40.426  1.00  0.00    -0.353 N 
HETATM    8  C   UNL     1      -3.550 -13.835 -40.402  1.00  0.00     0.249 C 
HETATM    9  O   UNL     1      -4.387 -14.218 -41.212  1.00  0.00    -0.271 OA
HETATM   10  C   UNL     1      -1.633 -14.009 -37.363  1.00  0.00     0.035 C 
HETATM   11  C   UNL     1      -0.405 -14.911 -37.251  1.00  0.00     0.002 C 
HETATM   12  C   UNL     1      -0.091 -15.604 -38.576  1.00  0.00     0.002 C 
HETATM   13  C   UNL     1       0.075 -14.601 -39.719  1.00  0.00     0.027 C 
HETATM   14  H   UNL     1      -2.123 -14.942 -41.244  1.00  0.00     0.163 HD
ENDROOT
BRANCH   1  15
HETATM   15  C   UNL     1      -4.942 -11.832 -39.722  1.00  0.00     0.146 C 
BRANCH  15  16
HETATM   16  C   UNL     1      -6.334 -12.320 -39.378  1.00  0.00     0.224 C 
HETATM   17  N   UNL     1      -7.128 -12.582 -40.468  1.00  0.00    -0.327 N 
HETATM   18  H   UNL     1      -6.695 -12.587 -41.383  1.00  0.00     0.169 HD
HETATM   19  O   UNL     1      -6.605 -12.538 -38.195  1.00  0.00    -0.273 OA
BRANCH  17  20
HETATM   20  C   UNL     1      -8.497 -12.946 -40.433  1.00  0.00     0.040 A 
HETATM   21  C   UNL     1      -8.861 -14.282 -40.697  1.00  0.00    -0.035 A 
HETATM   22  C   UNL     1      -7.850 -15.365 -40.958  1.00  0.00     0.050 C 
HETATM   23  C   UNL     1     -10.224 -14.632 -40.709  1.00  0.00     0.009 A 
HETATM   24  C   UNL     1     -11.211 -13.679 -40.461  1.00  0.00     0.001 A 
HETATM   25  C   UNL     1     -10.850 -12.364 -40.201  1.00  0.00     0.002 A 
HETATM   26  C   UNL     1      -9.502 -12.000 -40.186  1.00  0.00     0.030 A 
ENDBRANCH  17  20
ENDBRANCH  15  16
ENDBRANCH   1  15
TORSDOF 3
ENDMDL
