MODEL 1
REMARK VINA RESULT:      -9.4      0.000      0.000
REMARK  7 active torsions:
REMARK  status: ('A' for Active; 'I' for Inactive)
REMARK    1  A    between atoms: C_2  and  O_3 
REMARK    2  A    between atoms: O_3  and  C_4 
REMARK    3  A    between atoms: C_4  and  C_5 
REMARK    4  A    between atoms: C_8  and  N_9 
REMARK       I    between atoms: N_9  and  C_10 
REMARK    5  A    between atoms: C_10  and  C_11 
REMARK    6  A    between atoms: C_11  and  N_12 
REMARK    7  A    between atoms: C_18  and  C_19 
ROOT
HETATM    1  N   UNL     1      -4.433   3.536 -32.807  1.00  0.00    -0.063 N 
HETATM    2  H   UNL     1      -4.464   2.501 -32.733  1.00  0.00     0.280 HD
HETATM    3  C   UNL     1      -3.028   3.844 -33.288  1.00  0.00     0.240 C 
HETATM    4  C   UNL     1      -2.202   4.503 -32.200  1.00  0.00     0.083 C 
HETATM    5  C   UNL     1      -2.896   5.753 -31.643  1.00  0.00     0.131 A 
HETATM    6  N   UNL     1      -2.230   6.079 -30.357  1.00  0.00    -0.251 NA
HETATM    7  C   UNL     1      -1.707   7.272 -30.490  1.00  0.00     0.132 A 
HETATM    8  C   UNL     1      -2.013   7.869 -31.843  1.00  0.00     0.272 A 
HETATM    9  O   UNL     1      -1.759   8.976 -32.251  1.00  0.00    -0.266 OA
HETATM   10  N   UNL     1      -2.688   6.885 -32.494  1.00  0.00    -0.327 N 
HETATM   11  C   UNL     1      -4.395   5.544 -31.369  1.00  0.00     0.083 C 
HETATM   12  C   UNL     1      -4.775   4.079 -31.446  1.00  0.00     0.240 C 
HETATM   13  H   UNL     1      -3.087   7.074 -33.405  1.00  0.00     0.165 HD
ENDROOT
BRANCH   1  14
HETATM   14  C   UNL     1      -5.499   3.827 -33.890  1.00  0.00     0.337 C 
BRANCH  14  15
HETATM   15  C   UNL     1      -6.900   3.583 -33.336  1.00  0.00     0.248 C 
HETATM   16  N   UNL     1      -7.411   2.339 -33.144  1.00  0.00    -0.326 N 
HETATM   17  H   UNL     1      -8.303   2.377 -32.654  1.00  0.00     0.169 HD
HETATM   18  O   UNL     1      -7.564   4.569 -32.993  1.00  0.00    -0.271 OA
BRANCH  16  19
HETATM   19  C   UNL     1      -6.959   1.046 -33.467  1.00  0.00     0.034 A 
HETATM   20  C   UNL     1      -6.110   0.267 -32.681  1.00  0.00     0.030 A 
HETATM   21  C   UNL     1      -5.734  -1.018 -33.103  1.00  0.00     0.020 A 
HETATM   22  C   UNL     1      -6.186  -1.538 -34.322  1.00  0.00     0.039 A 
HETATM   23  C   UNL     1      -7.011  -0.748 -35.125  1.00  0.00     0.020 A 
HETATM   24  C   UNL     1      -7.386   0.533 -34.701  1.00  0.00     0.030 A 
BRANCH  22  25
HETATM   25  C   UNL     1      -5.753  -2.908 -34.709  1.00  0.00     0.293 C 
HETATM   26  O   UNL     1      -6.535  -3.768 -35.081  1.00  0.00    -0.259 OA
BRANCH  25  27
HETATM   27  O   UNL     1      -4.410  -3.033 -34.596  1.00  0.00    -0.318 OA
BRANCH  27  28
HETATM   28  C   UNL     1      -3.939  -4.264 -34.024  1.00  0.00     0.174 C 
HETATM   29  C   UNL     1      -3.320  -4.001 -32.665  1.00  0.00     0.034 C 
ENDBRANCH  27  28
ENDBRANCH  25  27
ENDBRANCH  22  25
ENDBRANCH  16  19
ENDBRANCH  14  15
ENDBRANCH   1  14
BRANCH   7  30
HETATM   30  C   UNL     1      -0.915   7.943 -29.440  1.00  0.00    -0.002 A 
HETATM   31  C   UNL     1       0.399   7.564 -29.137  1.00  0.00     0.016 A 
HETATM   32  C   UNL     1       1.105   8.216 -28.120  1.00  0.00     0.024 A 
HETATM   33  C   UNL     1       0.503   9.246 -27.402  1.00  0.00     0.034 A 
HETATM   34 CL   UNL     1       1.373  10.039 -26.151  1.00  0.00    -0.084 Cl
HETATM   35  C   UNL     1      -0.804   9.631 -27.691  1.00  0.00     0.024 A 
HETATM   36  C   UNL     1      -1.513   8.980 -28.706  1.00  0.00     0.016 A 
ENDBRANCH   7  30
TORSDOF 7
ENDMDL
MODEL 2
REMARK VINA RESULT:      -9.1      1.480      2.125
REMARK  7 active torsions:
REMARK  status: ('A' for Active; 'I' for Inactive)
REMARK    1  A    between atoms: C_2  and  O_3 
REMARK    2  A    between atoms: O_3  and  C_4 
REMARK    3  A    between atoms: C_4  and  C_5 
REMARK    4  A    between atoms: C_8  and  N_9 
REMARK       I    between atoms: N_9  and  C_10 
REMARK    5  A    between atoms: C_10  and  C_11 
REMARK    6  A    between atoms: C_11  and  N_12 
REMARK    7  A    between atoms: C_18  and  C_19 
ROOT
HETATM    1  N   UNL     1      -6.763   3.437 -32.678  1.00  0.00    -0.063 N 
HETATM    2  H   UNL     1      -7.167   2.543 -32.338  1.00  0.00     0.280 HD
HETATM    3  C   UNL     1      -5.389   3.063 -33.199  1.00  0.00     0.240 C 
HETATM    4  C   UNL     1      -4.290   3.607 -32.307  1.00  0.00     0.083 C 
HETATM    5  C   UNL     1      -4.426   5.122 -32.106  1.00  0.00     0.131 A 
HETATM    6  N   UNL     1      -3.581   5.479 -30.938  1.00  0.00    -0.251 NA
HETATM    7  C   UNL     1      -2.668   6.313 -31.367  1.00  0.00     0.132 A 
HETATM    8  C   UNL     1      -2.844   6.628 -32.835  1.00  0.00     0.272 A 
HETATM    9  O   UNL     1      -2.235   7.419 -33.512  1.00  0.00    -0.266 OA
HETATM   10  N   UNL     1      -3.887   5.844 -33.218  1.00  0.00    -0.327 N 
HETATM   11  C   UNL     1      -5.866   5.570 -31.812  1.00  0.00     0.083 C 
HETATM   12  C   UNL     1      -6.766   4.387 -31.511  1.00  0.00     0.240 C 
HETATM   13  H   UNL     1      -4.261   5.938 -34.154  1.00  0.00     0.165 HD
ENDROOT
BRANCH   1  14
HETATM   14  C   UNL     1      -7.733   3.832 -33.817  1.00  0.00     0.337 C 
BRANCH  14  15
HETATM   15  C   UNL     1      -9.005   2.992 -33.748  1.00  0.00     0.248 C 
HETATM   16  N   UNL     1      -8.990   1.634 -33.709  1.00  0.00    -0.326 N 
HETATM   17  H   UNL     1      -9.922   1.259 -33.539  1.00  0.00     0.169 HD
HETATM   18  O   UNL     1     -10.086   3.588 -33.663  1.00  0.00    -0.271 OA
BRANCH  16  19
HETATM   19  C   UNL     1      -7.971   0.673 -33.838  1.00  0.00     0.034 A 
HETATM   20  C   UNL     1      -7.477   0.174 -35.043  1.00  0.00     0.030 A 
HETATM   21  C   UNL     1      -6.447  -0.779 -35.047  1.00  0.00     0.020 A 
HETATM   22  C   UNL     1      -5.903  -1.259 -33.849  1.00  0.00     0.039 A 
HETATM   23  C   UNL     1      -6.416  -0.783 -32.640  1.00  0.00     0.020 A 
HETATM   24  C   UNL     1      -7.443   0.168 -32.639  1.00  0.00     0.030 A 
BRANCH  22  25
HETATM   25  C   UNL     1      -4.810  -2.266 -33.922  1.00  0.00     0.293 C 
HETATM   26  O   UNL     1      -3.939  -2.358 -33.074  1.00  0.00    -0.259 OA
BRANCH  25  27
HETATM   27  O   UNL     1      -4.944  -3.033 -35.030  1.00  0.00    -0.318 OA
BRANCH  27  28
HETATM   28  C   UNL     1      -5.394  -4.380 -34.809  1.00  0.00     0.174 C 
HETATM   29  C   UNL     1      -6.819  -4.539 -35.303  1.00  0.00     0.034 C 
ENDBRANCH  27  28
ENDBRANCH  25  27
ENDBRANCH  22  25
ENDBRANCH  16  19
ENDBRANCH  14  15
ENDBRANCH   1  14
BRANCH   7  30
HETATM   30  C   UNL     1      -1.599   6.872 -30.515  1.00  0.00    -0.002 A 
HETATM   31  C   UNL     1      -0.261   6.480 -30.641  1.00  0.00     0.016 A 
HETATM   32  C   UNL     1       0.716   7.022 -29.799  1.00  0.00     0.024 A 
HETATM   33  C   UNL     1       0.361   7.954 -28.828  1.00  0.00     0.034 A 
HETATM   34 CL   UNL     1       1.563   8.612 -27.792  1.00  0.00    -0.084 Cl
HETATM   35  C   UNL     1      -0.967   8.350 -28.690  1.00  0.00     0.024 A 
HETATM   36  C   UNL     1      -1.946   7.809 -29.529  1.00  0.00     0.016 A 
ENDBRANCH   7  30
TORSDOF 7
ENDMDL
MODEL 3
REMARK VINA RESULT:      -8.6      4.097     10.346
REMARK  7 active torsions:
REMARK  status: ('A' for Active; 'I' for Inactive)
REMARK    1  A    between atoms: C_2  and  O_3 
REMARK    2  A    between atoms: O_3  and  C_4 
REMARK    3  A    between atoms: C_4  and  C_5 
REMARK    4  A    between atoms: C_8  and  N_9 
REMARK       I    between atoms: N_9  and  C_10 
REMARK    5  A    between atoms: C_10  and  C_11 
REMARK    6  A    between atoms: C_11  and  N_12 
REMARK    7  A    between atoms: C_18  and  C_19 
ROOT
HETATM    1  N   UNL     1      -5.216   5.606 -32.082  1.00  0.00    -0.063 N 
HETATM    2  H   UNL     1      -4.652   6.337 -32.555  1.00  0.00     0.280 HD
HETATM    3  C   UNL     1      -4.194   4.640 -31.514  1.00  0.00     0.240 C 
HETATM    4  C   UNL     1      -4.211   3.317 -32.254  1.00  0.00     0.083 C 
HETATM    5  C   UNL     1      -5.617   2.702 -32.280  1.00  0.00     0.131 A 
HETATM    6  N   UNL     1      -5.610   1.655 -33.332  1.00  0.00    -0.251 NA
HETATM    7  C   UNL     1      -5.873   0.518 -32.742  1.00  0.00     0.132 A 
HETATM    8  C   UNL     1      -6.127   0.700 -31.264  1.00  0.00     0.272 A 
HETATM    9  O   UNL     1      -6.480  -0.122 -30.455  1.00  0.00    -0.266 OA
HETATM   10  N   UNL     1      -5.911   2.026 -31.053  1.00  0.00    -0.327 N 
HETATM   11  C   UNL     1      -6.718   3.719 -32.619  1.00  0.00     0.083 C 
HETATM   12  C   UNL     1      -6.134   5.024 -33.123  1.00  0.00     0.240 C 
HETATM   13  H   UNL     1      -6.105   2.422 -30.142  1.00  0.00     0.165 HD
ENDROOT
BRANCH   1  14
HETATM   14  C   UNL     1      -5.944   6.407 -30.976  1.00  0.00     0.337 C 
BRANCH  14  15
HETATM   15  C   UNL     1      -5.636   7.896 -31.108  1.00  0.00     0.248 C 
HETATM   16  N   UNL     1      -4.467   8.447 -30.690  1.00  0.00    -0.326 N 
HETATM   17  H   UNL     1      -4.396   9.423 -30.974  1.00  0.00     0.169 HD
HETATM   18  O   UNL     1      -6.471   8.608 -31.679  1.00  0.00    -0.271 OA
BRANCH  16  19
HETATM   19  C   UNL     1      -3.363   7.948 -29.975  1.00  0.00     0.034 A 
HETATM   20  C   UNL     1      -3.318   7.740 -28.597  1.00  0.00     0.030 A 
HETATM   21  C   UNL     1      -2.159   7.225 -27.995  1.00  0.00     0.020 A 
HETATM   22  C   UNL     1      -1.023   6.925 -28.756  1.00  0.00     0.039 A 
HETATM   23  C   UNL     1      -1.055   7.160 -30.132  1.00  0.00     0.020 A 
HETATM   24  C   UNL     1      -2.212   7.673 -30.730  1.00  0.00     0.030 A 
BRANCH  22  25
HETATM   25  C   UNL     1       0.171   6.378 -28.058  1.00  0.00     0.293 C 
HETATM   26  O   UNL     1       0.900   5.536 -28.555  1.00  0.00    -0.259 OA
BRANCH  25  27
HETATM   27  O   UNL     1       0.314   6.952 -26.840  1.00  0.00    -0.318 OA
BRANCH  27  28
HETATM   28  C   UNL     1       1.590   7.561 -26.578  1.00  0.00     0.174 C 
HETATM   29  C   UNL     1       1.731   8.837 -27.385  1.00  0.00     0.034 C 
ENDBRANCH  27  28
ENDBRANCH  25  27
ENDBRANCH  22  25
ENDBRANCH  16  19
ENDBRANCH  14  15
ENDBRANCH   1  14
BRANCH   7  30
HETATM   30  C   UNL     1      -5.914  -0.782 -33.442  1.00  0.00    -0.002 A 
HETATM   31  C   UNL     1      -7.112  -1.349 -33.897  1.00  0.00     0.016 A 
HETATM   32  C   UNL     1      -7.105  -2.593 -34.538  1.00  0.00     0.024 A 
HETATM   33  C   UNL     1      -5.906  -3.274 -34.726  1.00  0.00     0.034 A 
HETATM   34 CL   UNL     1      -5.904  -4.804 -35.509  1.00  0.00    -0.084 Cl
HETATM   35  C   UNL     1      -4.708  -2.723 -34.276  1.00  0.00     0.024 A 
HETATM   36  C   UNL     1      -4.712  -1.481 -33.633  1.00  0.00     0.016 A 
ENDBRANCH   7  30
TORSDOF 7
ENDMDL
MODEL 4
REMARK VINA RESULT:      -8.6      3.979     10.902
REMARK  7 active torsions:
REMARK  status: ('A' for Active; 'I' for Inactive)
REMARK    1  A    between atoms: C_2  and  O_3 
REMARK    2  A    between atoms: O_3  and  C_4 
REMARK    3  A    between atoms: C_4  and  C_5 
REMARK    4  A    between atoms: C_8  and  N_9 
REMARK       I    between atoms: N_9  and  C_10 
REMARK    5  A    between atoms: C_10  and  C_11 
REMARK    6  A    between atoms: C_11  and  N_12 
REMARK    7  A    between atoms: C_18  and  C_19 
ROOT
HETATM    1  N   UNL     1      -3.605   4.954 -30.930  1.00  0.00    -0.063 N 
HETATM    2  H   UNL     1      -3.014   5.122 -30.094  1.00  0.00     0.280 HD
HETATM    3  C   UNL     1      -4.849   4.276 -30.391  1.00  0.00     0.240 C 
HETATM    4  C   UNL     1      -4.910   2.819 -30.807  1.00  0.00     0.083 C 
HETATM    5  C   UNL     1      -4.794   2.661 -32.329  1.00  0.00     0.131 A 
HETATM    6  N   UNL     1      -4.467   1.237 -32.591  1.00  0.00    -0.251 NA
HETATM    7  C   UNL     1      -5.446   0.745 -33.307  1.00  0.00     0.132 A 
HETATM    8  C   UNL     1      -6.484   1.795 -33.630  1.00  0.00     0.272 A 
HETATM    9  O   UNL     1      -7.456   1.697 -34.338  1.00  0.00    -0.266 OA
HETATM   10  N   UNL     1      -6.049   2.903 -32.973  1.00  0.00    -0.327 N 
HETATM   11  C   UNL     1      -3.687   3.530 -32.947  1.00  0.00     0.083 C 
HETATM   12  C   UNL     1      -2.787   4.125 -31.882  1.00  0.00     0.240 C 
HETATM   13  H   UNL     1      -6.535   3.781 -33.106  1.00  0.00     0.165 HD
ENDROOT
BRANCH   1  14
HETATM   14  C   UNL     1      -3.891   6.391 -31.431  1.00  0.00     0.337 C 
BRANCH  14  15
HETATM   15  C   UNL     1      -2.766   6.871 -32.342  1.00  0.00     0.248 C 
HETATM   16  N   UNL     1      -1.553   7.263 -31.872  1.00  0.00    -0.326 N 
HETATM   17  H   UNL     1      -0.897   7.428 -32.634  1.00  0.00     0.169 HD
HETATM   18  O   UNL     1      -2.960   6.838 -33.564  1.00  0.00    -0.271 OA
BRANCH  16  19
HETATM   19  C   UNL     1      -1.035   7.466 -30.579  1.00  0.00     0.034 A 
HETATM   20  C   UNL     1      -1.449   8.454 -29.688  1.00  0.00     0.030 A 
HETATM   21  C   UNL     1      -0.864   8.553 -28.416  1.00  0.00     0.020 A 
HETATM   22  C   UNL     1       0.154   7.676 -28.020  1.00  0.00     0.039 A 
HETATM   23  C   UNL     1       0.591   6.704 -28.922  1.00  0.00     0.020 A 
HETATM   24  C   UNL     1       0.005   6.607 -30.190  1.00  0.00     0.030 A 
BRANCH  22  25
HETATM   25  C   UNL     1       0.730   7.831 -26.657  1.00  0.00     0.293 C 
HETATM   26  O   UNL     1       1.890   7.561 -26.395  1.00  0.00    -0.259 OA
BRANCH  25  27
HETATM   27  O   UNL     1      -0.202   8.310 -25.798  1.00  0.00    -0.318 OA
BRANCH  27  28
HETATM   28  C   UNL     1       0.217   9.402 -24.964  1.00  0.00     0.174 C 
HETATM   29  C   UNL     1      -0.403  10.697 -25.453  1.00  0.00     0.034 C 
ENDBRANCH  27  28
ENDBRANCH  25  27
ENDBRANCH  22  25
ENDBRANCH  16  19
ENDBRANCH  14  15
ENDBRANCH   1  14
BRANCH   7  30
HETATM   30  C   UNL     1      -5.520  -0.664 -33.741  1.00  0.00    -0.002 A 
HETATM   31  C   UNL     1      -4.385  -1.481 -33.827  1.00  0.00     0.016 A 
HETATM   32  C   UNL     1      -4.500  -2.806 -34.262  1.00  0.00     0.024 A 
HETATM   33  C   UNL     1      -5.745  -3.319 -34.614  1.00  0.00     0.034 A 
HETATM   34 CL   UNL     1      -5.880  -4.945 -35.153  1.00  0.00    -0.084 Cl
HETATM   35  C   UNL     1      -6.881  -2.517 -34.537  1.00  0.00     0.024 A 
HETATM   36  C   UNL     1      -6.769  -1.192 -34.104  1.00  0.00     0.016 A 
ENDBRANCH   7  30
TORSDOF 7
ENDMDL
MODEL 5
REMARK VINA RESULT:      -8.5      5.031      9.612
REMARK  7 active torsions:
REMARK  status: ('A' for Active; 'I' for Inactive)
REMARK    1  A    between atoms: C_2  and  O_3 
REMARK    2  A    between atoms: O_3  and  C_4 
REMARK    3  A    between atoms: C_4  and  C_5 
REMARK    4  A    between atoms: C_8  and  N_9 
REMARK       I    between atoms: N_9  and  C_10 
REMARK    5  A    between atoms: C_10  and  C_11 
REMARK    6  A    between atoms: C_11  and  N_12 
REMARK    7  A    between atoms: C_18  and  C_19 
ROOT
HETATM    1  N   UNL     1     -10.744   2.832 -31.992  1.00  0.00    -0.063 N 
HETATM    2  H   UNL     1     -11.503   2.749 -31.289  1.00  0.00     0.280 HD
HETATM    3  C   UNL     1     -11.147   1.883 -33.105  1.00  0.00     0.240 C 
HETATM    4  C   UNL     1     -10.236   0.672 -33.157  1.00  0.00     0.083 C 
HETATM    5  C   UNL     1      -8.761   1.080 -33.268  1.00  0.00     0.131 A 
HETATM    6  N   UNL     1      -7.956  -0.117 -32.916  1.00  0.00    -0.251 NA
HETATM    7  C   UNL     1      -7.237  -0.417 -33.968  1.00  0.00     0.132 A 
HETATM    8  C   UNL     1      -7.455   0.568 -35.093  1.00  0.00     0.272 A 
HETATM    9  O   UNL     1      -6.888   0.631 -36.156  1.00  0.00    -0.266 OA
HETATM   10  N   UNL     1      -8.413   1.407 -34.617  1.00  0.00    -0.327 N 
HETATM   11  C   UNL     1      -8.372   2.219 -32.313  1.00  0.00     0.083 C 
HETATM   12  C   UNL     1      -9.460   2.483 -31.290  1.00  0.00     0.240 C 
HETATM   13  H   UNL     1      -8.674   2.221 -35.160  1.00  0.00     0.165 HD
ENDROOT
BRANCH   1  14
HETATM   14  C   UNL     1     -10.846   4.315 -32.422  1.00  0.00     0.337 C 
BRANCH  14  15
HETATM   15  C   UNL     1     -10.778   5.228 -31.201  1.00  0.00     0.248 C 
HETATM   16  N   UNL     1      -9.641   5.868 -30.821  1.00  0.00    -0.326 N 
HETATM   17  H   UNL     1      -9.822   6.525 -30.064  1.00  0.00     0.169 HD
HETATM   18  O   UNL     1     -11.826   5.434 -30.576  1.00  0.00    -0.271 OA
BRANCH  16  19
HETATM   19  C   UNL     1      -8.307   5.814 -31.263  1.00  0.00     0.034 A 
HETATM   20  C   UNL     1      -7.864   6.153 -32.541  1.00  0.00     0.030 A 
HETATM   21  C   UNL     1      -6.500   6.070 -32.865  1.00  0.00     0.020 A 
HETATM   22  C   UNL     1      -5.561   5.633 -31.923  1.00  0.00     0.039 A 
HETATM   23  C   UNL     1      -6.005   5.265 -30.652  1.00  0.00     0.020 A 
HETATM   24  C   UNL     1      -7.365   5.349 -30.332  1.00  0.00     0.030 A 
BRANCH  22  25
HETATM   25  C   UNL     1      -4.131   5.571 -32.329  1.00  0.00     0.293 C 
HETATM   26  O   UNL     1      -3.213   5.722 -31.540  1.00  0.00    -0.259 OA
BRANCH  25  27
HETATM   27  O   UNL     1      -4.022   5.321 -33.655  1.00  0.00    -0.318 OA
BRANCH  27  28
HETATM   28  C   UNL     1      -2.984   6.036 -34.346  1.00  0.00     0.174 C 
HETATM   29  C   UNL     1      -1.905   5.073 -34.802  1.00  0.00     0.034 C 
ENDBRANCH  27  28
ENDBRANCH  25  27
ENDBRANCH  22  25
ENDBRANCH  16  19
ENDBRANCH  14  15
ENDBRANCH   1  14
BRANCH   7  30
HETATM   30  C   UNL     1      -6.329  -1.580 -34.039  1.00  0.00    -0.002 A 
HETATM   31  C   UNL     1      -6.711  -2.792 -34.627  1.00  0.00     0.016 A 
HETATM   32  C   UNL     1      -5.824  -3.874 -34.654  1.00  0.00     0.024 A 
HETATM   33  C   UNL     1      -4.556  -3.750 -34.094  1.00  0.00     0.034 A 
HETATM   34 CL   UNL     1      -3.473  -5.083 -34.125  1.00  0.00    -0.084 Cl
HETATM   35  C   UNL     1      -4.165  -2.551 -33.503  1.00  0.00     0.024 A 
HETATM   36  C   UNL     1      -5.050  -1.469 -33.473  1.00  0.00     0.016 A 
ENDBRANCH   7  30
TORSDOF 7
ENDMDL
MODEL 6
REMARK VINA RESULT:      -8.4      4.350      9.561
REMARK  7 active torsions:
REMARK  status: ('A' for Active; 'I' for Inactive)
REMARK    1  A    between atoms: C_2  and  O_3 
REMARK    2  A    between atoms: O_3  and  C_4 
REMARK    3  A    between atoms: C_4  and  C_5 
REMARK    4  A    between atoms: C_8  and  N_9 
REMARK       I    between atoms: N_9  and  C_10 
REMARK    5  A    between atoms: C_10  and  C_11 
REMARK    6  A    between atoms: C_11  and  N_12 
REMARK    7  A    between atoms: C_18  and  C_19 
ROOT
HETATM    1  N   UNL     1      -8.769   3.689 -30.365  1.00  0.00    -0.063 N 
HETATM    2  H   UNL     1      -9.261   3.708 -29.451  1.00  0.00     0.280 HD
HETATM    3  C   UNL     1      -9.697   2.919 -31.285  1.00  0.00     0.240 C 
HETATM    4  C   UNL     1      -9.127   1.559 -31.636  1.00  0.00     0.083 C 
HETATM    5  C   UNL     1      -7.715   1.674 -32.225  1.00  0.00     0.131 A 
HETATM    6  N   UNL     1      -7.109   0.320 -32.160  1.00  0.00    -0.251 NA
HETATM    7  C   UNL     1      -6.847  -0.041 -33.390  1.00  0.00     0.132 A 
HETATM    8  C   UNL     1      -7.203   1.044 -34.379  1.00  0.00     0.272 A 
HETATM    9  O   UNL     1      -7.007   1.069 -35.570  1.00  0.00    -0.266 OA
HETATM   10  N   UNL     1      -7.758   2.020 -33.613  1.00  0.00    -0.327 N 
HETATM   11  C   UNL     1      -6.810   2.645 -31.449  1.00  0.00     0.083 C 
HETATM   12  C   UNL     1      -7.430   3.045 -30.125  1.00  0.00     0.240 C 
HETATM   13  H   UNL     1      -8.004   2.906 -34.038  1.00  0.00     0.165 HD
ENDROOT
BRANCH   1  14
HETATM   14  C   UNL     1      -8.691   5.190 -30.735  1.00  0.00     0.337 C 
BRANCH  14  15
HETATM   15  C   UNL     1      -7.970   5.971 -29.640  1.00  0.00     0.248 C 
HETATM   16  N   UNL     1      -6.688   6.402 -29.763  1.00  0.00    -0.326 N 
HETATM   17  H   UNL     1      -6.426   7.008 -28.987  1.00  0.00     0.169 HD
HETATM   18  O   UNL     1      -8.615   6.269 -28.626  1.00  0.00    -0.271 OA
BRANCH  16  19
HETATM   19  C   UNL     1      -5.686   6.196 -30.729  1.00  0.00     0.034 A 
HETATM   20  C   UNL     1      -5.715   6.672 -32.039  1.00  0.00     0.030 A 
HETATM   21  C   UNL     1      -4.648   6.411 -32.912  1.00  0.00     0.020 A 
HETATM   22  C   UNL     1      -3.543   5.658 -32.496  1.00  0.00     0.039 A 
HETATM   23  C   UNL     1      -3.525   5.155 -31.194  1.00  0.00     0.020 A 
HETATM   24  C   UNL     1      -4.590   5.418 -30.325  1.00  0.00     0.030 A 
BRANCH  22  25
HETATM   25  C   UNL     1      -2.443   5.421 -33.470  1.00  0.00     0.293 C 
HETATM   26  O   UNL     1      -2.643   5.223 -34.657  1.00  0.00    -0.259 OA
BRANCH  25  27
HETATM   27  O   UNL     1      -1.240   5.469 -32.851  1.00  0.00    -0.318 OA
BRANCH  27  28
HETATM   28  C   UNL     1      -0.712   6.784 -32.608  1.00  0.00     0.174 C 
HETATM   29  C   UNL     1       0.254   6.748 -31.440  1.00  0.00     0.034 C 
ENDBRANCH  27  28
ENDBRANCH  25  27
ENDBRANCH  22  25
ENDBRANCH  16  19
ENDBRANCH  14  15
ENDBRANCH   1  14
BRANCH   7  30
HETATM   30  C   UNL     1      -6.274  -1.352 -33.757  1.00  0.00    -0.002 A 
HETATM   31  C   UNL     1      -4.918  -1.652 -33.577  1.00  0.00     0.016 A 
HETATM   32  C   UNL     1      -4.415  -2.901 -33.958  1.00  0.00     0.024 A 
HETATM   33  C   UNL     1      -5.261  -3.852 -34.521  1.00  0.00     0.034 A 
HETATM   34 CL   UNL     1      -4.638  -5.382 -34.993  1.00  0.00    -0.084 Cl
HETATM   35  C   UNL     1      -6.611  -3.565 -34.709  1.00  0.00     0.024 A 
HETATM   36  C   UNL     1      -7.116  -2.317 -34.330  1.00  0.00     0.016 A 
ENDBRANCH   7  30
TORSDOF 7
ENDMDL
MODEL 7
REMARK VINA RESULT:      -8.4      4.443     10.904
REMARK  7 active torsions:
REMARK  status: ('A' for Active; 'I' for Inactive)
REMARK    1  A    between atoms: C_2  and  O_3 
REMARK    2  A    between atoms: O_3  and  C_4 
REMARK    3  A    between atoms: C_4  and  C_5 
REMARK    4  A    between atoms: C_8  and  N_9 
REMARK       I    between atoms: N_9  and  C_10 
REMARK    5  A    between atoms: C_10  and  C_11 
REMARK    6  A    between atoms: C_11  and  N_12 
REMARK    7  A    between atoms: C_18  and  C_19 
ROOT
HETATM    1  N   UNL     1      -4.001   4.835 -32.850  1.00  0.00    -0.063 N 
HETATM    2  H   UNL     1      -3.856   5.803 -32.506  1.00  0.00     0.280 HD
HETATM    3  C   UNL     1      -4.745   5.002 -34.162  1.00  0.00     0.240 C 
HETATM    4  C   UNL     1      -6.181   4.529 -34.048  1.00  0.00     0.083 C 
HETATM    5  C   UNL     1      -6.260   3.086 -33.532  1.00  0.00     0.131 A 
HETATM    6  N   UNL     1      -7.660   2.865 -33.086  1.00  0.00    -0.251 NA
HETATM    7  C   UNL     1      -8.147   1.898 -33.821  1.00  0.00     0.132 A 
HETATM    8  C   UNL     1      -7.117   1.354 -34.784  1.00  0.00     0.272 A 
HETATM    9  O   UNL     1      -7.211   0.412 -35.532  1.00  0.00    -0.266 OA
HETATM   10  N   UNL     1      -6.028   2.144 -34.584  1.00  0.00    -0.327 N 
HETATM   11  C   UNL     1      -5.328   2.814 -32.341  1.00  0.00     0.083 C 
HETATM   12  C   UNL     1      -4.757   4.101 -31.777  1.00  0.00     0.240 C 
HETATM   13  H   UNL     1      -5.161   1.923 -35.056  1.00  0.00     0.165 HD
ENDROOT
BRANCH   1  14
HETATM   14  C   UNL     1      -2.552   4.332 -33.059  1.00  0.00     0.337 C 
BRANCH  14  15
HETATM   15  C   UNL     1      -1.773   5.305 -33.939  1.00  0.00     0.248 C 
HETATM   16  N   UNL     1      -0.978   6.284 -33.432  1.00  0.00    -0.326 N 
HETATM   17  H   UNL     1      -0.447   6.747 -34.168  1.00  0.00     0.169 HD
HETATM   18  O   UNL     1      -1.829   5.146 -35.165  1.00  0.00    -0.271 OA
BRANCH  16  19
HETATM   19  C   UNL     1      -0.739   6.759 -32.130  1.00  0.00     0.034 A 
HETATM   20  C   UNL     1       0.370   6.445 -31.345  1.00  0.00     0.030 A 
HETATM   21  C   UNL     1       0.506   6.991 -30.059  1.00  0.00     0.020 A 
HETATM   22  C   UNL     1      -0.469   7.845 -29.531  1.00  0.00     0.039 A 
HETATM   23  C   UNL     1      -1.595   8.137 -30.302  1.00  0.00     0.020 A 
HETATM   24  C   UNL     1      -1.728   7.592 -31.585  1.00  0.00     0.030 A 
BRANCH  22  25
HETATM   25  C   UNL     1      -0.263   8.392 -28.163  1.00  0.00     0.293 C 
HETATM   26  O   UNL     1      -0.991   9.240 -27.674  1.00  0.00    -0.259 OA
BRANCH  25  27
HETATM   27  O   UNL     1       0.810   7.812 -27.574  1.00  0.00    -0.318 OA
BRANCH  27  28
HETATM   28  C   UNL     1       1.804   8.711 -27.055  1.00  0.00     0.174 C 
HETATM   29  C   UNL     1       2.031   8.439 -25.581  1.00  0.00     0.034 C 
ENDBRANCH  27  28
ENDBRANCH  25  27
ENDBRANCH  22  25
ENDBRANCH  16  19
ENDBRANCH  14  15
ENDBRANCH   1  14
BRANCH   7  30
HETATM   30  C   UNL     1      -9.535   1.406 -33.718  1.00  0.00    -0.002 A 
HETATM   31  C   UNL     1      -9.851   0.179 -33.120  1.00  0.00     0.016 A 
HETATM   32  C   UNL     1     -11.180  -0.256 -33.062  1.00  0.00     0.024 A 
HETATM   33  C   UNL     1     -12.196   0.529 -33.601  1.00  0.00     0.034 A 
HETATM   34 CL   UNL     1     -13.824  -0.013 -33.532  1.00  0.00    -0.084 Cl
HETATM   35  C   UNL     1     -11.895   1.749 -34.201  1.00  0.00     0.024 A 
HETATM   36  C   UNL     1     -10.567   2.186 -34.262  1.00  0.00     0.016 A 
ENDBRANCH   7  30
TORSDOF 7
ENDMDL
MODEL 8
REMARK VINA RESULT:      -8.1      4.906     10.523
REMARK  7 active torsions:
REMARK  status: ('A' for Active; 'I' for Inactive)
REMARK    1  A    between atoms: C_2  and  O_3 
REMARK    2  A    between atoms: O_3  and  C_4 
REMARK    3  A    between atoms: C_4  and  C_5 
REMARK    4  A    between atoms: C_8  and  N_9 
REMARK       I    between atoms: N_9  and  C_10 
REMARK    5  A    between atoms: C_10  and  C_11 
REMARK    6  A    between atoms: C_11  and  N_12 
REMARK    7  A    between atoms: C_18  and  C_19 
ROOT
HETATM    1  N   UNL     1      -3.366   4.826 -33.353  1.00  0.00    -0.063 N 
HETATM    2  H   UNL     1      -2.559   4.599 -33.965  1.00  0.00     0.280 HD
HETATM    3  C   UNL     1      -3.486   3.637 -32.419  1.00  0.00     0.240 C 
HETATM    4  C   UNL     1      -4.725   2.818 -32.722  1.00  0.00     0.083 C 
HETATM    5  C   UNL     1      -5.992   3.683 -32.703  1.00  0.00     0.131 A 
HETATM    6  N   UNL     1      -7.057   2.903 -33.384  1.00  0.00    -0.251 NA
HETATM    7  C   UNL     1      -8.008   2.708 -32.508  1.00  0.00     0.132 A 
HETATM    8  C   UNL     1      -7.697   3.373 -31.187  1.00  0.00     0.272 A 
HETATM    9  O   UNL     1      -8.395   3.461 -30.207  1.00  0.00    -0.266 OA
HETATM   10  N   UNL     1      -6.455   3.896 -31.365  1.00  0.00    -0.327 N 
HETATM   11  C   UNL     1      -5.827   5.020 -33.443  1.00  0.00     0.083 C 
HETATM   12  C   UNL     1      -4.547   5.051 -34.256  1.00  0.00     0.240 C 
HETATM   13  H   UNL     1      -6.052   4.477 -30.641  1.00  0.00     0.165 HD
ENDROOT
BRANCH   1  14
HETATM   14  C   UNL     1      -2.881   6.100 -32.619  1.00  0.00     0.337 C 
BRANCH  14  15
HETATM   15  C   UNL     1      -1.539   6.559 -33.181  1.00  0.00     0.248 C 
HETATM   16  N   UNL     1      -0.461   6.822 -32.397  1.00  0.00    -0.326 N 
HETATM   17  H   UNL     1       0.372   6.993 -32.958  1.00  0.00     0.169 HD
HETATM   18  O   UNL     1      -1.424   6.632 -34.411  1.00  0.00    -0.271 OA
BRANCH  16  19
HETATM   19  C   UNL     1      -0.271   6.889 -31.005  1.00  0.00     0.034 A 
HETATM   20  C   UNL     1       0.368   5.923 -30.228  1.00  0.00     0.030 A 
HETATM   21  C   UNL     1       0.509   6.105 -28.843  1.00  0.00     0.020 A 
HETATM   22  C   UNL     1       0.000   7.246 -28.211  1.00  0.00     0.039 A 
HETATM   23  C   UNL     1      -0.666   8.201 -28.981  1.00  0.00     0.020 A 
HETATM   24  C   UNL     1      -0.804   8.017 -30.362  1.00  0.00     0.030 A 
BRANCH  22  25
HETATM   25  C   UNL     1       0.186   7.380 -26.740  1.00  0.00     0.293 C 
HETATM   26  O   UNL     1       1.275   7.284 -26.200  1.00  0.00    -0.259 OA
BRANCH  25  27
HETATM   27  O   UNL     1      -0.999   7.625 -26.131  1.00  0.00    -0.318 OA
BRANCH  27  28
HETATM   28  C   UNL     1      -1.883   6.499 -26.003  1.00  0.00     0.174 C 
HETATM   29  C   UNL     1      -3.257   6.855 -26.537  1.00  0.00     0.034 C 
ENDBRANCH  27  28
ENDBRANCH  25  27
ENDBRANCH  22  25
ENDBRANCH  16  19
ENDBRANCH  14  15
ENDBRANCH   1  14
BRANCH   7  30
HETATM   30  C   UNL     1      -9.233   1.930 -32.783  1.00  0.00    -0.002 A 
HETATM   31  C   UNL     1      -9.289   0.541 -32.617  1.00  0.00     0.016 A 
HETATM   32  C   UNL     1     -10.466  -0.158 -32.909  1.00  0.00     0.024 A 
HETATM   33  C   UNL     1     -11.588   0.526 -33.369  1.00  0.00     0.034 A 
HETATM   34 CL   UNL     1     -13.028  -0.338 -33.731  1.00  0.00    -0.084 Cl
HETATM   35  C   UNL     1     -11.544   1.907 -33.542  1.00  0.00     0.024 A 
HETATM   36  C   UNL     1     -10.369   2.608 -33.252  1.00  0.00     0.016 A 
ENDBRANCH   7  30
TORSDOF 7
ENDMDL
MODEL 9
REMARK VINA RESULT:      -8.1      3.895     10.096
REMARK  7 active torsions:
REMARK  status: ('A' for Active; 'I' for Inactive)
REMARK    1  A    between atoms: C_2  and  O_3 
REMARK    2  A    between atoms: O_3  and  C_4 
REMARK    3  A    between atoms: C_4  and  C_5 
REMARK    4  A    between atoms: C_8  and  N_9 
REMARK       I    between atoms: N_9  and  C_10 
REMARK    5  A    between atoms: C_10  and  C_11 
REMARK    6  A    between atoms: C_11  and  N_12 
REMARK    7  A    between atoms: C_18  and  C_19 
ROOT
HETATM    1  N   UNL     1      -5.991   5.153 -31.586  1.00  0.00    -0.063 N 
HETATM    2  H   UNL     1      -5.914   5.517 -30.616  1.00  0.00     0.280 HD
HETATM    3  C   UNL     1      -7.235   4.285 -31.571  1.00  0.00     0.240 C 
HETATM    4  C   UNL     1      -6.886   2.815 -31.695  1.00  0.00     0.083 C 
HETATM    5  C   UNL     1      -6.020   2.543 -32.933  1.00  0.00     0.131 A 
HETATM    6  N   UNL     1      -5.417   1.198 -32.749  1.00  0.00    -0.251 NA
HETATM    7  C   UNL     1      -5.843   0.450 -33.735  1.00  0.00     0.132 A 
HETATM    8  C   UNL     1      -6.722   1.227 -34.687  1.00  0.00     0.272 A 
HETATM    9  O   UNL     1      -7.200   0.865 -35.734  1.00  0.00    -0.266 OA
HETATM   10  N   UNL     1      -6.819   2.458 -34.117  1.00  0.00    -0.327 N 
HETATM   11  C   UNL     1      -4.882   3.560 -33.114  1.00  0.00     0.083 C 
HETATM   12  C   UNL     1      -4.708   4.425 -31.881  1.00  0.00     0.240 C 
HETATM   13  H   UNL     1      -7.292   3.201 -34.616  1.00  0.00     0.165 HD
ENDROOT
BRANCH   1  14
HETATM   14  C   UNL     1      -6.189   6.446 -32.413  1.00  0.00     0.337 C 
BRANCH  14  15
HETATM   15  C   UNL     1      -6.382   7.645 -31.490  1.00  0.00     0.248 C 
HETATM   16  N   UNL     1      -5.350   8.261 -30.856  1.00  0.00    -0.326 N 
HETATM   17  H   UNL     1      -5.659   9.111 -30.388  1.00  0.00     0.169 HD
HETATM   18  O   UNL     1      -7.526   8.102 -31.371  1.00  0.00    -0.271 OA
BRANCH  16  19
HETATM   19  C   UNL     1      -3.978   7.974 -30.735  1.00  0.00     0.034 A 
HETATM   20  C   UNL     1      -3.016   8.196 -31.719  1.00  0.00     0.030 A 
HETATM   21  C   UNL     1      -1.670   7.879 -31.479  1.00  0.00     0.020 A 
HETATM   22  C   UNL     1      -1.267   7.321 -30.260  1.00  0.00     0.039 A 
HETATM   23  C   UNL     1      -2.233   7.069 -29.284  1.00  0.00     0.020 A 
HETATM   24  C   UNL     1      -3.574   7.388 -29.526  1.00  0.00     0.030 A 
BRANCH  22  25
HETATM   25  C   UNL     1       0.176   7.010 -30.068  1.00  0.00     0.293 C 
HETATM   26  O   UNL     1       0.804   6.293 -30.829  1.00  0.00    -0.259 OA
BRANCH  25  27
HETATM   27  O   UNL     1       0.655   7.636 -28.967  1.00  0.00    -0.318 OA
BRANCH  27  28
HETATM   28  C   UNL     1       0.926   6.794 -27.835  1.00  0.00     0.174 C 
HETATM   29  C   UNL     1       1.458   7.626 -26.684  1.00  0.00     0.034 C 
ENDBRANCH  27  28
ENDBRANCH  25  27
ENDBRANCH  22  25
ENDBRANCH  16  19
ENDBRANCH  14  15
ENDBRANCH   1  14
BRANCH   7  30
HETATM   30  C   UNL     1      -5.503  -0.978 -33.889  1.00  0.00    -0.002 A 
HETATM   31  C   UNL     1      -6.311  -1.865 -34.611  1.00  0.00     0.016 A 
HETATM   32  C   UNL     1      -5.960  -3.216 -34.715  1.00  0.00     0.024 A 
HETATM   33  C   UNL     1      -4.804  -3.686 -34.097  1.00  0.00     0.034 A 
HETATM   34 CL   UNL     1      -4.381  -5.346 -34.222  1.00  0.00    -0.084 Cl
HETATM   35  C   UNL     1      -3.994  -2.815 -33.373  1.00  0.00     0.024 A 
HETATM   36  C   UNL     1      -4.343  -1.465 -33.267  1.00  0.00     0.016 A 
ENDBRANCH   7  30
TORSDOF 7
ENDMDL
MODEL 10
REMARK VINA RESULT:      -8.0      2.263      3.297
REMARK  7 active torsions:
REMARK  status: ('A' for Active; 'I' for Inactive)
REMARK    1  A    between atoms: C_2  and  O_3 
REMARK    2  A    between atoms: O_3  and  C_4 
REMARK    3  A    between atoms: C_4  and  C_5 
REMARK    4  A    between atoms: C_8  and  N_9 
REMARK       I    between atoms: N_9  and  C_10 
REMARK    5  A    between atoms: C_10  and  C_11 
REMARK    6  A    between atoms: C_11  and  N_12 
REMARK    7  A    between atoms: C_18  and  C_19 
ROOT
HETATM    1  N   UNL     1      -8.811   5.191 -32.077  1.00  0.00    -0.063 N 
HETATM    2  H   UNL     1      -9.694   5.633 -31.757  1.00  0.00     0.280 HD
HETATM    3  C   UNL     1      -8.278   4.471 -30.853  1.00  0.00     0.240 C 
HETATM    4  C   UNL     1      -7.034   5.146 -30.311  1.00  0.00     0.083 C 
HETATM    5  C   UNL     1      -5.956   5.296 -31.393  1.00  0.00     0.131 A 
HETATM    6  N   UNL     1      -4.977   6.292 -30.891  1.00  0.00    -0.251 NA
HETATM    7  C   UNL     1      -3.823   5.682 -30.800  1.00  0.00     0.132 A 
HETATM    8  C   UNL     1      -3.909   4.250 -31.274  1.00  0.00     0.272 A 
HETATM    9  O   UNL     1      -3.018   3.447 -31.405  1.00  0.00    -0.266 OA
HETATM   10  N   UNL     1      -5.225   4.078 -31.570  1.00  0.00    -0.327 N 
HETATM   11  C   UNL     1      -6.509   5.800 -32.736  1.00  0.00     0.083 C 
HETATM   12  C   UNL     1      -7.935   6.297 -32.598  1.00  0.00     0.240 C 
HETATM   13  H   UNL     1      -5.529   3.213 -31.998  1.00  0.00     0.165 HD
ENDROOT
BRANCH   1  14
HETATM   14  C   UNL     1      -9.304   4.208 -33.166  1.00  0.00     0.337 C 
BRANCH  14  15
HETATM   15  C   UNL     1     -10.313   3.226 -32.580  1.00  0.00     0.248 C 
HETATM   16  N   UNL     1     -10.015   1.924 -32.329  1.00  0.00    -0.326 N 
HETATM   17  H   UNL     1     -10.770   1.462 -31.826  1.00  0.00     0.169 HD
HETATM   18  O   UNL     1     -11.427   3.663 -32.266  1.00  0.00    -0.271 OA
BRANCH  16  19
HETATM   19  C   UNL     1      -8.897   1.116 -32.607  1.00  0.00     0.034 A 
HETATM   20  C   UNL     1      -7.843   0.864 -31.729  1.00  0.00     0.030 A 
HETATM   21  C   UNL     1      -6.783   0.030 -32.114  1.00  0.00     0.020 A 
HETATM   22  C   UNL     1      -6.750  -0.553 -33.387  1.00  0.00     0.039 A 
HETATM   23  C   UNL     1      -7.788  -0.279 -34.279  1.00  0.00     0.020 A 
HETATM   24  C   UNL     1      -8.845   0.553 -33.891  1.00  0.00     0.030 A 
BRANCH  22  25
HETATM   25  C   UNL     1      -5.599  -1.431 -33.732  1.00  0.00     0.293 C 
HETATM   26  O   UNL     1      -4.451  -1.023 -33.789  1.00  0.00    -0.259 OA
BRANCH  25  27
HETATM   27  O   UNL     1      -6.017  -2.701 -33.950  1.00  0.00    -0.318 OA
BRANCH  27  28
HETATM   28  C   UNL     1      -5.616  -3.287 -35.199  1.00  0.00     0.174 C 
HETATM   29  C   UNL     1      -6.406  -4.557 -35.454  1.00  0.00     0.034 C 
ENDBRANCH  27  28
ENDBRANCH  25  27
ENDBRANCH  22  25
ENDBRANCH  16  19
ENDBRANCH  14  15
ENDBRANCH   1  14
BRANCH   7  30
HETATM   30  C   UNL     1      -2.592   6.322 -30.294  1.00  0.00    -0.002 A 
HETATM   31  C   UNL     1      -1.376   6.255 -30.985  1.00  0.00     0.016 A 
HETATM   32  C   UNL     1      -0.229   6.859 -30.458  1.00  0.00     0.024 A 
HETATM   33  C   UNL     1      -0.292   7.530 -29.239  1.00  0.00     0.034 A 
HETATM   34 CL   UNL     1       1.119   8.265 -28.593  1.00  0.00    -0.084 Cl
HETATM   35  C   UNL     1      -1.494   7.600 -28.539  1.00  0.00     0.024 A 
HETATM   36  C   UNL     1      -2.641   6.996 -29.064  1.00  0.00     0.016 A 
ENDBRANCH   7  30
TORSDOF 7
ENDMDL
