MODEL 1
REMARK VINA RESULT:      -8.3      0.000      0.000
REMARK  4 active torsions:
REMARK  status: ('A' for Active; 'I' for Inactive)
REMARK    1  A    between atoms: C_4  and  C_5 
REMARK    2  A    between atoms: C_6  and  C_7 
REMARK       I    between atoms: C_7  and  N_8 
REMARK    3  A    between atoms: N_8  and  C_9 
REMARK    4  A    between atoms: C_11  and  C_12 
ROOT
HETATM    1  C   UNL     1      -6.779   0.453 -32.713  1.00  0.00     0.035 A 
HETATM    2  C   UNL     1      -6.412  -0.880 -32.930  1.00  0.00     0.042 A 
HETATM    3  C   UNL     1      -6.418  -1.445 -34.219  1.00  0.00    -0.021 A 
HETATM    4  C   UNL     1      -6.848  -0.651 -35.289  1.00  0.00     0.012 A 
HETATM    5  C   UNL     1      -7.264   0.664 -35.079  1.00  0.00     0.003 A 
HETATM    6  C   UNL     1      -7.233   1.209 -33.797  1.00  0.00     0.029 A 
ENDROOT
BRANCH   1   7
HETATM    7  N   UNL     1      -6.775   1.090 -31.456  1.00  0.00    -0.324 N 
HETATM    8  C   UNL     1      -5.850   1.850 -30.797  1.00  0.00     0.245 C 
HETATM    9  O   UNL     1      -6.014   2.100 -29.603  1.00  0.00    -0.268 OA
HETATM   10  H   UNL     1      -7.599   0.952 -30.883  1.00  0.00     0.169 HD
BRANCH   8  11
HETATM   11  C   UNL     1      -4.712   2.429 -31.540  1.00  0.00     0.077 C 
HETATM   12  C   UNL     1      -4.238   3.634 -31.194  1.00  0.00     0.042 C 
BRANCH  12  13
HETATM   13  C   UNL     1      -3.120   4.189 -31.871  1.00  0.00     0.075 A 
HETATM   14  O   UNL     1      -3.069   4.390 -33.235  1.00  0.00    -0.316 OA
HETATM   15  C   UNL     1      -1.851   4.901 -33.552  1.00  0.00     0.050 A 
HETATM   16  C   UNL     1      -1.606   5.173 -34.982  1.00  0.00     0.076 C 
HETATM   17  C   UNL     1      -1.095   5.057 -32.416  1.00  0.00     0.035 A 
HETATM   18  C   UNL     1      -1.901   4.596 -31.346  1.00  0.00     0.039 A 
ENDBRANCH  12  13
ENDBRANCH   8  11
ENDBRANCH   1   7
BRANCH   3  19
HETATM   19  C   UNL     1      -5.986  -2.820 -34.451  1.00  0.00     0.010 A 
HETATM   20  C   UNL     1      -6.708  -3.955 -34.901  1.00  0.00     0.152 A 
HETATM   21  N   UNL     1      -5.953  -5.052 -35.001  1.00  0.00    -0.187 NA
HETATM   22  N   UNL     1      -4.739  -4.631 -34.618  1.00  0.00    -0.289 N 
HETATM   23  H   UNL     1      -3.977  -5.300 -34.610  1.00  0.00     0.188 HD
HETATM   24  C   UNL     1      -4.704  -3.307 -34.285  1.00  0.00     0.123 A 
ENDBRANCH   3  19
TORSDOF 4
ENDMDL
MODEL 2
REMARK VINA RESULT:      -8.1     14.902     16.062
REMARK  4 active torsions:
REMARK  status: ('A' for Active; 'I' for Inactive)
REMARK    1  A    between atoms: C_4  and  C_5 
REMARK    2  A    between atoms: C_6  and  C_7 
REMARK       I    between atoms: C_7  and  N_8 
REMARK    3  A    between atoms: N_8  and  C_9 
REMARK    4  A    between atoms: C_11  and  C_12 
ROOT
HETATM    1  C   UNL     1      -6.130 -12.580 -38.240  1.00  0.00     0.035 A 
HETATM    2  C   UNL     1      -7.488 -12.757 -38.532  1.00  0.00     0.042 A 
HETATM    3  C   UNL     1      -7.985 -12.607 -39.840  1.00  0.00    -0.021 A 
HETATM    4  C   UNL     1      -7.092 -12.229 -40.851  1.00  0.00     0.012 A 
HETATM    5  C   UNL     1      -5.746 -12.001 -40.564  1.00  0.00     0.003 A 
HETATM    6  C   UNL     1      -5.271 -12.172 -39.264  1.00  0.00     0.029 A 
ENDROOT
BRANCH   1   7
HETATM    7  N   UNL     1      -5.559 -12.736 -36.962  1.00  0.00    -0.324 N 
HETATM    8  C   UNL     1      -4.480 -13.435 -36.499  1.00  0.00     0.245 C 
HETATM    9  O   UNL     1      -4.331 -13.582 -35.287  1.00  0.00    -0.268 OA
HETATM   10  H   UNL     1      -6.040 -12.273 -36.199  1.00  0.00     0.169 HD
BRANCH   8  11
HETATM   11  C   UNL     1      -3.466 -13.932 -37.450  1.00  0.00     0.077 C 
HETATM   12  C   UNL     1      -2.315 -13.260 -37.605  1.00  0.00     0.042 C 
BRANCH  12  13
HETATM   13  C   UNL     1      -1.313 -13.745 -38.486  1.00  0.00     0.075 A 
HETATM   14  O   UNL     1      -0.081 -14.207 -38.070  1.00  0.00    -0.316 OA
HETATM   15  C   UNL     1       0.641 -14.561 -39.165  1.00  0.00     0.050 A 
HETATM   16  C   UNL     1       2.003 -15.071 -38.916  1.00  0.00     0.076 C 
HETATM   17  C   UNL     1      -0.098 -14.355 -40.304  1.00  0.00     0.035 A 
HETATM   18  C   UNL     1      -1.340 -13.828 -39.872  1.00  0.00     0.039 A 
ENDBRANCH  12  13
ENDBRANCH   8  11
ENDBRANCH   1   7
BRANCH   3  19
HETATM   19  C   UNL     1      -9.392 -12.841 -40.152  1.00  0.00     0.010 A 
HETATM   20  C   UNL     1     -10.116 -14.050 -40.316  1.00  0.00     0.152 A 
HETATM   21  N   UNL     1     -11.409 -13.854 -40.588  1.00  0.00    -0.187 NA
HETATM   22  N   UNL     1     -11.527 -12.519 -40.598  1.00  0.00    -0.289 N 
HETATM   23  H   UNL     1     -12.439 -12.116 -40.786  1.00  0.00     0.188 HD
HETATM   24  C   UNL     1     -10.355 -11.868 -40.338  1.00  0.00     0.123 A 
ENDBRANCH   3  19
TORSDOF 4
ENDMDL
MODEL 3
REMARK VINA RESULT:      -8.0      2.421      3.868
REMARK  4 active torsions:
REMARK  status: ('A' for Active; 'I' for Inactive)
REMARK    1  A    between atoms: C_4  and  C_5 
REMARK    2  A    between atoms: C_6  and  C_7 
REMARK       I    between atoms: C_7  and  N_8 
REMARK    3  A    between atoms: N_8  and  C_9 
REMARK    4  A    between atoms: C_11  and  C_12 
ROOT
HETATM    1  C   UNL     1      -5.279  -0.937 -32.660  1.00  0.00     0.035 A 
HETATM    2  C   UNL     1      -6.499  -0.253 -32.644  1.00  0.00     0.042 A 
HETATM    3  C   UNL     1      -7.516  -0.539 -33.576  1.00  0.00    -0.021 A 
HETATM    4  C   UNL     1      -7.262  -1.502 -34.560  1.00  0.00     0.012 A 
HETATM    5  C   UNL     1      -6.031  -2.155 -34.618  1.00  0.00     0.003 A 
HETATM    6  C   UNL     1      -5.045  -1.870 -33.675  1.00  0.00     0.029 A 
ENDROOT
BRANCH   1   7
HETATM    7  N   UNL     1      -4.228  -0.721 -31.747  1.00  0.00    -0.324 N 
HETATM    8  C   UNL     1      -3.259   0.238 -31.647  1.00  0.00     0.245 C 
HETATM    9  O   UNL     1      -2.317   0.066 -30.875  1.00  0.00    -0.268 OA
HETATM   10  H   UNL     1      -4.118  -1.418 -31.020  1.00  0.00     0.169 HD
BRANCH   8  11
HETATM   11  C   UNL     1      -3.397   1.500 -32.400  1.00  0.00     0.077 C 
HETATM   12  C   UNL     1      -3.356   2.671 -31.747  1.00  0.00     0.042 C 
BRANCH  12  13
HETATM   13  C   UNL     1      -3.447   3.895 -32.460  1.00  0.00     0.075 A 
HETATM   14  O   UNL     1      -2.354   4.630 -32.870  1.00  0.00    -0.316 OA
HETATM   15  C   UNL     1      -2.796   5.755 -33.491  1.00  0.00     0.050 A 
HETATM   16  C   UNL     1      -1.760   6.678 -33.992  1.00  0.00     0.076 C 
HETATM   17  C   UNL     1      -4.170   5.772 -33.513  1.00  0.00     0.035 A 
HETATM   18  C   UNL     1      -4.584   4.591 -32.850  1.00  0.00     0.039 A 
ENDBRANCH  12  13
ENDBRANCH   8  11
ENDBRANCH   1   7
BRANCH   3  19
HETATM   19  C   UNL     1      -8.807   0.140 -33.526  1.00  0.00     0.010 A 
HETATM   20  C   UNL     1      -9.315   1.223 -34.288  1.00  0.00     0.152 A 
HETATM   21  N   UNL     1     -10.564   1.560 -33.954  1.00  0.00    -0.187 NA
HETATM   22  N   UNL     1     -10.869   0.695 -32.977  1.00  0.00    -0.289 N 
HETATM   23  H   UNL     1     -11.788   0.753 -32.551  1.00  0.00     0.188 HD
HETATM   24  C   UNL     1      -9.858  -0.177 -32.688  1.00  0.00     0.123 A 
ENDBRANCH   3  19
TORSDOF 4
ENDMDL
MODEL 4
REMARK VINA RESULT:      -7.9      3.098      7.600
REMARK  4 active torsions:
REMARK  status: ('A' for Active; 'I' for Inactive)
REMARK    1  A    between atoms: C_4  and  C_5 
REMARK    2  A    between atoms: C_6  and  C_7 
REMARK       I    between atoms: C_7  and  N_8 
REMARK    3  A    between atoms: N_8  and  C_9 
REMARK    4  A    between atoms: C_11  and  C_12 
ROOT
HETATM    1  C   UNL     1      -5.821   1.671 -32.543  1.00  0.00     0.035 A 
HETATM    2  C   UNL     1      -4.925   2.718 -32.786  1.00  0.00     0.042 A 
HETATM    3  C   UNL     1      -3.661   2.764 -32.169  1.00  0.00    -0.021 A 
HETATM    4  C   UNL     1      -3.329   1.751 -31.261  1.00  0.00     0.012 A 
HETATM    5  C   UNL     1      -4.233   0.728 -30.972  1.00  0.00     0.003 A 
HETATM    6  C   UNL     1      -5.473   0.692 -31.608  1.00  0.00     0.029 A 
ENDROOT
BRANCH   1   7
HETATM    7  N   UNL     1      -7.091   1.548 -33.142  1.00  0.00    -0.324 N 
HETATM    8  C   UNL     1      -7.712   0.535 -33.816  1.00  0.00     0.245 C 
HETATM    9  O   UNL     1      -8.748   0.769 -34.437  1.00  0.00    -0.268 OA
HETATM   10  H   UNL     1      -7.679   2.373 -33.112  1.00  0.00     0.169 HD
BRANCH   8  11
HETATM   11  C   UNL     1      -7.181  -0.840 -33.725  1.00  0.00     0.077 C 
HETATM   12  C   UNL     1      -6.668  -1.427 -34.816  1.00  0.00     0.042 C 
BRANCH  12  13
HETATM   13  C   UNL     1      -6.118  -2.734 -34.737  1.00  0.00     0.075 A 
HETATM   14  O   UNL     1      -4.884  -3.018 -34.190  1.00  0.00    -0.316 OA
HETATM   15  C   UNL     1      -4.656  -4.352 -34.306  1.00  0.00     0.050 A 
HETATM   16  C   UNL     1      -3.367  -4.845 -33.780  1.00  0.00     0.076 C 
HETATM   17  C   UNL     1      -5.727  -4.963 -34.911  1.00  0.00     0.035 A 
HETATM   18  C   UNL     1      -6.655  -3.931 -35.192  1.00  0.00     0.039 A 
ENDBRANCH  12  13
ENDBRANCH   8  11
ENDBRANCH   1   7
BRANCH   3  19
HETATM   19  C   UNL     1      -2.708   3.830 -32.462  1.00  0.00     0.010 A 
HETATM   20  C   UNL     1      -2.339   4.431 -33.693  1.00  0.00     0.152 A 
HETATM   21  N   UNL     1      -1.428   5.398 -33.553  1.00  0.00    -0.187 NA
HETATM   22  N   UNL     1      -1.206   5.428 -32.231  1.00  0.00    -0.289 N 
HETATM   23  H   UNL     1      -0.536   6.098 -31.870  1.00  0.00     0.188 HD
HETATM   24  C   UNL     1      -1.948   4.517 -31.535  1.00  0.00     0.123 A 
ENDBRANCH   3  19
TORSDOF 4
ENDMDL
MODEL 5
REMARK VINA RESULT:      -7.9      2.727      3.453
REMARK  4 active torsions:
REMARK  status: ('A' for Active; 'I' for Inactive)
REMARK    1  A    between atoms: C_4  and  C_5 
REMARK    2  A    between atoms: C_6  and  C_7 
REMARK       I    between atoms: C_7  and  N_8 
REMARK    3  A    between atoms: N_8  and  C_9 
REMARK    4  A    between atoms: C_11  and  C_12 
ROOT
HETATM    1  C   UNL     1      -7.061   1.487 -34.069  1.00  0.00     0.035 A 
HETATM    2  C   UNL     1      -5.961   1.113 -33.290  1.00  0.00     0.042 A 
HETATM    3  C   UNL     1      -5.384  -0.167 -33.398  1.00  0.00    -0.021 A 
HETATM    4  C   UNL     1      -5.968  -1.086 -34.278  1.00  0.00     0.012 A 
HETATM    5  C   UNL     1      -7.095  -0.741 -35.024  1.00  0.00     0.003 A 
HETATM    6  C   UNL     1      -7.640   0.537 -34.915  1.00  0.00     0.029 A 
ENDROOT
BRANCH   1   7
HETATM    7  N   UNL     1      -7.675   2.755 -34.031  1.00  0.00    -0.324 N 
HETATM    8  C   UNL     1      -7.186   4.027 -33.923  1.00  0.00     0.245 C 
HETATM    9  O   UNL     1      -7.961   4.953 -33.685  1.00  0.00    -0.268 OA
HETATM   10  H   UNL     1      -8.688   2.761 -34.055  1.00  0.00     0.169 HD
BRANCH   8  11
HETATM   11  C   UNL     1      -5.754   4.286 -34.173  1.00  0.00     0.077 C 
HETATM   12  C   UNL     1      -5.176   5.376 -33.648  1.00  0.00     0.042 C 
BRANCH  12  13
HETATM   13  C   UNL     1      -3.791   5.620 -33.845  1.00  0.00     0.075 A 
HETATM   14  O   UNL     1      -2.998   6.315 -32.957  1.00  0.00    -0.316 OA
HETATM   15  C   UNL     1      -1.741   6.393 -33.467  1.00  0.00     0.050 A 
HETATM   16  C   UNL     1      -0.746   7.118 -32.652  1.00  0.00     0.076 C 
HETATM   17  C   UNL     1      -1.683   5.746 -34.677  1.00  0.00     0.035 A 
HETATM   18  C   UNL     1      -2.990   5.260 -34.922  1.00  0.00     0.039 A 
ENDBRANCH  12  13
ENDBRANCH   8  11
ENDBRANCH   1   7
BRANCH   3  19
HETATM   19  C   UNL     1      -4.205  -0.539 -32.621  1.00  0.00     0.010 A 
HETATM   20  C   UNL     1      -3.307   0.254 -31.862  1.00  0.00     0.152 A 
HETATM   21  N   UNL     1      -2.342  -0.460 -31.275  1.00  0.00    -0.187 NA
HETATM   22  N   UNL     1      -2.615  -1.718 -31.651  1.00  0.00    -0.289 N 
HETATM   23  H   UNL     1      -2.007  -2.461 -31.323  1.00  0.00     0.188 HD
HETATM   24  C   UNL     1      -3.718  -1.820 -32.449  1.00  0.00     0.123 A 
ENDBRANCH   3  19
TORSDOF 4
ENDMDL
MODEL 6
REMARK VINA RESULT:      -7.8      2.079      2.922
REMARK  4 active torsions:
REMARK  status: ('A' for Active; 'I' for Inactive)
REMARK    1  A    between atoms: C_4  and  C_5 
REMARK    2  A    between atoms: C_6  and  C_7 
REMARK       I    between atoms: C_7  and  N_8 
REMARK    3  A    between atoms: N_8  and  C_9 
REMARK    4  A    between atoms: C_11  and  C_12 
ROOT
HETATM    1  C   UNL     1      -6.973   1.791 -32.966  1.00  0.00     0.035 A 
HETATM    2  C   UNL     1      -6.558   0.661 -33.679  1.00  0.00     0.042 A 
HETATM    3  C   UNL     1      -6.003  -0.458 -33.028  1.00  0.00    -0.021 A 
HETATM    4  C   UNL     1      -5.831  -0.400 -31.640  1.00  0.00     0.012 A 
HETATM    5  C   UNL     1      -6.196   0.740 -30.923  1.00  0.00     0.003 A 
HETATM    6  C   UNL     1      -6.759   1.830 -31.585  1.00  0.00     0.029 A 
ENDROOT
BRANCH   1   7
HETATM    7  N   UNL     1      -7.556   2.934 -33.546  1.00  0.00    -0.324 N 
HETATM    8  C   UNL     1      -7.055   4.144 -33.934  1.00  0.00     0.245 C 
HETATM    9  O   UNL     1      -7.830   5.060 -34.209  1.00  0.00    -0.268 OA
HETATM   10  H   UNL     1      -8.559   2.899 -33.691  1.00  0.00     0.169 HD
BRANCH   8  11
HETATM   11  C   UNL     1      -5.597   4.315 -34.098  1.00  0.00     0.077 C 
HETATM   12  C   UNL     1      -5.008   5.441 -33.671  1.00  0.00     0.042 C 
BRANCH  12  13
HETATM   13  C   UNL     1      -3.603   5.606 -33.785  1.00  0.00     0.075 A 
HETATM   14  O   UNL     1      -2.814   6.184 -32.812  1.00  0.00    -0.316 OA
HETATM   15  C   UNL     1      -1.530   6.213 -33.256  1.00  0.00     0.050 A 
HETATM   16  C   UNL     1      -0.534   6.812 -32.346  1.00  0.00     0.076 C 
HETATM   17  C   UNL     1      -1.451   5.649 -34.506  1.00  0.00     0.035 A 
HETATM   18  C   UNL     1      -2.772   5.269 -34.846  1.00  0.00     0.039 A 
ENDBRANCH  12  13
ENDBRANCH   8  11
ENDBRANCH   1   7
BRANCH   3  19
HETATM   19  C   UNL     1      -5.617  -1.656 -33.768  1.00  0.00     0.010 A 
HETATM   20  C   UNL     1      -4.390  -2.367 -33.806  1.00  0.00     0.152 A 
HETATM   21  N   UNL     1      -4.427  -3.437 -34.604  1.00  0.00    -0.187 NA
HETATM   22  N   UNL     1      -5.680  -3.424 -35.084  1.00  0.00    -0.289 N 
HETATM   23  H   UNL     1      -5.957  -4.157 -35.728  1.00  0.00     0.188 HD
HETATM   24  C   UNL     1      -6.431  -2.386 -34.612  1.00  0.00     0.123 A 
ENDBRANCH   3  19
TORSDOF 4
ENDMDL
MODEL 7
REMARK VINA RESULT:      -7.5      4.053      6.852
REMARK  4 active torsions:
REMARK  status: ('A' for Active; 'I' for Inactive)
REMARK    1  A    between atoms: C_4  and  C_5 
REMARK    2  A    between atoms: C_6  and  C_7 
REMARK       I    between atoms: C_7  and  N_8 
REMARK    3  A    between atoms: N_8  and  C_9 
REMARK    4  A    between atoms: C_11  and  C_12 
ROOT
HETATM    1  C   UNL     1      -6.668   1.551 -34.090  1.00  0.00     0.035 A 
HETATM    2  C   UNL     1      -5.682   0.867 -33.369  1.00  0.00     0.042 A 
HETATM    3  C   UNL     1      -5.480  -0.517 -33.529  1.00  0.00    -0.021 A 
HETATM    4  C   UNL     1      -6.325  -1.215 -34.400  1.00  0.00     0.012 A 
HETATM    5  C   UNL     1      -7.344  -0.554 -35.087  1.00  0.00     0.003 A 
HETATM    6  C   UNL     1      -7.515   0.820 -34.928  1.00  0.00     0.029 A 
ENDROOT
BRANCH   1   7
HETATM    7  N   UNL     1      -6.910   2.936 -34.000  1.00  0.00    -0.324 N 
HETATM    8  C   UNL     1      -8.052   3.686 -34.000  1.00  0.00     0.245 C 
HETATM    9  O   UNL     1      -7.972   4.907 -34.136  1.00  0.00    -0.268 OA
HETATM   10  H   UNL     1      -6.090   3.530 -33.955  1.00  0.00     0.169 HD
BRANCH   8  11
HETATM   11  C   UNL     1      -9.356   3.038 -33.755  1.00  0.00     0.077 C 
HETATM   12  C   UNL     1     -10.378   3.265 -34.593  1.00  0.00     0.042 C 
BRANCH  12  13
HETATM   13  C   UNL     1     -11.627   2.619 -34.395  1.00  0.00     0.075 A 
HETATM   14  O   UNL     1     -12.489   2.911 -33.359  1.00  0.00    -0.316 OA
HETATM   15  C   UNL     1     -13.567   2.091 -33.448  1.00  0.00     0.050 A 
HETATM   16  C   UNL     1     -14.602   2.251 -32.407  1.00  0.00     0.076 C 
HETATM   17  C   UNL     1     -13.443   1.265 -34.539  1.00  0.00     0.035 A 
HETATM   18  C   UNL     1     -12.203   1.596 -35.138  1.00  0.00     0.039 A 
ENDBRANCH  12  13
ENDBRANCH   8  11
ENDBRANCH   1   7
BRANCH   3  19
HETATM   19  C   UNL     1      -4.418  -1.219 -32.814  1.00  0.00     0.010 A 
HETATM   20  C   UNL     1      -3.996  -2.572 -32.877  1.00  0.00     0.152 A 
HETATM   21  N   UNL     1      -2.967  -2.840 -32.069  1.00  0.00    -0.187 NA
HETATM   22  N   UNL     1      -2.718  -1.660 -31.482  1.00  0.00    -0.289 N 
HETATM   23  H   UNL     1      -1.961  -1.607 -30.809  1.00  0.00     0.188 HD
HETATM   24  C   UNL     1      -3.551  -0.661 -31.896  1.00  0.00     0.123 A 
ENDBRANCH   3  19
TORSDOF 4
ENDMDL
MODEL 8
REMARK VINA RESULT:      -7.5      3.584      6.545
REMARK  4 active torsions:
REMARK  status: ('A' for Active; 'I' for Inactive)
REMARK    1  A    between atoms: C_4  and  C_5 
REMARK    2  A    between atoms: C_6  and  C_7 
REMARK       I    between atoms: C_7  and  N_8 
REMARK    3  A    between atoms: N_8  and  C_9 
REMARK    4  A    between atoms: C_11  and  C_12 
ROOT
HETATM    1  C   UNL     1      -6.645   2.137 -32.559  1.00  0.00     0.035 A 
HETATM    2  C   UNL     1      -6.236   1.055 -33.348  1.00  0.00     0.042 A 
HETATM    3  C   UNL     1      -6.074  -0.233 -32.805  1.00  0.00    -0.021 A 
HETATM    4  C   UNL     1      -6.288  -0.406 -31.432  1.00  0.00     0.012 A 
HETATM    5  C   UNL     1      -6.648   0.674 -30.625  1.00  0.00     0.003 A 
HETATM    6  C   UNL     1      -6.820   1.938 -31.187  1.00  0.00     0.029 A 
ENDROOT
BRANCH   1   7
HETATM    7  N   UNL     1      -6.850   3.445 -33.039  1.00  0.00    -0.324 N 
HETATM    8  C   UNL     1      -7.921   4.075 -33.607  1.00  0.00     0.245 C 
HETATM    9  O   UNL     1      -7.762   5.170 -34.146  1.00  0.00    -0.268 OA
HETATM   10  H   UNL     1      -6.050   4.065 -32.998  1.00  0.00     0.169 HD
BRANCH   8  11
HETATM   11  C   UNL     1      -9.267   3.478 -33.495  1.00  0.00     0.077 C 
HETATM   12  C   UNL     1      -9.870   2.990 -34.589  1.00  0.00     0.042 C 
BRANCH  12  13
HETATM   13  C   UNL     1     -11.147   2.377 -34.493  1.00  0.00     0.075 A 
HETATM   14  O   UNL     1     -11.360   1.122 -33.960  1.00  0.00    -0.316 OA
HETATM   15  C   UNL     1     -12.684   0.832 -34.053  1.00  0.00     0.050 A 
HETATM   16  C   UNL     1     -13.104  -0.486 -33.538  1.00  0.00     0.076 C 
HETATM   17  C   UNL     1     -13.358   1.881 -34.628  1.00  0.00     0.035 A 
HETATM   18  C   UNL     1     -12.378   2.862 -34.915  1.00  0.00     0.039 A 
ENDBRANCH  12  13
ENDBRANCH   8  11
ENDBRANCH   1   7
BRANCH   3  19
HETATM   19  C   UNL     1      -5.697  -1.370 -33.639  1.00  0.00     0.010 A 
HETATM   20  C   UNL     1      -6.437  -2.094 -34.609  1.00  0.00     0.152 A 
HETATM   21  N   UNL     1      -5.735  -3.076 -35.180  1.00  0.00    -0.187 NA
HETATM   22  N   UNL     1      -4.537  -2.990 -34.583  1.00  0.00    -0.289 N 
HETATM   23  H   UNL     1      -3.815  -3.648 -34.856  1.00  0.00     0.188 HD
HETATM   24  C   UNL     1      -4.461  -1.986 -33.661  1.00  0.00     0.123 A 
ENDBRANCH   3  19
TORSDOF 4
ENDMDL
MODEL 9
REMARK VINA RESULT:      -7.4     15.005     16.905
REMARK  4 active torsions:
REMARK  status: ('A' for Active; 'I' for Inactive)
REMARK    1  A    between atoms: C_4  and  C_5 
REMARK    2  A    between atoms: C_6  and  C_7 
REMARK       I    between atoms: C_7  and  N_8 
REMARK    3  A    between atoms: N_8  and  C_9 
REMARK    4  A    between atoms: C_11  and  C_12 
ROOT
HETATM    1  C   UNL     1      -2.069 -13.981 -40.332  1.00  0.00     0.035 A 
HETATM    2  C   UNL     1      -2.857 -13.988 -39.175  1.00  0.00     0.042 A 
HETATM    3  C   UNL     1      -2.279 -13.995 -37.892  1.00  0.00    -0.021 A 
HETATM    4  C   UNL     1      -0.883 -14.040 -37.792  1.00  0.00     0.012 A 
HETATM    5  C   UNL     1      -0.088 -14.083 -38.938  1.00  0.00     0.003 A 
HETATM    6  C   UNL     1      -0.680 -14.058 -40.199  1.00  0.00     0.029 A 
ENDROOT
BRANCH   1   7
HETATM    7  N   UNL     1      -2.577 -13.951 -41.646  1.00  0.00    -0.324 N 
HETATM    8  C   UNL     1      -3.832 -14.095 -42.166  1.00  0.00     0.245 C 
HETATM    9  O   UNL     1      -3.969 -14.251 -43.379  1.00  0.00    -0.268 OA
HETATM   10  H   UNL     1      -1.894 -13.830 -42.385  1.00  0.00     0.169 HD
BRANCH   8  11
HETATM   11  C   UNL     1      -5.010 -13.981 -41.283  1.00  0.00     0.077 C 
HETATM   12  C   UNL     1      -5.580 -12.783 -41.089  1.00  0.00     0.042 C 
BRANCH  12  13
HETATM   13  C   UNL     1      -6.737 -12.661 -40.275  1.00  0.00     0.075 A 
HETATM   14  O   UNL     1      -8.020 -12.557 -40.770  1.00  0.00    -0.316 OA
HETATM   15  C   UNL     1      -8.878 -12.422 -39.726  1.00  0.00     0.050 A 
HETATM   16  C   UNL     1     -10.308 -12.284 -40.065  1.00  0.00     0.076 C 
HETATM   17  C   UNL     1      -8.186 -12.450 -38.540  1.00  0.00     0.035 A 
HETATM   18  C   UNL     1      -6.821 -12.594 -38.890  1.00  0.00     0.039 A 
ENDBRANCH  12  13
ENDBRANCH   8  11
ENDBRANCH   1   7
BRANCH   3  19
HETATM   19  C   UNL     1      -3.101 -13.952 -36.686  1.00  0.00     0.010 A 
HETATM   20  C   UNL     1      -4.139 -13.064 -36.303  1.00  0.00     0.152 A 
HETATM   21  N   UNL     1      -4.670 -13.358 -35.113  1.00  0.00    -0.187 NA
HETATM   22  N   UNL     1      -3.979 -14.439 -34.723  1.00  0.00    -0.289 N 
HETATM   23  H   UNL     1      -4.205 -14.858 -33.827  1.00  0.00     0.188 HD
HETATM   24  C   UNL     1      -3.036 -14.836 -35.627  1.00  0.00     0.123 A 
ENDBRANCH   3  19
TORSDOF 4
ENDMDL
MODEL 10
REMARK VINA RESULT:      -7.4      2.387      4.582
REMARK  4 active torsions:
REMARK  status: ('A' for Active; 'I' for Inactive)
REMARK    1  A    between atoms: C_4  and  C_5 
REMARK    2  A    between atoms: C_6  and  C_7 
REMARK       I    between atoms: C_7  and  N_8 
REMARK    3  A    between atoms: N_8  and  C_9 
REMARK    4  A    between atoms: C_11  and  C_12 
ROOT
HETATM    1  C   UNL     1      -4.768  -1.500 -33.030  1.00  0.00     0.035 A 
HETATM    2  C   UNL     1      -5.798  -0.664 -32.584  1.00  0.00     0.042 A 
HETATM    3  C   UNL     1      -7.054  -0.642 -33.219  1.00  0.00    -0.021 A 
HETATM    4  C   UNL     1      -7.243  -1.450 -34.347  1.00  0.00     0.012 A 
HETATM    5  C   UNL     1      -6.207  -2.251 -34.831  1.00  0.00     0.003 A 
HETATM    6  C   UNL     1      -4.977  -2.271 -34.177  1.00  0.00     0.029 A 
ENDROOT
BRANCH   1   7
HETATM    7  N   UNL     1      -3.495  -1.592 -32.432  1.00  0.00    -0.324 N 
HETATM    8  C   UNL     1      -2.733  -0.711 -31.717  1.00  0.00     0.245 C 
HETATM    9  O   UNL     1      -1.551  -0.974 -31.499  1.00  0.00    -0.268 OA
HETATM   10  H   UNL     1      -3.002  -2.467 -32.566  1.00  0.00     0.169 HD
BRANCH   8  11
HETATM   11  C   UNL     1      -3.355   0.500 -31.145  1.00  0.00     0.077 C 
HETATM   12  C   UNL     1      -3.329   1.649 -31.837  1.00  0.00     0.042 C 
BRANCH  12  13
HETATM   13  C   UNL     1      -3.956   2.813 -31.320  1.00  0.00     0.075 A 
HETATM   14  O   UNL     1      -5.145   2.802 -30.622  1.00  0.00    -0.316 OA
HETATM   15  C   UNL     1      -5.474   4.081 -30.305  1.00  0.00     0.050 A 
HETATM   16  C   UNL     1      -6.734   4.269 -29.559  1.00  0.00     0.076 C 
HETATM   17  C   UNL     1      -4.513   4.944 -30.771  1.00  0.00     0.035 A 
HETATM   18  C   UNL     1      -3.549   4.137 -31.424  1.00  0.00     0.039 A 
ENDBRANCH  12  13
ENDBRANCH   8  11
ENDBRANCH   1   7
BRANCH   3  19
HETATM   19  C   UNL     1      -8.144   0.193 -32.722  1.00  0.00     0.010 A 
HETATM   20  C   UNL     1      -8.121   1.411 -31.995  1.00  0.00     0.152 A 
HETATM   21  N   UNL     1      -9.341   1.886 -31.728  1.00  0.00    -0.187 NA
HETATM   22  N   UNL     1     -10.157   0.979 -32.284  1.00  0.00    -0.289 N 
HETATM   23  H   UNL     1     -11.158   1.123 -32.212  1.00  0.00     0.188 HD
HETATM   24  C   UNL     1      -9.493  -0.047 -32.894  1.00  0.00     0.123 A 
ENDBRANCH   3  19
TORSDOF 4
ENDMDL
