MODEL 1
REMARK VINA RESULT:      -8.0      0.000      0.000
REMARK  8 active torsions:
REMARK  status: ('A' for Active; 'I' for Inactive)
REMARK    1  A    between atoms: C_2  and  O_3 
REMARK    2  A    between atoms: C_2  and  C_4 
REMARK    3  A    between atoms: C_2  and  C_29 
REMARK    4  A    between atoms: N_11  and  C_13 
REMARK    5  A    between atoms: C_13  and  C_14 
REMARK    6  A    between atoms: C_16  and  S_17 
REMARK    7  A    between atoms: S_17  and  C_18 
REMARK    8  A    between atoms: C_29  and  N_30 
ROOT
HETATM    1  C   UNL     1      -8.243   1.056 -33.856  1.00  0.00    -0.022 A 
HETATM    2  C   UNL     1      -7.460   0.772 -32.715  1.00  0.00     0.022 A 
HETATM    3  C   UNL     1      -6.547  -0.297 -32.664  1.00  0.00     0.002 A 
HETATM    4  C   UNL     1      -6.395  -1.087 -33.799  1.00  0.00     0.076 A 
HETATM    5  O   UNL     1      -5.545  -2.155 -33.820  1.00  0.00    -0.349 OA
HETATM    6  C   UNL     1      -4.174  -1.744 -33.744  1.00  0.00     0.203 C 
HETATM    7  C   UNL     1      -3.694  -1.684 -32.292  1.00  0.00     0.262 C 
HETATM    8  N   UNL     1      -4.284  -0.523 -31.513  1.00  0.00    -0.059 N 
HETATM    9  H   UNL     1      -3.956  -0.647 -30.548  1.00  0.00     0.280 HD
HETATM   10  C   UNL     1      -5.794  -0.601 -31.399  1.00  0.00     0.276 C 
HETATM   11  C   UNL     1      -7.157  -0.847 -34.937  1.00  0.00     0.038 A 
HETATM   12  C   UNL     1      -8.061   0.221 -34.971  1.00  0.00     0.013 A 
ENDROOT
BRANCH   8  13
HETATM   13  C   UNL     1      -3.756   0.831 -31.937  1.00  0.00     0.299 C 
BRANCH  13  14
HETATM   14  C   UNL     1      -4.473   1.967 -31.304  1.00  0.00     0.080 A 
HETATM   15  O   UNL     1      -4.595   3.101 -32.050  1.00  0.00    -0.306 OA
HETATM   16  C   UNL     1      -5.323   4.004 -31.320  1.00  0.00     0.120 A 
HETATM   17  C   UNL     1      -5.617   3.454 -30.089  1.00  0.00     0.047 A 
HETATM   18  C   UNL     1      -5.079   2.143 -30.079  1.00  0.00     0.038 A 
BRANCH  16  19
HETATM   19  S   UNL     1      -5.750   5.584 -31.922  1.00  0.00    -0.025 SA
BRANCH  19  20
HETATM   20  C   UNL     1      -4.776   5.561 -33.350  1.00  0.00     0.197 A 
HETATM   21  N   UNL     1      -3.459   5.923 -33.377  1.00  0.00    -0.322 N 
HETATM   22  C   UNL     1      -2.638   6.415 -32.302  1.00  0.00     0.159 C 
HETATM   23  C   UNL     1      -3.056   5.739 -34.668  1.00  0.00     0.235 A 
HETATM   24  N   UNL     1      -4.057   5.271 -35.381  1.00  0.00    -0.143 NA
HETATM   25  N   UNL     1      -5.144   5.167 -34.550  1.00  0.00    -0.123 NA
ENDBRANCH  19  20
ENDBRANCH  16  19
ENDBRANCH  13  14
ENDBRANCH   8  13
BRANCH   1  26
HETATM   26  C   UNL     1      -9.208   2.259 -33.860  1.00  0.00     0.105 C 
HETATM   27  C   UNL     1      -8.447   3.597 -33.949  1.00  0.00     0.053 C 
BRANCH  26  28
HETATM   28  O   UNL     1     -10.013   2.142 -35.043  1.00  0.00    -0.384 OA
HETATM   29  H   UNL     1      -9.603   1.483 -35.634  1.00  0.00     0.211 HD
ENDBRANCH  26  28
BRANCH  26  30
HETATM   30  C   UNL     1     -10.179   2.288 -32.622  1.00  0.00     0.276 C 
BRANCH  30  31
HETATM   31  N   UNL     1     -10.236   3.612 -31.847  1.00  0.00    -0.076 N 
HETATM   32  H   UNL     1      -9.603   4.285 -32.294  1.00  0.00     0.279 HD
HETATM   33  C   UNL     1     -11.606   4.245 -31.837  1.00  0.00     0.269 C 
HETATM   34  C   UNL     1      -9.720   3.434 -30.443  1.00  0.00     0.269 C 
ENDBRANCH  30  31
ENDBRANCH  26  30
ENDBRANCH   1  26
TORSDOF 8
ENDMDL
MODEL 2
REMARK VINA RESULT:      -7.8      3.868      8.829
REMARK  8 active torsions:
REMARK  status: ('A' for Active; 'I' for Inactive)
REMARK    1  A    between atoms: C_2  and  O_3 
REMARK    2  A    between atoms: C_2  and  C_4 
REMARK    3  A    between atoms: C_2  and  C_29 
REMARK    4  A    between atoms: N_11  and  C_13 
REMARK    5  A    between atoms: C_13  and  C_14 
REMARK    6  A    between atoms: C_16  and  S_17 
REMARK    7  A    between atoms: S_17  and  C_18 
REMARK    8  A    between atoms: C_29  and  N_30 
ROOT
HETATM    1  C   UNL     1      -0.963   7.010 -29.838  1.00  0.00    -0.022 A 
HETATM    2  C   UNL     1      -2.172   6.895 -30.560  1.00  0.00     0.022 A 
HETATM    3  C   UNL     1      -2.216   6.804 -31.963  1.00  0.00     0.002 A 
HETATM    4  C   UNL     1      -1.012   6.801 -32.661  1.00  0.00     0.076 A 
HETATM    5  O   UNL     1      -0.974   6.738 -34.024  1.00  0.00    -0.349 OA
HETATM    6  C   UNL     1      -1.426   5.468 -34.509  1.00  0.00     0.203 C 
HETATM    7  C   UNL     1      -2.932   5.483 -34.782  1.00  0.00     0.262 C 
HETATM    8  N   UNL     1      -3.770   5.514 -33.517  1.00  0.00    -0.059 N 
HETATM    9  H   UNL     1      -4.742   5.609 -33.835  1.00  0.00     0.280 HD
HETATM   10  C   UNL     1      -3.533   6.759 -32.686  1.00  0.00     0.276 C 
HETATM   11  C   UNL     1       0.197   6.926 -31.987  1.00  0.00     0.038 A 
HETATM   12  C   UNL     1       0.223   7.015 -30.590  1.00  0.00     0.013 A 
ENDROOT
BRANCH   8  13
HETATM   13  C   UNL     1      -3.740   4.220 -32.731  1.00  0.00     0.299 C 
BRANCH  13  14
HETATM   14  C   UNL     1      -4.880   3.319 -33.038  1.00  0.00     0.080 A 
HETATM   15  O   UNL     1      -4.980   2.185 -32.288  1.00  0.00    -0.306 OA
HETATM   16  C   UNL     1      -6.111   1.520 -32.683  1.00  0.00     0.120 A 
HETATM   17  C   UNL     1      -6.700   2.213 -33.721  1.00  0.00     0.047 A 
HETATM   18  C   UNL     1      -5.916   3.373 -33.946  1.00  0.00     0.038 A 
BRANCH  16  19
HETATM   19  S   UNL     1      -6.640   0.031 -31.948  1.00  0.00    -0.025 SA
BRANCH  19  20
HETATM   20  C   UNL     1      -5.967  -1.057 -33.111  1.00  0.00     0.197 A 
HETATM   21  N   UNL     1      -4.705  -1.574 -33.026  1.00  0.00    -0.322 N 
HETATM   22  C   UNL     1      -3.691  -1.318 -32.036  1.00  0.00     0.159 C 
HETATM   23  C   UNL     1      -4.574  -2.397 -34.107  1.00  0.00     0.235 A 
HETATM   24  N   UNL     1      -5.694  -2.403 -34.797  1.00  0.00    -0.143 NA
HETATM   25  N   UNL     1      -6.570  -1.551 -34.171  1.00  0.00    -0.123 NA
ENDBRANCH  19  20
ENDBRANCH  16  19
ENDBRANCH  13  14
ENDBRANCH   8  13
BRANCH   1  26
HETATM   26  C   UNL     1      -0.978   7.080 -28.297  1.00  0.00     0.105 C 
HETATM   27  C   UNL     1      -2.412   7.216 -27.750  1.00  0.00     0.053 C 
BRANCH  26  28
HETATM   28  O   UNL     1      -0.452   5.832 -27.820  1.00  0.00    -0.384 OA
HETATM   29  H   UNL     1      -0.740   5.704 -26.897  1.00  0.00     0.211 HD
ENDBRANCH  26  28
BRANCH  26  30
HETATM   30  C   UNL     1      -0.081   8.232 -27.713  1.00  0.00     0.276 C 
BRANCH  30  31
HETATM   31  N   UNL     1       0.357   8.063 -26.251  1.00  0.00    -0.076 N 
HETATM   32  H   UNL     1      -0.034   7.187 -25.887  1.00  0.00     0.279 HD
HETATM   33  C   UNL     1       1.854   7.975 -26.078  1.00  0.00     0.269 C 
HETATM   34  C   UNL     1      -0.216   9.158 -25.389  1.00  0.00     0.269 C 
ENDBRANCH  30  31
ENDBRANCH  26  30
ENDBRANCH   1  26
TORSDOF 8
ENDMDL
MODEL 3
REMARK VINA RESULT:      -7.8      3.571      8.492
REMARK  8 active torsions:
REMARK  status: ('A' for Active; 'I' for Inactive)
REMARK    1  A    between atoms: C_2  and  O_3 
REMARK    2  A    between atoms: C_2  and  C_4 
REMARK    3  A    between atoms: C_2  and  C_29 
REMARK    4  A    between atoms: N_11  and  C_13 
REMARK    5  A    between atoms: C_13  and  C_14 
REMARK    6  A    between atoms: C_16  and  S_17 
REMARK    7  A    between atoms: S_17  and  C_18 
REMARK    8  A    between atoms: C_29  and  N_30 
ROOT
HETATM    1  C   UNL     1      -1.233   6.215 -31.424  1.00  0.00    -0.022 A 
HETATM    2  C   UNL     1      -2.535   5.731 -31.166  1.00  0.00     0.022 A 
HETATM    3  C   UNL     1      -3.530   5.656 -32.157  1.00  0.00     0.002 A 
HETATM    4  C   UNL     1      -3.204   6.052 -33.450  1.00  0.00     0.076 A 
HETATM    5  O   UNL     1      -4.121   6.029 -34.460  1.00  0.00    -0.349 OA
HETATM    6  C   UNL     1      -4.494   4.690 -34.808  1.00  0.00     0.203 C 
HETATM    7  C   UNL     1      -5.710   4.227 -34.003  1.00  0.00     0.262 C 
HETATM    8  N   UNL     1      -5.397   3.964 -32.542  1.00  0.00    -0.059 N 
HETATM    9  H   UNL     1      -6.300   3.748 -32.103  1.00  0.00     0.280 HD
HETATM   10  C   UNL     1      -4.922   5.204 -31.811  1.00  0.00     0.276 C 
HETATM   11  C   UNL     1      -1.937   6.546 -33.741  1.00  0.00     0.038 A 
HETATM   12  C   UNL     1      -0.958   6.614 -32.743  1.00  0.00     0.013 A 
ENDROOT
BRANCH   8  13
HETATM   13  C   UNL     1      -4.545   2.734 -32.310  1.00  0.00     0.299 C 
BRANCH  13  14
HETATM   14  C   UNL     1      -5.318   1.467 -32.346  1.00  0.00     0.080 A 
HETATM   15  O   UNL     1      -5.445   0.864 -33.562  1.00  0.00    -0.306 OA
HETATM   16  C   UNL     1      -6.140  -0.303 -33.380  1.00  0.00     0.120 A 
HETATM   17  C   UNL     1      -6.495  -0.411 -32.051  1.00  0.00     0.047 A 
HETATM   18  C   UNL     1      -5.963   0.720 -31.383  1.00  0.00     0.038 A 
BRANCH  16  19
HETATM   19  S   UNL     1      -6.489  -1.410 -34.680  1.00  0.00    -0.025 SA
BRANCH  19  20
HETATM   20  C   UNL     1      -5.351  -2.640 -34.253  1.00  0.00     0.197 A 
HETATM   21  N   UNL     1      -5.466  -3.947 -34.632  1.00  0.00    -0.322 N 
HETATM   22  C   UNL     1      -6.516  -4.575 -35.392  1.00  0.00     0.159 C 
HETATM   23  C   UNL     1      -4.366  -4.574 -34.123  1.00  0.00     0.235 A 
HETATM   24  N   UNL     1      -3.612  -3.700 -33.492  1.00  0.00    -0.143 NA
HETATM   25  N   UNL     1      -4.238  -2.481 -33.568  1.00  0.00    -0.123 NA
ENDBRANCH  19  20
ENDBRANCH  16  19
ENDBRANCH  13  14
ENDBRANCH   8  13
BRANCH   1  26
HETATM   26  C   UNL     1      -0.176   6.248 -30.301  1.00  0.00     0.105 C 
HETATM   27  C   UNL     1       0.468   4.864 -30.088  1.00  0.00     0.053 C 
BRANCH  26  28
HETATM   28  O   UNL     1       0.860   7.143 -30.733  1.00  0.00    -0.384 OA
HETATM   29  H   UNL     1       1.693   6.891 -30.293  1.00  0.00     0.211 HD
ENDBRANCH  26  28
BRANCH  26  30
HETATM   30  C   UNL     1      -0.733   6.785 -28.932  1.00  0.00     0.276 C 
BRANCH  30  31
HETATM   31  N   UNL     1       0.074   6.401 -27.684  1.00  0.00    -0.076 N 
HETATM   32  H   UNL     1       0.540   5.502 -27.854  1.00  0.00     0.279 HD
HETATM   33  C   UNL     1       1.158   7.393 -27.340  1.00  0.00     0.269 C 
HETATM   34  C   UNL     1      -0.836   6.174 -26.504  1.00  0.00     0.269 C 
ENDBRANCH  30  31
ENDBRANCH  26  30
ENDBRANCH   1  26
TORSDOF 8
ENDMDL
MODEL 4
REMARK VINA RESULT:      -7.6      2.574      3.235
REMARK  8 active torsions:
REMARK  status: ('A' for Active; 'I' for Inactive)
REMARK    1  A    between atoms: C_2  and  O_3 
REMARK    2  A    between atoms: C_2  and  C_4 
REMARK    3  A    between atoms: C_2  and  C_29 
REMARK    4  A    between atoms: N_11  and  C_13 
REMARK    5  A    between atoms: C_13  and  C_14 
REMARK    6  A    between atoms: C_16  and  S_17 
REMARK    7  A    between atoms: S_17  and  C_18 
REMARK    8  A    between atoms: C_29  and  N_30 
ROOT
HETATM    1  C   UNL     1      -8.188   0.374 -32.915  1.00  0.00    -0.022 A 
HETATM    2  C   UNL     1      -7.234   0.835 -31.979  1.00  0.00     0.022 A 
HETATM    3  C   UNL     1      -5.997   0.198 -31.777  1.00  0.00     0.002 A 
HETATM    4  C   UNL     1      -5.694  -0.916 -32.554  1.00  0.00     0.076 A 
HETATM    5  O   UNL     1      -4.523  -1.600 -32.400  1.00  0.00    -0.349 OA
HETATM    6  C   UNL     1      -3.395  -0.821 -32.818  1.00  0.00     0.203 C 
HETATM    7  C   UNL     1      -2.812  -0.020 -31.652  1.00  0.00     0.262 C 
HETATM    8  N   UNL     1      -3.693   1.138 -31.220  1.00  0.00    -0.059 N 
HETATM    9  H   UNL     1      -3.239   1.532 -30.388  1.00  0.00     0.280 HD
HETATM   10  C   UNL     1      -5.050   0.685 -30.716  1.00  0.00     0.276 C 
HETATM   11  C   UNL     1      -6.612  -1.407 -33.475  1.00  0.00     0.038 A 
HETATM   12  C   UNL     1      -7.839  -0.762 -33.664  1.00  0.00     0.013 A 
ENDROOT
BRANCH   8  13
HETATM   13  C   UNL     1      -3.742   2.276 -32.217  1.00  0.00     0.299 C 
BRANCH  13  14
HETATM   14  C   UNL     1      -3.852   3.613 -31.579  1.00  0.00     0.080 A 
HETATM   15  O   UNL     1      -2.714   4.361 -31.533  1.00  0.00    -0.306 OA
HETATM   16  C   UNL     1      -3.029   5.566 -30.961  1.00  0.00     0.120 A 
HETATM   17  C   UNL     1      -4.361   5.556 -30.599  1.00  0.00     0.047 A 
HETATM   18  C   UNL     1      -4.894   4.306 -31.002  1.00  0.00     0.038 A 
BRANCH  16  19
HETATM   19  S   UNL     1      -1.866   6.846 -30.747  1.00  0.00    -0.025 SA
BRANCH  19  20
HETATM   20  C   UNL     1      -0.479   5.856 -30.454  1.00  0.00     0.197 A 
HETATM   21  N   UNL     1       0.101   5.705 -29.226  1.00  0.00    -0.322 N 
HETATM   22  C   UNL     1      -0.258   6.327 -27.978  1.00  0.00     0.159 C 
HETATM   23  C   UNL     1       1.134   4.833 -29.415  1.00  0.00     0.235 A 
HETATM   24  N   UNL     1       1.169   4.455 -30.674  1.00  0.00    -0.143 NA
HETATM   25  N   UNL     1       0.155   5.108 -31.330  1.00  0.00    -0.123 NA
ENDBRANCH  19  20
ENDBRANCH  16  19
ENDBRANCH  13  14
ENDBRANCH   8  13
BRANCH   1  26
HETATM   26  C   UNL     1      -9.518   1.131 -33.110  1.00  0.00     0.105 C 
HETATM   27  C   UNL     1      -9.899   1.233 -34.600  1.00  0.00     0.053 C 
BRANCH  26  28
HETATM   28  O   UNL     1     -10.535   0.357 -32.457  1.00  0.00    -0.384 OA
HETATM   29  H   UNL     1     -11.222   0.130 -33.111  1.00  0.00     0.211 HD
ENDBRANCH  26  28
BRANCH  26  30
HETATM   30  C   UNL     1      -9.522   2.567 -32.467  1.00  0.00     0.276 C 
BRANCH  30  31
HETATM   31  N   UNL     1     -10.801   2.957 -31.712  1.00  0.00    -0.076 N 
HETATM   32  H   UNL     1     -11.279   2.102 -31.406  1.00  0.00     0.279 HD
HETATM   33  C   UNL     1     -10.540   3.776 -30.471  1.00  0.00     0.269 C 
HETATM   34  C   UNL     1     -11.768   3.665 -32.625  1.00  0.00     0.269 C 
ENDBRANCH  30  31
ENDBRANCH  26  30
ENDBRANCH   1  26
TORSDOF 8
ENDMDL
MODEL 5
REMARK VINA RESULT:      -7.6      2.840      4.155
REMARK  8 active torsions:
REMARK  status: ('A' for Active; 'I' for Inactive)
REMARK    1  A    between atoms: C_2  and  O_3 
REMARK    2  A    between atoms: C_2  and  C_4 
REMARK    3  A    between atoms: C_2  and  C_29 
REMARK    4  A    between atoms: N_11  and  C_13 
REMARK    5  A    between atoms: C_13  and  C_14 
REMARK    6  A    between atoms: C_16  and  S_17 
REMARK    7  A    between atoms: S_17  and  C_18 
REMARK    8  A    between atoms: C_29  and  N_30 
ROOT
HETATM    1  C   UNL     1      -8.738   1.357 -32.755  1.00  0.00    -0.022 A 
HETATM    2  C   UNL     1      -7.875   2.281 -32.124  1.00  0.00     0.022 A 
HETATM    3  C   UNL     1      -6.580   1.941 -31.692  1.00  0.00     0.002 A 
HETATM    4  C   UNL     1      -6.126   0.647 -31.925  1.00  0.00     0.076 A 
HETATM    5  O   UNL     1      -4.890   0.236 -31.516  1.00  0.00    -0.349 OA
HETATM    6  C   UNL     1      -3.846   0.890 -32.247  1.00  0.00     0.203 C 
HETATM    7  C   UNL     1      -3.398   2.174 -31.545  1.00  0.00     0.262 C 
HETATM    8  N   UNL     1      -4.419   3.292 -31.631  1.00  0.00    -0.059 N 
HETATM    9  H   UNL     1      -4.041   4.054 -31.056  1.00  0.00     0.280 HD
HETATM   10  C   UNL     1      -5.731   2.941 -30.958  1.00  0.00     0.276 C 
HETATM   11  C   UNL     1      -6.950  -0.294 -32.532  1.00  0.00     0.038 A 
HETATM   12  C   UNL     1      -8.236   0.060 -32.955  1.00  0.00     0.013 A 
ENDROOT
BRANCH   8  13
HETATM   13  C   UNL     1      -4.564   3.883 -33.018  1.00  0.00     0.299 C 
BRANCH  13  14
HETATM   14  C   UNL     1      -3.435   4.769 -33.401  1.00  0.00     0.080 A 
HETATM   15  O   UNL     1      -2.905   5.542 -32.412  1.00  0.00    -0.306 OA
HETATM   16  C   UNL     1      -1.854   6.241 -32.947  1.00  0.00     0.120 A 
HETATM   17  C   UNL     1      -1.755   5.945 -34.291  1.00  0.00     0.047 A 
HETATM   18  C   UNL     1      -2.764   4.994 -34.584  1.00  0.00     0.038 A 
BRANCH  16  19
HETATM   19  S   UNL     1      -0.863   7.326 -32.008  1.00  0.00    -0.025 SA
BRANCH  19  20
HETATM   20  C   UNL     1      -0.117   6.141 -30.993  1.00  0.00     0.197 A 
HETATM   21  N   UNL     1       0.304   6.390 -29.717  1.00  0.00    -0.322 N 
HETATM   22  C   UNL     1       0.266   7.628 -28.982  1.00  0.00     0.159 C 
HETATM   23  C   UNL     1       0.802   5.205 -29.259  1.00  0.00     0.235 A 
HETATM   24  N   UNL     1       0.671   4.282 -30.187  1.00  0.00    -0.143 NA
HETATM   25  N   UNL     1       0.098   4.876 -31.283  1.00  0.00    -0.123 NA
ENDBRANCH  19  20
ENDBRANCH  16  19
ENDBRANCH  13  14
ENDBRANCH   8  13
BRANCH   1  26
HETATM   26  C   UNL     1     -10.138   1.796 -33.230  1.00  0.00     0.105 C 
HETATM   27  C   UNL     1     -11.061   0.586 -33.470  1.00  0.00     0.053 C 
BRANCH  26  28
HETATM   28  O   UNL     1     -10.712   2.571 -32.167  1.00  0.00    -0.384 OA
HETATM   29  H   UNL     1     -11.466   2.078 -31.793  1.00  0.00     0.211 HD
ENDBRANCH  26  28
BRANCH  26  30
HETATM   30  C   UNL     1     -10.109   2.699 -34.518  1.00  0.00     0.276 C 
BRANCH  30  31
HETATM   31  N   UNL     1     -11.173   3.803 -34.585  1.00  0.00    -0.076 N 
HETATM   32  H   UNL     1     -11.641   3.868 -33.674  1.00  0.00     0.279 HD
HETATM   33  C   UNL     1     -10.604   5.170 -34.879  1.00  0.00     0.269 C 
HETATM   34  C   UNL     1     -12.252   3.450 -35.577  1.00  0.00     0.269 C 
ENDBRANCH  30  31
ENDBRANCH  26  30
ENDBRANCH   1  26
TORSDOF 8
ENDMDL
MODEL 6
REMARK VINA RESULT:      -7.5      2.182      2.656
REMARK  8 active torsions:
REMARK  status: ('A' for Active; 'I' for Inactive)
REMARK    1  A    between atoms: C_2  and  O_3 
REMARK    2  A    between atoms: C_2  and  C_4 
REMARK    3  A    between atoms: C_2  and  C_29 
REMARK    4  A    between atoms: N_11  and  C_13 
REMARK    5  A    between atoms: C_13  and  C_14 
REMARK    6  A    between atoms: C_16  and  S_17 
REMARK    7  A    between atoms: S_17  and  C_18 
REMARK    8  A    between atoms: C_29  and  N_30 
ROOT
HETATM    1  C   UNL     1      -8.418   0.359 -32.853  1.00  0.00    -0.022 A 
HETATM    2  C   UNL     1      -7.488   0.803 -31.886  1.00  0.00     0.022 A 
HETATM    3  C   UNL     1      -6.218   0.220 -31.726  1.00  0.00     0.002 A 
HETATM    4  C   UNL     1      -5.859  -0.820 -32.578  1.00  0.00     0.076 A 
HETATM    5  O   UNL     1      -4.653  -1.451 -32.470  1.00  0.00    -0.349 OA
HETATM    6  C   UNL     1      -3.569  -0.586 -32.830  1.00  0.00     0.203 C 
HETATM    7  C   UNL     1      -3.027   0.161 -31.609  1.00  0.00     0.262 C 
HETATM    8  N   UNL     1      -3.967   1.237 -31.099  1.00  0.00    -0.059 N 
HETATM    9  H   UNL     1      -3.532   1.596 -30.241  1.00  0.00     0.280 HD
HETATM   10  C   UNL     1      -5.297   0.681 -30.631  1.00  0.00     0.276 C 
HETATM   11  C   UNL     1      -6.751  -1.294 -33.533  1.00  0.00     0.038 A 
HETATM   12  C   UNL     1      -8.011  -0.702 -33.680  1.00  0.00     0.013 A 
ENDROOT
BRANCH   8  13
HETATM   13  C   UNL     1      -4.077   2.438 -32.015  1.00  0.00     0.299 C 
BRANCH  13  14
HETATM   14  C   UNL     1      -4.380   3.701 -31.295  1.00  0.00     0.080 A 
HETATM   15  O   UNL     1      -3.330   4.539 -31.065  1.00  0.00    -0.306 OA
HETATM   16  C   UNL     1      -3.818   5.658 -30.442  1.00  0.00     0.120 A 
HETATM   17  C   UNL     1      -5.174   5.503 -30.235  1.00  0.00     0.047 A 
HETATM   18  C   UNL     1      -5.539   4.250 -30.788  1.00  0.00     0.038 A 
BRANCH  16  19
HETATM   19  S   UNL     1      -2.812   7.012 -30.003  1.00  0.00    -0.025 SA
BRANCH  19  20
HETATM   20  C   UNL     1      -2.091   7.281 -31.552  1.00  0.00     0.197 A 
HETATM   21  N   UNL     1      -0.959   6.649 -31.983  1.00  0.00    -0.322 N 
HETATM   22  C   UNL     1      -0.131   5.704 -31.278  1.00  0.00     0.159 C 
HETATM   23  C   UNL     1      -0.742   7.111 -33.249  1.00  0.00     0.235 A 
HETATM   24  N   UNL     1      -1.695   7.954 -33.581  1.00  0.00    -0.143 NA
HETATM   25  N   UNL     1      -2.541   8.066 -32.506  1.00  0.00    -0.123 NA
ENDBRANCH  19  20
ENDBRANCH  16  19
ENDBRANCH  13  14
ENDBRANCH   8  13
BRANCH   1  26
HETATM   26  C   UNL     1      -9.786   1.057 -32.998  1.00  0.00     0.105 C 
HETATM   27  C   UNL     1     -10.935   0.035 -33.100  1.00  0.00     0.053 C 
BRANCH  26  28
HETATM   28  O   UNL     1      -9.992   1.819 -31.799  1.00  0.00    -0.384 OA
HETATM   29  H   UNL     1      -9.210   2.384 -31.651  1.00  0.00     0.211 HD
ENDBRANCH  26  28
BRANCH  26  30
HETATM   30  C   UNL     1      -9.857   2.051 -34.215  1.00  0.00     0.276 C 
BRANCH  30  31
HETATM   31  N   UNL     1     -11.025   3.047 -34.199  1.00  0.00    -0.076 N 
HETATM   32  H   UNL     1     -11.571   2.902 -33.342  1.00  0.00     0.279 HD
HETATM   33  C   UNL     1     -10.586   4.490 -34.195  1.00  0.00     0.269 C 
HETATM   34  C   UNL     1     -11.974   2.780 -35.339  1.00  0.00     0.269 C 
ENDBRANCH  30  31
ENDBRANCH  26  30
ENDBRANCH   1  26
TORSDOF 8
ENDMDL
MODEL 7
REMARK VINA RESULT:      -7.5      2.594      5.654
REMARK  8 active torsions:
REMARK  status: ('A' for Active; 'I' for Inactive)
REMARK    1  A    between atoms: C_2  and  O_3 
REMARK    2  A    between atoms: C_2  and  C_4 
REMARK    3  A    between atoms: C_2  and  C_29 
REMARK    4  A    between atoms: N_11  and  C_13 
REMARK    5  A    between atoms: C_13  and  C_14 
REMARK    6  A    between atoms: C_16  and  S_17 
REMARK    7  A    between atoms: S_17  and  C_18 
REMARK    8  A    between atoms: C_29  and  N_30 
ROOT
HETATM    1  C   UNL     1      -5.803  -0.489 -33.549  1.00  0.00    -0.022 A 
HETATM    2  C   UNL     1      -5.660   0.907 -33.717  1.00  0.00     0.022 A 
HETATM    3  C   UNL     1      -6.759   1.775 -33.841  1.00  0.00     0.002 A 
HETATM    4  C   UNL     1      -8.039   1.234 -33.769  1.00  0.00     0.076 A 
HETATM    5  O   UNL     1      -9.154   2.009 -33.903  1.00  0.00    -0.349 OA
HETATM    6  C   UNL     1      -9.313   2.906 -32.796  1.00  0.00     0.203 C 
HETATM    7  C   UNL     1      -8.629   4.247 -33.068  1.00  0.00     0.262 C 
HETATM    8  N   UNL     1      -7.114   4.166 -33.031  1.00  0.00    -0.059 N 
HETATM    9  H   UNL     1      -6.783   5.097 -33.311  1.00  0.00     0.280 HD
HETATM   10  C   UNL     1      -6.550   3.243 -34.093  1.00  0.00     0.276 C 
HETATM   11  C   UNL     1      -8.220  -0.136 -33.618  1.00  0.00     0.038 A 
HETATM   12  C   UNL     1      -7.116  -0.987 -33.495  1.00  0.00     0.013 A 
ENDROOT
BRANCH   8  13
HETATM   13  C   UNL     1      -6.546   3.949 -31.645  1.00  0.00     0.299 C 
BRANCH  13  14
HETATM   14  C   UNL     1      -5.063   3.867 -31.622  1.00  0.00     0.080 A 
HETATM   15  O   UNL     1      -4.386   4.936 -32.130  1.00  0.00    -0.306 OA
HETATM   16  C   UNL     1      -3.046   4.693 -31.974  1.00  0.00     0.120 A 
HETATM   17  C   UNL     1      -2.878   3.444 -31.412  1.00  0.00     0.047 A 
HETATM   18  C   UNL     1      -4.171   2.914 -31.178  1.00  0.00     0.038 A 
BRANCH  16  19
HETATM   19  S   UNL     1      -1.816   5.832 -32.454  1.00  0.00    -0.025 SA
BRANCH  19  20
HETATM   20  C   UNL     1      -0.689   5.508 -31.183  1.00  0.00     0.197 A 
HETATM   21  N   UNL     1      -0.756   6.081 -29.944  1.00  0.00    -0.322 N 
HETATM   22  C   UNL     1      -1.694   7.056 -29.452  1.00  0.00     0.159 C 
HETATM   23  C   UNL     1       0.283   5.546 -29.238  1.00  0.00     0.235 A 
HETATM   24  N   UNL     1       0.931   4.683 -29.990  1.00  0.00    -0.143 NA
HETATM   25  N   UNL     1       0.321   4.665 -31.219  1.00  0.00    -0.123 NA
ENDBRANCH  19  20
ENDBRANCH  16  19
ENDBRANCH  13  14
ENDBRANCH   8  13
BRANCH   1  26
HETATM   26  C   UNL     1      -4.559  -1.387 -33.392  1.00  0.00     0.105 C 
HETATM   27  C   UNL     1      -3.261  -0.557 -33.353  1.00  0.00     0.053 C 
BRANCH  26  28
HETATM   28  O   UNL     1      -4.684  -2.051 -32.125  1.00  0.00    -0.384 OA
HETATM   29  H   UNL     1      -5.191  -1.476 -31.521  1.00  0.00     0.211 HD
ENDBRANCH  26  28
BRANCH  26  30
HETATM   30  C   UNL     1      -4.442  -2.495 -34.503  1.00  0.00     0.276 C 
BRANCH  30  31
HETATM   31  N   UNL     1      -4.936  -3.894 -34.108  1.00  0.00    -0.076 N 
HETATM   32  H   UNL     1      -5.388  -3.838 -33.188  1.00  0.00     0.279 HD
HETATM   33  C   UNL     1      -5.958  -4.463 -35.061  1.00  0.00     0.269 C 
HETATM   34  C   UNL     1      -3.778  -4.844 -33.937  1.00  0.00     0.269 C 
ENDBRANCH  30  31
ENDBRANCH  26  30
ENDBRANCH   1  26
TORSDOF 8
ENDMDL
MODEL 8
REMARK VINA RESULT:      -7.5      2.318      3.010
REMARK  8 active torsions:
REMARK  status: ('A' for Active; 'I' for Inactive)
REMARK    1  A    between atoms: C_2  and  O_3 
REMARK    2  A    between atoms: C_2  and  C_4 
REMARK    3  A    between atoms: C_2  and  C_29 
REMARK    4  A    between atoms: N_11  and  C_13 
REMARK    5  A    between atoms: C_13  and  C_14 
REMARK    6  A    between atoms: C_16  and  S_17 
REMARK    7  A    between atoms: S_17  and  C_18 
REMARK    8  A    between atoms: C_29  and  N_30 
ROOT
HETATM    1  C   UNL     1      -7.962   0.973 -33.252  1.00  0.00    -0.022 A 
HETATM    2  C   UNL     1      -7.025   1.379 -32.274  1.00  0.00     0.022 A 
HETATM    3  C   UNL     1      -5.957   0.565 -31.859  1.00  0.00     0.002 A 
HETATM    4  C   UNL     1      -5.805  -0.681 -32.458  1.00  0.00     0.076 A 
HETATM    5  O   UNL     1      -4.806  -1.536 -32.093  1.00  0.00    -0.349 OA
HETATM    6  C   UNL     1      -3.517  -1.037 -32.468  1.00  0.00     0.203 C 
HETATM    7  C   UNL     1      -2.898  -0.200 -31.346  1.00  0.00     0.262 C 
HETATM    8  N   UNL     1      -3.575   1.144 -31.157  1.00  0.00    -0.059 N 
HETATM    9  H   UNL     1      -3.130   1.561 -30.331  1.00  0.00     0.280 HD
HETATM   10  C   UNL     1      -5.033   1.016 -30.761  1.00  0.00     0.276 C 
HETATM   11  C   UNL     1      -6.713  -1.122 -33.414  1.00  0.00     0.038 A 
HETATM   12  C   UNL     1      -7.772  -0.299 -33.817  1.00  0.00     0.013 A 
ENDROOT
BRANCH   8  13
HETATM   13  C   UNL     1      -3.314   2.125 -32.281  1.00  0.00     0.299 C 
BRANCH  13  14
HETATM   14  C   UNL     1      -3.155   3.526 -31.814  1.00  0.00     0.080 A 
HETATM   15  O   UNL     1      -1.912   4.072 -31.936  1.00  0.00    -0.306 OA
HETATM   16  C   UNL     1      -1.982   5.370 -31.504  1.00  0.00     0.120 A 
HETATM   17  C   UNL     1      -3.263   5.628 -31.061  1.00  0.00     0.047 A 
HETATM   18  C   UNL     1      -4.021   4.448 -31.266  1.00  0.00     0.038 A 
BRANCH  16  19
HETATM   19  S   UNL     1      -0.615   6.452 -31.530  1.00  0.00    -0.025 SA
BRANCH  19  20
HETATM   20  C   UNL     1      -1.470   7.918 -31.202  1.00  0.00     0.197 A 
HETATM   21  N   UNL     1      -1.685   8.408 -29.945  1.00  0.00    -0.322 N 
HETATM   22  C   UNL     1      -1.309   7.835 -28.679  1.00  0.00     0.159 C 
HETATM   23  C   UNL     1      -2.362   9.580 -30.121  1.00  0.00     0.235 A 
HETATM   24  N   UNL     1      -2.530   9.806 -31.405  1.00  0.00    -0.143 NA
HETATM   25  N   UNL     1      -1.974   8.752 -32.087  1.00  0.00    -0.123 NA
ENDBRANCH  19  20
ENDBRANCH  16  19
ENDBRANCH  13  14
ENDBRANCH   8  13
BRANCH   1  26
HETATM   26  C   UNL     1      -9.098   1.921 -33.685  1.00  0.00     0.105 C 
HETATM   27  C   UNL     1      -8.600   3.371 -33.837  1.00  0.00     0.053 C 
BRANCH  26  28
HETATM   28  O   UNL     1      -9.537   1.478 -34.979  1.00  0.00    -0.384 OA
HETATM   29  H   UNL     1      -9.662   2.260 -35.549  1.00  0.00     0.211 HD
ENDBRANCH  26  28
BRANCH  26  30
HETATM   30  C   UNL     1     -10.342   1.891 -32.722  1.00  0.00     0.276 C 
BRANCH  30  31
HETATM   31  N   UNL     1     -11.427   2.941 -32.998  1.00  0.00    -0.076 N 
HETATM   32  H   UNL     1     -11.109   3.554 -33.757  1.00  0.00     0.279 HD
HETATM   33  C   UNL     1     -12.741   2.345 -33.442  1.00  0.00     0.269 C 
HETATM   34  C   UNL     1     -11.624   3.836 -31.802  1.00  0.00     0.269 C 
ENDBRANCH  30  31
ENDBRANCH  26  30
ENDBRANCH   1  26
TORSDOF 8
ENDMDL
MODEL 9
REMARK VINA RESULT:      -7.3      3.152      7.937
REMARK  8 active torsions:
REMARK  status: ('A' for Active; 'I' for Inactive)
REMARK    1  A    between atoms: C_2  and  O_3 
REMARK    2  A    between atoms: C_2  and  C_4 
REMARK    3  A    between atoms: C_2  and  C_29 
REMARK    4  A    between atoms: N_11  and  C_13 
REMARK    5  A    between atoms: C_13  and  C_14 
REMARK    6  A    between atoms: C_16  and  S_17 
REMARK    7  A    between atoms: S_17  and  C_18 
REMARK    8  A    between atoms: C_29  and  N_30 
ROOT
HETATM    1  C   UNL     1      -1.248   6.033 -31.687  1.00  0.00    -0.022 A 
HETATM    2  C   UNL     1      -2.577   6.451 -31.450  1.00  0.00     0.022 A 
HETATM    3  C   UNL     1      -3.594   6.336 -32.414  1.00  0.00     0.002 A 
HETATM    4  C   UNL     1      -3.279   5.761 -33.640  1.00  0.00     0.076 A 
HETATM    5  O   UNL     1      -4.207   5.635 -34.633  1.00  0.00    -0.349 OA
HETATM    6  C   UNL     1      -5.227   4.690 -34.288  1.00  0.00     0.203 C 
HETATM    7  C   UNL     1      -6.404   5.376 -33.591  1.00  0.00     0.262 C 
HETATM    8  N   UNL     1      -6.082   5.832 -32.180  1.00  0.00    -0.059 N 
HETATM    9  H   UNL     1      -6.913   6.345 -31.862  1.00  0.00     0.280 HD
HETATM   10  C   UNL     1      -4.974   6.865 -32.136  1.00  0.00     0.276 C 
HETATM   11  C   UNL     1      -1.980   5.350 -33.916  1.00  0.00     0.038 A 
HETATM   12  C   UNL     1      -0.978   5.471 -32.946  1.00  0.00     0.013 A 
ENDROOT
BRANCH   8  13
HETATM   13  C   UNL     1      -5.921   4.696 -31.192  1.00  0.00     0.299 C 
BRANCH  13  14
HETATM   14  C   UNL     1      -7.129   3.840 -31.077  1.00  0.00     0.080 A 
HETATM   15  O   UNL     1      -7.130   2.687 -31.804  1.00  0.00    -0.306 OA
HETATM   16  C   UNL     1      -8.294   2.020 -31.526  1.00  0.00     0.120 A 
HETATM   17  C   UNL     1      -9.052   2.780 -30.659  1.00  0.00     0.047 A 
HETATM   18  C   UNL     1      -8.303   3.946 -30.363  1.00  0.00     0.038 A 
BRANCH  16  19
HETATM   19  S   UNL     1      -8.683   0.467 -32.217  1.00  0.00    -0.025 SA
BRANCH  19  20
HETATM   20  C   UNL     1      -7.069  -0.044 -32.568  1.00  0.00     0.197 A 
HETATM   21  N   UNL     1      -6.481   0.083 -33.795  1.00  0.00    -0.322 N 
HETATM   22  C   UNL     1      -7.046   0.601 -35.014  1.00  0.00     0.159 C 
HETATM   23  C   UNL     1      -5.216  -0.407 -33.646  1.00  0.00     0.235 A 
HETATM   24  N   UNL     1      -5.033  -0.787 -32.400  1.00  0.00    -0.143 NA
HETATM   25  N   UNL     1      -6.205  -0.565 -31.723  1.00  0.00    -0.123 NA
ENDBRANCH  19  20
ENDBRANCH  16  19
ENDBRANCH  13  14
ENDBRANCH   8  13
BRANCH   1  26
HETATM   26  C   UNL     1      -0.180   6.161 -30.581  1.00  0.00     0.105 C 
HETATM   27  C   UNL     1       0.436   4.794 -30.226  1.00  0.00     0.053 C 
BRANCH  26  28
HETATM   28  O   UNL     1       0.870   6.983 -31.111  1.00  0.00    -0.384 OA
HETATM   29  H   UNL     1       0.526   7.886 -31.238  1.00  0.00     0.211 HD
ENDBRANCH  26  28
BRANCH  26  30
HETATM   30  C   UNL     1      -0.714   6.853 -29.272  1.00  0.00     0.276 C 
BRANCH  30  31
HETATM   31  N   UNL     1       0.189   6.733 -28.036  1.00  0.00    -0.076 N 
HETATM   32  H   UNL     1       0.825   5.937 -28.167  1.00  0.00     0.279 HD
HETATM   33  C   UNL     1       1.054   7.946 -27.803  1.00  0.00     0.269 C 
HETATM   34  C   UNL     1      -0.623   6.411 -26.808  1.00  0.00     0.269 C 
ENDBRANCH  30  31
ENDBRANCH  26  30
ENDBRANCH   1  26
TORSDOF 8
ENDMDL
MODEL 10
REMARK VINA RESULT:      -7.3      2.716      6.949
REMARK  8 active torsions:
REMARK  status: ('A' for Active; 'I' for Inactive)
REMARK    1  A    between atoms: C_2  and  O_3 
REMARK    2  A    between atoms: C_2  and  C_4 
REMARK    3  A    between atoms: C_2  and  C_29 
REMARK    4  A    between atoms: N_11  and  C_13 
REMARK    5  A    between atoms: C_13  and  C_14 
REMARK    6  A    between atoms: C_16  and  S_17 
REMARK    7  A    between atoms: S_17  and  C_18 
REMARK    8  A    between atoms: C_29  and  N_30 
ROOT
HETATM    1  C   UNL     1      -4.795   2.598 -31.864  1.00  0.00    -0.022 A 
HETATM    2  C   UNL     1      -5.749   2.266 -32.853  1.00  0.00     0.022 A 
HETATM    3  C   UNL     1      -5.738   1.039 -33.540  1.00  0.00     0.002 A 
HETATM    4  C   UNL     1      -4.760   0.107 -33.209  1.00  0.00     0.076 A 
HETATM    5  O   UNL     1      -4.671  -1.096 -33.847  1.00  0.00    -0.349 OA
HETATM    6  C   UNL     1      -5.786  -1.942 -33.542  1.00  0.00     0.203 C 
HETATM    7  C   UNL     1      -6.919  -1.750 -34.552  1.00  0.00     0.262 C 
HETATM    8  N   UNL     1      -7.640  -0.423 -34.401  1.00  0.00    -0.059 N 
HETATM    9  H   UNL     1      -8.307  -0.383 -35.181  1.00  0.00     0.280 HD
HETATM   10  C   UNL     1      -6.731   0.767 -34.636  1.00  0.00     0.276 C 
HETATM   11  C   UNL     1      -3.796   0.402 -32.251  1.00  0.00     0.038 A 
HETATM   12  C   UNL     1      -3.821   1.628 -31.576  1.00  0.00     0.013 A 
ENDROOT
BRANCH   8  13
HETATM   13  C   UNL     1      -8.490  -0.327 -33.152  1.00  0.00     0.299 C 
BRANCH  13  14
HETATM   14  C   UNL     1      -9.327   0.899 -33.103  1.00  0.00     0.080 A 
HETATM   15  O   UNL     1     -10.244   1.051 -34.100  1.00  0.00    -0.306 OA
HETATM   16  C   UNL     1     -10.943   2.204 -33.852  1.00  0.00     0.120 A 
HETATM   17  C   UNL     1     -10.430   2.806 -32.722  1.00  0.00     0.047 A 
HETATM   18  C   UNL     1      -9.397   1.967 -32.234  1.00  0.00     0.038 A 
BRANCH  16  19
HETATM   19  S   UNL     1     -12.249   2.756 -34.866  1.00  0.00    -0.025 SA
BRANCH  19  20
HETATM   20  C   UNL     1     -13.491   2.767 -33.663  1.00  0.00     0.197 A 
HETATM   21  N   UNL     1     -14.215   1.664 -33.308  1.00  0.00    -0.322 N 
HETATM   22  C   UNL     1     -14.146   0.330 -33.846  1.00  0.00     0.159 C 
HETATM   23  C   UNL     1     -15.059   2.083 -32.321  1.00  0.00     0.235 A 
HETATM   24  N   UNL     1     -14.848   3.357 -32.070  1.00  0.00    -0.143 NA
HETATM   25  N   UNL     1     -13.864   3.789 -32.924  1.00  0.00    -0.123 NA
ENDBRANCH  19  20
ENDBRANCH  16  19
ENDBRANCH  13  14
ENDBRANCH   8  13
BRANCH   1  26
HETATM   26  C   UNL     1      -4.875   3.950 -31.126  1.00  0.00     0.105 C 
HETATM   27  C   UNL     1      -6.192   4.688 -31.435  1.00  0.00     0.053 C 
BRANCH  26  28
HETATM   28  O   UNL     1      -4.866   3.656 -29.721  1.00  0.00    -0.384 OA
HETATM   29  H   UNL     1      -5.301   4.390 -29.246  1.00  0.00     0.211 HD
ENDBRANCH  26  28
BRANCH  26  30
HETATM   30  C   UNL     1      -3.657   4.900 -31.424  1.00  0.00     0.276 C 
BRANCH  30  31
HETATM   31  N   UNL     1      -2.980   4.712 -32.789  1.00  0.00    -0.076 N 
HETATM   32  H   UNL     1      -3.105   3.738 -33.089  1.00  0.00     0.279 HD
HETATM   33  C   UNL     1      -3.565   5.580 -33.875  1.00  0.00     0.269 C 
HETATM   34  C   UNL     1      -1.491   4.919 -32.683  1.00  0.00     0.269 C 
ENDBRANCH  30  31
ENDBRANCH  26  30
ENDBRANCH   1  26
TORSDOF 8
ENDMDL
