MODEL 1
REMARK VINA RESULT:      -8.4      0.000      0.000
REMARK  9 active torsions:
REMARK  status: ('A' for Active; 'I' for Inactive)
REMARK    1  A    between atoms: C_2  and  N_3 
REMARK    2  A    between atoms: N_3  and  C_4 
REMARK    3  A    between atoms: N_3  and  C_32 
REMARK    4  A    between atoms: C_7  and  C_8 
REMARK       I    between atoms: C_8  and  N_9 
REMARK    5  A    between atoms: N_9  and  C_10 
REMARK    6  A    between atoms: C_10  and  N_11 
REMARK    7  A    between atoms: N_11  and  C_12 
REMARK    8  A    between atoms: C_14  and  C_15 
REMARK    9  A    between atoms: C_24  and  O_25 
ROOT
HETATM    1  N   UNL     1      -2.724   3.603 -31.318  1.00  0.00    -0.337 N 
HETATM    2  H   UNL     1      -1.940   3.458 -30.687  1.00  0.00     0.168 HD
ENDROOT
BRANCH   1   3
HETATM    3  C   UNL     1      -2.564   4.676 -32.167  1.00  0.00     0.157 C 
HETATM    4  S   UNL     1      -1.861   6.061 -31.551  1.00  0.00    -0.047 SA
BRANCH   3   5
HETATM    5  N   UNL     1      -2.923   4.442 -33.482  1.00  0.00    -0.201 NA
HETATM    6  C   UNL     1      -3.971   5.056 -34.143  1.00  0.00     0.237 C 
HETATM    7  O   UNL     1      -3.739   5.906 -35.000  1.00  0.00    -0.274 OA
HETATM    8  H   UNL     1      -2.089   4.580 -34.043  1.00  0.00     0.139 HD
BRANCH   6   9
HETATM    9  C   UNL     1      -5.360   4.579 -33.898  1.00  0.00     0.026 A 
HETATM   10  C   UNL     1      -5.703   3.299 -34.338  1.00  0.00     0.019 A 
HETATM   11  C   UNL     1      -6.949   2.744 -34.017  1.00  0.00     0.030 A 
HETATM   12  C   UNL     1      -7.887   3.427 -33.229  1.00  0.00     0.030 A 
HETATM   13  C   UNL     1      -7.538   4.739 -32.850  1.00  0.00     0.030 A 
HETATM   14  C   UNL     1      -6.294   5.309 -33.165  1.00  0.00     0.019 A 
BRANCH  12  15
HETATM   15  N   UNL     1      -9.108   2.870 -32.843  1.00  0.00    -0.382 N 
BRANCH  15  16
HETATM   16  C   UNL     1      -9.764   1.942 -33.780  1.00  0.00     0.118 C 
HETATM   17  C   UNL     1      -9.857   0.553 -33.165  1.00  0.00     0.026 C 
ENDBRANCH  15  16
BRANCH  15  18
HETATM   18  C   UNL     1     -10.018   3.584 -31.932  1.00  0.00     0.118 C 
HETATM   19  C   UNL     1      -9.749   3.210 -30.482  1.00  0.00     0.026 C 
ENDBRANCH  15  18
ENDBRANCH  12  15
ENDBRANCH   6   9
ENDBRANCH   3   5
ENDBRANCH   1   3
BRANCH   1  20
HETATM   20  C   UNL     1      -3.819   2.726 -31.165  1.00  0.00     0.035 A 
HETATM   21  C   UNL     1      -3.876   1.471 -31.786  1.00  0.00     0.046 A 
HETATM   22  C   UNL     1      -5.012   0.643 -31.679  1.00  0.00     0.035 A 
HETATM   23  C   UNL     1      -6.078   1.112 -30.890  1.00  0.00     0.078 A 
HETATM   24  C   UNL     1      -6.034   2.361 -30.272  1.00  0.00     0.040 A 
HETATM   25  C   UNL     1      -4.916   3.178 -30.431  1.00  0.00     0.032 A 
BRANCH  22  26
HETATM   26  C   UNL     1      -5.132  -0.640 -32.410  1.00  0.00     0.112 A 
HETATM   27  S   UNL     1      -3.821  -1.745 -32.571  1.00  0.00    -0.067 SA
HETATM   28  C   UNL     1      -4.766  -2.747 -33.597  1.00  0.00     0.035 A 
HETATM   29  C   UNL     1      -6.042  -2.197 -33.716  1.00  0.00     0.075 A 
HETATM   30  C   UNL     1      -4.403  -3.933 -34.255  1.00  0.00     0.021 A 
HETATM   31  N   UNL     1      -6.243  -1.014 -33.022  1.00  0.00    -0.239 NA
HETATM   32  C   UNL     1      -6.993  -2.859 -34.519  1.00  0.00     0.033 A 
HETATM   33  C   UNL     1      -6.640  -4.037 -35.186  1.00  0.00     0.002 A 
HETATM   34  C   UNL     1      -5.360  -4.565 -35.055  1.00  0.00     0.002 A 
ENDBRANCH  22  26
BRANCH  23  35
HETATM   35  O   UNL     1      -7.234   0.398 -30.693  1.00  0.00    -0.360 OA
HETATM   36  H   UNL     1      -7.930   1.026 -30.400  1.00  0.00     0.217 HD
ENDBRANCH  23  35
ENDBRANCH   1  20
TORSDOF 9
ENDMDL
MODEL 2
REMARK VINA RESULT:      -7.7      2.743      7.402
REMARK  9 active torsions:
REMARK  status: ('A' for Active; 'I' for Inactive)
REMARK    1  A    between atoms: C_2  and  N_3 
REMARK    2  A    between atoms: N_3  and  C_4 
REMARK    3  A    between atoms: N_3  and  C_32 
REMARK    4  A    between atoms: C_7  and  C_8 
REMARK       I    between atoms: C_8  and  N_9 
REMARK    5  A    between atoms: N_9  and  C_10 
REMARK    6  A    between atoms: C_10  and  N_11 
REMARK    7  A    between atoms: N_11  and  C_12 
REMARK    8  A    between atoms: C_14  and  C_15 
REMARK    9  A    between atoms: C_24  and  O_25 
ROOT
HETATM    1  N   UNL     1      -8.148   3.904 -33.803  1.00  0.00    -0.337 N 
HETATM    2  H   UNL     1      -7.628   4.015 -34.669  1.00  0.00     0.168 HD
ENDROOT
BRANCH   1   3
HETATM    3  C   UNL     1      -9.509   3.791 -33.983  1.00  0.00     0.157 C 
HETATM    4  S   UNL     1     -10.472   5.058 -33.477  1.00  0.00    -0.047 SA
BRANCH   3   5
HETATM    5  N   UNL     1      -9.918   2.659 -34.664  1.00  0.00    -0.201 NA
HETATM    6  C   UNL     1      -9.938   1.378 -34.141  1.00  0.00     0.237 C 
HETATM    7  O   UNL     1     -11.012   0.851 -33.860  1.00  0.00    -0.274 OA
HETATM    8  H   UNL     1     -10.846   2.852 -35.026  1.00  0.00     0.139 HD
BRANCH   6   9
HETATM    9  C   UNL     1      -8.664   0.612 -34.055  1.00  0.00     0.026 A 
HETATM   10  C   UNL     1      -8.262   0.146 -32.802  1.00  0.00     0.019 A 
HETATM   11  C   UNL     1      -7.148  -0.695 -32.677  1.00  0.00     0.030 A 
HETATM   12  C   UNL     1      -6.409  -1.121 -33.792  1.00  0.00     0.030 A 
HETATM   13  C   UNL     1      -6.802  -0.586 -35.035  1.00  0.00     0.030 A 
HETATM   14  C   UNL     1      -7.916   0.257 -35.176  1.00  0.00     0.019 A 
BRANCH  12  15
HETATM   15  N   UNL     1      -5.335  -2.009 -33.700  1.00  0.00    -0.382 N 
BRANCH  15  16
HETATM   16  C   UNL     1      -4.213  -1.638 -32.820  1.00  0.00     0.118 C 
HETATM   17  C   UNL     1      -3.516  -0.394 -33.353  1.00  0.00     0.026 C 
ENDBRANCH  15  16
BRANCH  15  18
HETATM   18  C   UNL     1      -4.983  -2.898 -34.819  1.00  0.00     0.118 C 
HETATM   19  C   UNL     1      -5.957  -4.063 -34.923  1.00  0.00     0.026 C 
ENDBRANCH  15  18
ENDBRANCH  12  15
ENDBRANCH   6   9
ENDBRANCH   3   5
ENDBRANCH   1   3
BRANCH   1  20
HETATM   20  C   UNL     1      -7.392   3.941 -32.612  1.00  0.00     0.035 A 
HETATM   21  C   UNL     1      -6.112   4.509 -32.546  1.00  0.00     0.046 A 
HETATM   22  C   UNL     1      -5.344   4.468 -31.364  1.00  0.00     0.035 A 
HETATM   23  C   UNL     1      -5.930   3.863 -30.237  1.00  0.00     0.078 A 
HETATM   24  C   UNL     1      -7.200   3.291 -30.293  1.00  0.00     0.040 A 
HETATM   25  C   UNL     1      -7.920   3.307 -31.487  1.00  0.00     0.032 A 
BRANCH  22  26
HETATM   26  C   UNL     1      -3.953   4.972 -31.302  1.00  0.00     0.112 A 
HETATM   27  S   UNL     1      -2.657   4.231 -32.160  1.00  0.00    -0.067 SA
HETATM   28  C   UNL     1      -1.532   5.299 -31.423  1.00  0.00     0.035 A 
HETATM   29  C   UNL     1      -2.224   6.187 -30.601  1.00  0.00     0.075 A 
HETATM   30  C   UNL     1      -0.135   5.345 -31.559  1.00  0.00     0.021 A 
HETATM   31  N   UNL     1      -3.597   6.005 -30.556  1.00  0.00    -0.239 NA
HETATM   32  C   UNL     1      -1.494   7.161 -29.889  1.00  0.00     0.033 A 
HETATM   33  C   UNL     1      -0.101   7.211 -30.010  1.00  0.00     0.002 A 
HETATM   34  C   UNL     1       0.568   6.313 -30.835  1.00  0.00     0.002 A 
ENDBRANCH  22  26
BRANCH  23  35
HETATM   35  O   UNL     1      -5.296   3.771 -29.023  1.00  0.00    -0.360 OA
HETATM   36  H   UNL     1      -5.947   4.001 -28.324  1.00  0.00     0.217 HD
ENDBRANCH  23  35
ENDBRANCH   1  20
TORSDOF 9
ENDMDL
MODEL 3
REMARK VINA RESULT:      -7.7      2.495      6.940
REMARK  9 active torsions:
REMARK  status: ('A' for Active; 'I' for Inactive)
REMARK    1  A    between atoms: C_2  and  N_3 
REMARK    2  A    between atoms: N_3  and  C_4 
REMARK    3  A    between atoms: N_3  and  C_32 
REMARK    4  A    between atoms: C_7  and  C_8 
REMARK       I    between atoms: C_8  and  N_9 
REMARK    5  A    between atoms: N_9  and  C_10 
REMARK    6  A    between atoms: C_10  and  N_11 
REMARK    7  A    between atoms: N_11  and  C_12 
REMARK    8  A    between atoms: C_14  and  C_15 
REMARK    9  A    between atoms: C_24  and  O_25 
ROOT
HETATM    1  N   UNL     1      -8.473   1.801 -30.976  1.00  0.00    -0.337 N 
HETATM    2  H   UNL     1      -8.967   1.036 -30.523  1.00  0.00     0.168 HD
ENDROOT
BRANCH   1   3
HETATM    3  C   UNL     1      -9.304   2.737 -31.549  1.00  0.00     0.157 C 
HETATM    4  S   UNL     1     -10.163   3.746 -30.533  1.00  0.00    -0.047 SA
BRANCH   3   5
HETATM    5  N   UNL     1      -9.255   2.797 -32.931  1.00  0.00    -0.201 NA
HETATM    6  C   UNL     1      -9.541   1.747 -33.784  1.00  0.00     0.237 C 
HETATM    7  O   UNL     1     -10.585   1.753 -34.433  1.00  0.00    -0.274 OA
HETATM    8  H   UNL     1      -9.835   3.581 -33.212  1.00  0.00     0.139 HD
BRANCH   6   9
HETATM    9  C   UNL     1      -8.514   0.691 -34.002  1.00  0.00     0.026 A 
HETATM   10  C   UNL     1      -8.679  -0.532 -33.350  1.00  0.00     0.019 A 
HETATM   11  C   UNL     1      -7.823  -1.607 -33.621  1.00  0.00     0.030 A 
HETATM   12  C   UNL     1      -6.788  -1.514 -34.565  1.00  0.00     0.030 A 
HETATM   13  C   UNL     1      -6.608  -0.251 -35.162  1.00  0.00     0.030 A 
HETATM   14  C   UNL     1      -7.458   0.836 -34.900  1.00  0.00     0.019 A 
BRANCH  12  15
HETATM   15  N   UNL     1      -5.962  -2.590 -34.898  1.00  0.00    -0.382 N 
BRANCH  15  16
HETATM   16  C   UNL     1      -6.566  -3.933 -34.930  1.00  0.00     0.118 C 
HETATM   17  C   UNL     1      -5.488  -4.997 -34.779  1.00  0.00     0.026 C 
ENDBRANCH  15  16
BRANCH  15  18
HETATM   18  C   UNL     1      -4.519  -2.561 -34.608  1.00  0.00     0.118 C 
HETATM   19  C   UNL     1      -4.249  -2.013 -33.214  1.00  0.00     0.026 C 
ENDBRANCH  15  18
ENDBRANCH  12  15
ENDBRANCH   6   9
ENDBRANCH   3   5
ENDBRANCH   1   3
BRANCH   1  20
HETATM   20  C   UNL     1      -7.064   1.721 -30.974  1.00  0.00     0.035 A 
HETATM   21  C   UNL     1      -6.244   2.811 -31.297  1.00  0.00     0.046 A 
HETATM   22  C   UNL     1      -4.841   2.690 -31.361  1.00  0.00     0.035 A 
HETATM   23  C   UNL     1      -4.290   1.433 -31.051  1.00  0.00     0.078 A 
HETATM   24  C   UNL     1      -5.096   0.340 -30.733  1.00  0.00     0.040 A 
HETATM   25  C   UNL     1      -6.483   0.479 -30.720  1.00  0.00     0.032 A 
BRANCH  22  26
HETATM   26  C   UNL     1      -3.966   3.801 -31.799  1.00  0.00     0.112 A 
HETATM   27  S   UNL     1      -4.026   5.368 -31.087  1.00  0.00    -0.067 SA
HETATM   28  C   UNL     1      -2.887   5.954 -32.232  1.00  0.00     0.035 A 
HETATM   29  C   UNL     1      -2.498   4.902 -33.060  1.00  0.00     0.075 A 
HETATM   30  C   UNL     1      -2.379   7.253 -32.390  1.00  0.00     0.021 A 
HETATM   31  N   UNL     1      -3.100   3.683 -32.792  1.00  0.00    -0.239 NA
HETATM   32  C   UNL     1      -1.562   5.156 -34.083  1.00  0.00     0.033 A 
HETATM   33  C   UNL     1      -1.054   6.449 -34.256  1.00  0.00     0.002 A 
HETATM   34  C   UNL     1      -1.461   7.483 -33.419  1.00  0.00     0.002 A 
ENDBRANCH  22  26
BRANCH  23  35
HETATM   35  O   UNL     1      -2.940   1.185 -31.061  1.00  0.00    -0.360 OA
HETATM   36  H   UNL     1      -2.577   1.456 -30.189  1.00  0.00     0.217 HD
ENDBRANCH  23  35
ENDBRANCH   1  20
TORSDOF 9
ENDMDL
MODEL 4
REMARK VINA RESULT:      -7.5      2.538      6.892
REMARK  9 active torsions:
REMARK  status: ('A' for Active; 'I' for Inactive)
REMARK    1  A    between atoms: C_2  and  N_3 
REMARK    2  A    between atoms: N_3  and  C_4 
REMARK    3  A    between atoms: N_3  and  C_32 
REMARK    4  A    between atoms: C_7  and  C_8 
REMARK       I    between atoms: C_8  and  N_9 
REMARK    5  A    between atoms: N_9  and  C_10 
REMARK    6  A    between atoms: C_10  and  N_11 
REMARK    7  A    between atoms: N_11  and  C_12 
REMARK    8  A    between atoms: C_14  and  C_15 
REMARK    9  A    between atoms: C_24  and  O_25 
ROOT
HETATM    1  N   UNL     1      -9.846   3.613 -32.600  1.00  0.00    -0.337 N 
HETATM    2  H   UNL     1     -10.717   3.544 -32.081  1.00  0.00     0.168 HD
ENDROOT
BRANCH   1   3
HETATM    3  C   UNL     1     -10.011   3.614 -33.967  1.00  0.00     0.157 C 
HETATM    4  S   UNL     1      -9.807   5.059 -34.779  1.00  0.00    -0.047 SA
BRANCH   3   5
HETATM    5  N   UNL     1     -10.237   2.371 -34.530  1.00  0.00    -0.201 NA
HETATM    6  C   UNL     1     -10.061   1.160 -33.886  1.00  0.00     0.237 C 
HETATM    7  O   UNL     1     -11.041   0.502 -33.542  1.00  0.00    -0.274 OA
HETATM    8  H   UNL     1     -11.183   2.383 -34.898  1.00  0.00     0.139 HD
BRANCH   6   9
HETATM    9  C   UNL     1      -8.684   0.611 -33.740  1.00  0.00     0.026 A 
HETATM   10  C   UNL     1      -7.779   0.822 -34.781  1.00  0.00     0.019 A 
HETATM   11  C   UNL     1      -6.435   0.451 -34.645  1.00  0.00     0.030 A 
HETATM   12  C   UNL     1      -5.937  -0.120 -33.464  1.00  0.00     0.030 A 
HETATM   13  C   UNL     1      -6.886  -0.376 -32.454  1.00  0.00     0.030 A 
HETATM   14  C   UNL     1      -8.236  -0.010 -32.576  1.00  0.00     0.019 A 
BRANCH  12  15
HETATM   15  N   UNL     1      -4.590  -0.440 -33.281  1.00  0.00    -0.382 N 
BRANCH  15  16
HETATM   16  C   UNL     1      -4.236  -1.863 -33.141  1.00  0.00     0.118 C 
HETATM   17  C   UNL     1      -4.624  -2.627 -34.398  1.00  0.00     0.026 C 
ENDBRANCH  15  16
BRANCH  15  18
HETATM   18  C   UNL     1      -3.665   0.501 -32.628  1.00  0.00     0.118 C 
HETATM   19  C   UNL     1      -3.438   0.126 -31.170  1.00  0.00     0.026 C 
ENDBRANCH  15  18
ENDBRANCH  12  15
ENDBRANCH   6   9
ENDBRANCH   3   5
ENDBRANCH   1   3
BRANCH   1  20
HETATM   20  C   UNL     1      -8.662   3.640 -31.831  1.00  0.00     0.035 A 
HETATM   21  C   UNL     1      -7.489   4.267 -32.270  1.00  0.00     0.046 A 
HETATM   22  C   UNL     1      -6.297   4.217 -31.519  1.00  0.00     0.035 A 
HETATM   23  C   UNL     1      -6.341   3.540 -30.287  1.00  0.00     0.078 A 
HETATM   24  C   UNL     1      -7.502   2.909 -29.842  1.00  0.00     0.040 A 
HETATM   25  C   UNL     1      -8.655   2.937 -30.626  1.00  0.00     0.032 A 
BRANCH  22  26
HETATM   26  C   UNL     1      -5.021   4.786 -32.013  1.00  0.00     0.112 A 
HETATM   27  S   UNL     1      -4.395   6.289 -31.455  1.00  0.00    -0.067 SA
HETATM   28  C   UNL     1      -3.109   6.198 -32.590  1.00  0.00     0.035 A 
HETATM   29  C   UNL     1      -3.213   4.999 -33.294  1.00  0.00     0.075 A 
HETATM   30  C   UNL     1      -2.083   7.123 -32.842  1.00  0.00     0.021 A 
HETATM   31  N   UNL     1      -4.289   4.198 -32.945  1.00  0.00    -0.239 NA
HETATM   32  C   UNL     1      -2.254   4.712 -34.287  1.00  0.00     0.033 A 
HETATM   33  C   UNL     1      -1.232   5.630 -34.554  1.00  0.00     0.002 A 
HETATM   34  C   UNL     1      -1.151   6.820 -33.839  1.00  0.00     0.002 A 
ENDBRANCH  22  26
BRANCH  23  35
HETATM   35  O   UNL     1      -5.256   3.431 -29.453  1.00  0.00    -0.360 OA
HETATM   36  H   UNL     1      -5.261   4.205 -28.848  1.00  0.00     0.217 HD
ENDBRANCH  23  35
ENDBRANCH   1  20
TORSDOF 9
ENDMDL
MODEL 5
REMARK VINA RESULT:      -7.5      3.791      6.439
REMARK  9 active torsions:
REMARK  status: ('A' for Active; 'I' for Inactive)
REMARK    1  A    between atoms: C_2  and  N_3 
REMARK    2  A    between atoms: N_3  and  C_4 
REMARK    3  A    between atoms: N_3  and  C_32 
REMARK    4  A    between atoms: C_7  and  C_8 
REMARK       I    between atoms: C_8  and  N_9 
REMARK    5  A    between atoms: N_9  and  C_10 
REMARK    6  A    between atoms: C_10  and  N_11 
REMARK    7  A    between atoms: N_11  and  C_12 
REMARK    8  A    between atoms: C_14  and  C_15 
REMARK    9  A    between atoms: C_24  and  O_25 
ROOT
HETATM    1  N   UNL     1      -3.042   4.530 -31.349  1.00  0.00    -0.337 N 
HETATM    2  H   UNL     1      -2.444   4.716 -30.548  1.00  0.00     0.168 HD
ENDROOT
BRANCH   1   3
HETATM    3  C   UNL     1      -2.738   5.287 -32.458  1.00  0.00     0.157 C 
HETATM    4  S   UNL     1      -2.253   4.487 -33.842  1.00  0.00    -0.047 SA
BRANCH   3   5
HETATM    5  N   UNL     1      -2.968   6.644 -32.322  1.00  0.00    -0.201 NA
HETATM    6  C   UNL     1      -1.986   7.616 -32.253  1.00  0.00     0.237 C 
HETATM    7  O   UNL     1      -1.800   8.366 -33.209  1.00  0.00    -0.274 OA
HETATM    8  H   UNL     1      -3.605   6.910 -33.066  1.00  0.00     0.139 HD
BRANCH   6   9
HETATM    9  C   UNL     1      -1.261   7.822 -30.969  1.00  0.00     0.026 A 
HETATM   10  C   UNL     1      -1.820   8.692 -30.031  1.00  0.00     0.019 A 
HETATM   11  C   UNL     1      -1.258   8.822 -28.754  1.00  0.00     0.030 A 
HETATM   12  C   UNL     1      -0.138   8.076 -28.355  1.00  0.00     0.030 A 
HETATM   13  C   UNL     1       0.439   7.253 -29.342  1.00  0.00     0.030 A 
HETATM   14  C   UNL     1      -0.112   7.113 -30.625  1.00  0.00     0.019 A 
BRANCH  12  15
HETATM   15  N   UNL     1       0.401   8.142 -27.068  1.00  0.00    -0.382 N 
BRANCH  15  16
HETATM   16  C   UNL     1      -0.507   7.911 -25.932  1.00  0.00     0.118 C 
HETATM   17  C   UNL     1      -1.167   6.545 -26.056  1.00  0.00     0.026 C 
ENDBRANCH  15  16
BRANCH  15  18
HETATM   18  C   UNL     1       1.568   8.991 -26.773  1.00  0.00     0.118 C 
HETATM   19  C   UNL     1       2.291   8.515 -25.522  1.00  0.00     0.026 C 
ENDBRANCH  15  18
ENDBRANCH  12  15
ENDBRANCH   6   9
ENDBRANCH   3   5
ENDBRANCH   1   3
BRANCH   1  20
HETATM   20  C   UNL     1      -4.077   3.590 -31.149  1.00  0.00     0.035 A 
HETATM   21  C   UNL     1      -4.086   2.333 -31.768  1.00  0.00     0.046 A 
HETATM   22  C   UNL     1      -5.166   1.440 -31.613  1.00  0.00     0.035 A 
HETATM   23  C   UNL     1      -6.223   1.848 -30.780  1.00  0.00     0.078 A 
HETATM   24  C   UNL     1      -6.227   3.099 -30.164  1.00  0.00     0.040 A 
HETATM   25  C   UNL     1      -5.166   3.980 -30.370  1.00  0.00     0.032 A 
BRANCH  22  26
HETATM   26  C   UNL     1      -5.241   0.150 -32.338  1.00  0.00     0.112 A 
HETATM   27  S   UNL     1      -3.849  -0.797 -32.698  1.00  0.00    -0.067 SA
HETATM   28  C   UNL     1      -4.809  -1.903 -33.595  1.00  0.00     0.035 A 
HETATM   29  C   UNL     1      -6.142  -1.503 -33.525  1.00  0.00     0.075 A 
HETATM   30  C   UNL     1      -4.409  -3.041 -34.315  1.00  0.00     0.021 A 
HETATM   31  N   UNL     1      -6.378  -0.350 -32.793  1.00  0.00    -0.239 NA
HETATM   32  C   UNL     1      -7.116  -2.271 -34.196  1.00  0.00     0.033 A 
HETATM   33  C   UNL     1      -6.729  -3.403 -34.923  1.00  0.00     0.002 A 
HETATM   34  C   UNL     1      -5.392  -3.780 -34.981  1.00  0.00     0.002 A 
ENDBRANCH  22  26
BRANCH  23  35
HETATM   35  O   UNL     1      -7.326   1.068 -30.534  1.00  0.00    -0.360 OA
HETATM   36  H   UNL     1      -8.110   1.658 -30.490  1.00  0.00     0.217 HD
ENDBRANCH  23  35
ENDBRANCH   1  20
TORSDOF 9
ENDMDL
MODEL 6
REMARK VINA RESULT:      -7.4      3.186      8.336
REMARK  9 active torsions:
REMARK  status: ('A' for Active; 'I' for Inactive)
REMARK    1  A    between atoms: C_2  and  N_3 
REMARK    2  A    between atoms: N_3  and  C_4 
REMARK    3  A    between atoms: N_3  and  C_32 
REMARK    4  A    between atoms: C_7  and  C_8 
REMARK       I    between atoms: C_8  and  N_9 
REMARK    5  A    between atoms: N_9  and  C_10 
REMARK    6  A    between atoms: C_10  and  N_11 
REMARK    7  A    between atoms: N_11  and  C_12 
REMARK    8  A    between atoms: C_14  and  C_15 
REMARK    9  A    between atoms: C_24  and  O_25 
ROOT
HETATM    1  N   UNL     1      -5.137   3.719 -33.106  1.00  0.00    -0.337 N 
HETATM    2  H   UNL     1      -4.926   2.727 -33.187  1.00  0.00     0.168 HD
ENDROOT
BRANCH   1   3
HETATM    3  C   UNL     1      -6.478   3.990 -32.947  1.00  0.00     0.157 C 
HETATM    4  S   UNL     1      -6.927   5.016 -31.708  1.00  0.00    -0.047 SA
BRANCH   3   5
HETATM    5  N   UNL     1      -7.305   3.446 -33.914  1.00  0.00    -0.201 NA
HETATM    6  C   UNL     1      -8.123   2.345 -33.736  1.00  0.00     0.237 C 
HETATM    7  O   UNL     1      -9.340   2.495 -33.654  1.00  0.00    -0.274 OA
HETATM    8  H   UNL     1      -7.886   4.201 -34.263  1.00  0.00     0.139 HD
BRANCH   6   9
HETATM    9  C   UNL     1      -7.522   0.983 -33.780  1.00  0.00     0.026 A 
HETATM   10  C   UNL     1      -7.323   0.393 -35.029  1.00  0.00     0.019 A 
HETATM   11  C   UNL     1      -6.639  -0.825 -35.143  1.00  0.00     0.030 A 
HETATM   12  C   UNL     1      -6.110  -1.488 -34.025  1.00  0.00     0.030 A 
HETATM   13  C   UNL     1      -6.379  -0.900 -32.773  1.00  0.00     0.030 A 
HETATM   14  C   UNL     1      -7.063   0.320 -32.643  1.00  0.00     0.019 A 
BRANCH  12  15
HETATM   15  N   UNL     1      -5.371  -2.669 -34.119  1.00  0.00    -0.382 N 
BRANCH  15  16
HETATM   16  C   UNL     1      -4.068  -2.720 -33.433  1.00  0.00     0.118 C 
HETATM   17  C   UNL     1      -3.568  -4.155 -33.362  1.00  0.00     0.026 C 
ENDBRANCH  15  16
BRANCH  15  18
HETATM   18  C   UNL     1      -5.495  -3.554 -35.289  1.00  0.00     0.118 C 
HETATM   19  C   UNL     1      -6.703  -4.471 -35.159  1.00  0.00     0.026 C 
ENDBRANCH  15  18
ENDBRANCH  12  15
ENDBRANCH   6   9
ENDBRANCH   3   5
ENDBRANCH   1   3
BRANCH   1  20
HETATM   20  C   UNL     1      -4.042   4.601 -33.224  1.00  0.00     0.035 A 
HETATM   21  C   UNL     1      -3.236   4.955 -32.134  1.00  0.00     0.046 A 
HETATM   22  C   UNL     1      -2.193   5.896 -32.259  1.00  0.00     0.035 A 
HETATM   23  C   UNL     1      -1.970   6.442 -33.536  1.00  0.00     0.078 A 
HETATM   24  C   UNL     1      -2.770   6.101 -34.627  1.00  0.00     0.040 A 
HETATM   25  C   UNL     1      -3.822   5.200 -34.464  1.00  0.00     0.032 A 
BRANCH  22  26
HETATM   26  C   UNL     1      -1.396   6.359 -31.100  1.00  0.00     0.112 A 
HETATM   27  S   UNL     1      -0.190   5.384 -30.352  1.00  0.00    -0.067 SA
HETATM   28  C   UNL     1       0.047   6.575 -29.137  1.00  0.00     0.035 A 
HETATM   29  C   UNL     1      -0.779   7.665 -29.406  1.00  0.00     0.075 A 
HETATM   30  C   UNL     1       0.901   6.544 -28.022  1.00  0.00     0.021 A 
HETATM   31  N   UNL     1      -1.577   7.540 -30.531  1.00  0.00    -0.239 NA
HETATM   32  C   UNL     1      -0.750   8.769 -28.530  1.00  0.00     0.033 A 
HETATM   33  C   UNL     1       0.090   8.747 -27.411  1.00  0.00     0.002 A 
HETATM   34  C   UNL     1       0.904   7.646 -27.162  1.00  0.00     0.002 A 
ENDBRANCH  22  26
BRANCH  23  35
HETATM   35  O   UNL     1      -0.979   7.356 -33.797  1.00  0.00    -0.360 OA
HETATM   36  H   UNL     1      -0.963   7.516 -34.766  1.00  0.00     0.217 HD
ENDBRANCH  23  35
ENDBRANCH   1  20
TORSDOF 9
ENDMDL
MODEL 7
REMARK VINA RESULT:      -7.4      4.178      6.803
REMARK  9 active torsions:
REMARK  status: ('A' for Active; 'I' for Inactive)
REMARK    1  A    between atoms: C_2  and  N_3 
REMARK    2  A    between atoms: N_3  and  C_4 
REMARK    3  A    between atoms: N_3  and  C_32 
REMARK    4  A    between atoms: C_7  and  C_8 
REMARK       I    between atoms: C_8  and  N_9 
REMARK    5  A    between atoms: N_9  and  C_10 
REMARK    6  A    between atoms: C_10  and  N_11 
REMARK    7  A    between atoms: N_11  and  C_12 
REMARK    8  A    between atoms: C_14  and  C_15 
REMARK    9  A    between atoms: C_24  and  O_25 
ROOT
HETATM    1  N   UNL     1      -2.374   4.019 -31.333  1.00  0.00    -0.337 N 
HETATM    2  H   UNL     1      -1.670   3.883 -30.612  1.00  0.00     0.168 HD
ENDROOT
BRANCH   1   3
HETATM    3  C   UNL     1      -2.050   4.995 -32.250  1.00  0.00     0.157 C 
HETATM    4  S   UNL     1      -3.270   5.591 -33.222  1.00  0.00    -0.047 SA
BRANCH   3   5
HETATM    5  N   UNL     1      -0.743   5.444 -32.190  1.00  0.00    -0.201 NA
HETATM    6  C   UNL     1       0.116   5.258 -31.121  1.00  0.00     0.237 C 
HETATM    7  O   UNL     1       1.042   4.456 -31.213  1.00  0.00    -0.274 OA
HETATM    8  H   UNL     1      -0.273   5.093 -33.018  1.00  0.00     0.139 HD
BRANCH   6   9
HETATM    9  C   UNL     1      -0.020   6.134 -29.924  1.00  0.00     0.026 A 
HETATM   10  C   UNL     1       0.567   5.711 -28.730  1.00  0.00     0.019 A 
HETATM   11  C   UNL     1       0.592   6.552 -27.610  1.00  0.00     0.030 A 
HETATM   12  C   UNL     1       0.056   7.849 -27.641  1.00  0.00     0.030 A 
HETATM   13  C   UNL     1      -0.583   8.224 -28.839  1.00  0.00     0.030 A 
HETATM   14  C   UNL     1      -0.615   7.393 -29.971  1.00  0.00     0.019 A 
BRANCH  12  15
HETATM   15  N   UNL     1       0.124   8.727 -26.557  1.00  0.00    -0.382 N 
BRANCH  15  16
HETATM   16  C   UNL     1      -1.110   9.428 -26.164  1.00  0.00     0.118 C 
HETATM   17  C   UNL     1      -1.242   9.448 -24.648  1.00  0.00     0.026 C 
ENDBRANCH  15  16
BRANCH  15  18
HETATM   18  C   UNL     1       1.375   9.430 -26.224  1.00  0.00     0.118 C 
HETATM   19  C   UNL     1       2.259   8.580 -25.324  1.00  0.00     0.026 C 
ENDBRANCH  15  18
ENDBRANCH  12  15
ENDBRANCH   6   9
ENDBRANCH   3   5
ENDBRANCH   1   3
BRANCH   1  20
HETATM   20  C   UNL     1      -3.541   3.234 -31.221  1.00  0.00     0.035 A 
HETATM   21  C   UNL     1      -3.655   1.961 -31.795  1.00  0.00     0.046 A 
HETATM   22  C   UNL     1      -4.856   1.226 -31.734  1.00  0.00     0.035 A 
HETATM   23  C   UNL     1      -5.931   1.808 -31.038  1.00  0.00     0.078 A 
HETATM   24  C   UNL     1      -5.831   3.076 -30.467  1.00  0.00     0.040 A 
HETATM   25  C   UNL     1      -4.645   3.799 -30.581  1.00  0.00     0.032 A 
BRANCH  22  26
HETATM   26  C   UNL     1      -5.028  -0.076 -32.421  1.00  0.00     0.112 A 
HETATM   27  S   UNL     1      -3.725  -1.173 -32.672  1.00  0.00    -0.067 SA
HETATM   28  C   UNL     1      -4.747  -2.208 -33.586  1.00  0.00     0.035 A 
HETATM   29  C   UNL     1      -6.034  -1.671 -33.603  1.00  0.00     0.075 A 
HETATM   30  C   UNL     1      -4.432  -3.407 -34.245  1.00  0.00     0.021 A 
HETATM   31  N   UNL     1      -6.185  -0.474 -32.923  1.00  0.00    -0.239 NA
HETATM   32  C   UNL     1      -7.046  -2.360 -34.303  1.00  0.00     0.033 A 
HETATM   33  C   UNL     1      -6.742  -3.551 -34.971  1.00  0.00     0.002 A 
HETATM   34  C   UNL     1      -5.450  -4.065 -34.942  1.00  0.00     0.002 A 
ENDBRANCH  22  26
BRANCH  23  35
HETATM   35  O   UNL     1      -7.149   1.191 -30.892  1.00  0.00    -0.360 OA
HETATM   36  H   UNL     1      -7.505   1.010 -31.790  1.00  0.00     0.217 HD
ENDBRANCH  23  35
ENDBRANCH   1  20
TORSDOF 9
ENDMDL
MODEL 8
REMARK VINA RESULT:      -7.3      2.888      6.997
REMARK  9 active torsions:
REMARK  status: ('A' for Active; 'I' for Inactive)
REMARK    1  A    between atoms: C_2  and  N_3 
REMARK    2  A    between atoms: N_3  and  C_4 
REMARK    3  A    between atoms: N_3  and  C_32 
REMARK    4  A    between atoms: C_7  and  C_8 
REMARK       I    between atoms: C_8  and  N_9 
REMARK    5  A    between atoms: N_9  and  C_10 
REMARK    6  A    between atoms: C_10  and  N_11 
REMARK    7  A    between atoms: N_11  and  C_12 
REMARK    8  A    between atoms: C_14  and  C_15 
REMARK    9  A    between atoms: C_24  and  O_25 
ROOT
HETATM    1  N   UNL     1     -10.561   5.109 -31.914  1.00  0.00    -0.337 N 
HETATM    2  H   UNL     1     -10.693   6.110 -31.796  1.00  0.00     0.168 HD
ENDROOT
BRANCH   1   3
HETATM    3  C   UNL     1     -11.677   4.452 -32.382  1.00  0.00     0.157 C 
HETATM    4  S   UNL     1     -13.029   4.412 -31.402  1.00  0.00    -0.047 SA
BRANCH   3   5
HETATM    5  N   UNL     1     -11.576   3.975 -33.677  1.00  0.00    -0.201 NA
HETATM    6  C   UNL     1     -11.675   2.647 -34.047  1.00  0.00     0.237 C 
HETATM    7  O   UNL     1     -12.680   2.248 -34.631  1.00  0.00    -0.274 OA
HETATM    8  H   UNL     1     -12.246   4.495 -34.234  1.00  0.00     0.139 HD
BRANCH   6   9
HETATM    9  C   UNL     1     -10.501   1.751 -33.849  1.00  0.00     0.026 A 
HETATM   10  C   UNL     1      -9.250   2.203 -34.274  1.00  0.00     0.019 A 
HETATM   11  C   UNL     1      -8.092   1.467 -33.992  1.00  0.00     0.030 A 
HETATM   12  C   UNL     1      -8.131   0.271 -33.259  1.00  0.00     0.030 A 
HETATM   13  C   UNL     1      -9.412  -0.191 -32.897  1.00  0.00     0.030 A 
HETATM   14  C   UNL     1     -10.582   0.535 -33.172  1.00  0.00     0.019 A 
BRANCH  12  15
HETATM   15  N   UNL     1      -6.984  -0.447 -32.912  1.00  0.00    -0.382 N 
BRANCH  15  16
HETATM   16  C   UNL     1      -6.420  -0.231 -31.569  1.00  0.00     0.118 C 
HETATM   17  C   UNL     1      -4.917  -0.469 -31.585  1.00  0.00     0.026 C 
ENDBRANCH  15  16
BRANCH  15  18
HETATM   18  C   UNL     1      -6.015  -0.875 -33.935  1.00  0.00     0.118 C 
HETATM   19  C   UNL     1      -6.468  -2.156 -34.620  1.00  0.00     0.026 C 
ENDBRANCH  15  18
ENDBRANCH  12  15
ENDBRANCH   6   9
ENDBRANCH   3   5
ENDBRANCH   1   3
BRANCH   1  20
HETATM   20  C   UNL     1      -9.302   4.597 -31.531  1.00  0.00     0.035 A 
HETATM   21  C   UNL     1      -8.101   5.033 -32.107  1.00  0.00     0.046 A 
HETATM   22  C   UNL     1      -6.863   4.455 -31.763  1.00  0.00     0.035 A 
HETATM   23  C   UNL     1      -6.875   3.442 -30.786  1.00  0.00     0.078 A 
HETATM   24  C   UNL     1      -8.064   2.998 -30.210  1.00  0.00     0.040 A 
HETATM   25  C   UNL     1      -9.280   3.557 -30.601  1.00  0.00     0.032 A 
BRANCH  22  26
HETATM   26  C   UNL     1      -5.596   4.830 -32.433  1.00  0.00     0.112 A 
HETATM   27  S   UNL     1      -5.356   4.660 -34.130  1.00  0.00    -0.067 SA
HETATM   28  C   UNL     1      -3.717   5.146 -33.967  1.00  0.00     0.035 A 
HETATM   29  C   UNL     1      -3.468   5.452 -32.630  1.00  0.00     0.075 A 
HETATM   30  C   UNL     1      -2.721   5.244 -34.951  1.00  0.00     0.021 A 
HETATM   31  N   UNL     1      -4.545   5.289 -31.774  1.00  0.00    -0.239 NA
HETATM   32  C   UNL     1      -2.175   5.876 -32.262  1.00  0.00     0.033 A 
HETATM   33  C   UNL     1      -1.171   5.970 -33.232  1.00  0.00     0.002 A 
HETATM   34  C   UNL     1      -1.444   5.657 -34.560  1.00  0.00     0.002 A 
ENDBRANCH  22  26
BRANCH  23  35
HETATM   35  O   UNL     1      -5.737   2.809 -30.351  1.00  0.00    -0.360 OA
HETATM   36  H   UNL     1      -5.334   3.362 -29.647  1.00  0.00     0.217 HD
ENDBRANCH  23  35
ENDBRANCH   1  20
TORSDOF 9
ENDMDL
MODEL 9
REMARK VINA RESULT:      -7.2      1.612      2.225
REMARK  9 active torsions:
REMARK  status: ('A' for Active; 'I' for Inactive)
REMARK    1  A    between atoms: C_2  and  N_3 
REMARK    2  A    between atoms: N_3  and  C_4 
REMARK    3  A    between atoms: N_3  and  C_32 
REMARK    4  A    between atoms: C_7  and  C_8 
REMARK       I    between atoms: C_8  and  N_9 
REMARK    5  A    between atoms: N_9  and  C_10 
REMARK    6  A    between atoms: C_10  and  N_11 
REMARK    7  A    between atoms: N_11  and  C_12 
REMARK    8  A    between atoms: C_14  and  C_15 
REMARK    9  A    between atoms: C_24  and  O_25 
ROOT
HETATM    1  N   UNL     1      -4.597   4.862 -29.688  1.00  0.00    -0.337 N 
HETATM    2  H   UNL     1      -4.336   4.952 -28.709  1.00  0.00     0.168 HD
ENDROOT
BRANCH   1   3
HETATM    3  C   UNL     1      -3.968   5.765 -30.516  1.00  0.00     0.157 C 
HETATM    4  S   UNL     1      -3.480   7.221 -29.859  1.00  0.00    -0.047 SA
BRANCH   3   5
HETATM    5  N   UNL     1      -3.722   5.310 -31.799  1.00  0.00    -0.201 NA
HETATM    6  C   UNL     1      -4.419   5.696 -32.929  1.00  0.00     0.237 C 
HETATM    7  O   UNL     1      -3.888   6.440 -33.750  1.00  0.00    -0.274 OA
HETATM    8  H   UNL     1      -2.736   5.468 -31.983  1.00  0.00     0.139 HD
BRANCH   6   9
HETATM    9  C   UNL     1      -5.754   5.093 -33.196  1.00  0.00     0.026 A 
HETATM   10  C   UNL     1      -6.888   5.854 -32.907  1.00  0.00     0.019 A 
HETATM   11  C   UNL     1      -8.164   5.397 -33.262  1.00  0.00     0.030 A 
HETATM   12  C   UNL     1      -8.358   4.181 -33.938  1.00  0.00     0.030 A 
HETATM   13  C   UNL     1      -7.201   3.408 -34.161  1.00  0.00     0.030 A 
HETATM   14  C   UNL     1      -5.916   3.853 -33.811  1.00  0.00     0.019 A 
BRANCH  12  15
HETATM   15  N   UNL     1      -9.613   3.735 -34.358  1.00  0.00    -0.382 N 
BRANCH  15  16
HETATM   16  C   UNL     1     -10.432   4.655 -35.165  1.00  0.00     0.118 C 
HETATM   17  C   UNL     1     -11.752   4.938 -34.461  1.00  0.00     0.026 C 
ENDBRANCH  15  16
BRANCH  15  18
HETATM   18  C   UNL     1     -10.372   2.747 -33.573  1.00  0.00     0.118 C 
HETATM   19  C   UNL     1     -10.226   1.350 -34.159  1.00  0.00     0.026 C 
ENDBRANCH  15  18
ENDBRANCH  12  15
ENDBRANCH   6   9
ENDBRANCH   3   5
ENDBRANCH   1   3
BRANCH   1  20
HETATM   20  C   UNL     1      -5.573   3.887 -29.986  1.00  0.00     0.035 A 
HETATM   21  C   UNL     1      -5.265   2.682 -30.631  1.00  0.00     0.046 A 
HETATM   22  C   UNL     1      -6.266   1.755 -30.986  1.00  0.00     0.035 A 
HETATM   23  C   UNL     1      -7.590   2.073 -30.634  1.00  0.00     0.078 A 
HETATM   24  C   UNL     1      -7.909   3.272 -29.997  1.00  0.00     0.040 A 
HETATM   25  C   UNL     1      -6.903   4.190 -29.697  1.00  0.00     0.032 A 
BRANCH  22  26
HETATM   26  C   UNL     1      -5.973   0.524 -31.757  1.00  0.00     0.112 A 
HETATM   27  S   UNL     1      -4.451  -0.277 -31.687  1.00  0.00    -0.067 SA
HETATM   28  C   UNL     1      -4.954  -1.383 -32.900  1.00  0.00     0.035 A 
HETATM   29  C   UNL     1      -6.273  -1.098 -33.251  1.00  0.00     0.075 A 
HETATM   30  C   UNL     1      -4.232  -2.425 -33.503  1.00  0.00     0.021 A 
HETATM   31  N   UNL     1      -6.847  -0.029 -32.582  1.00  0.00    -0.239 NA
HETATM   32  C   UNL     1      -6.896  -1.887 -34.240  1.00  0.00     0.033 A 
HETATM   33  C   UNL     1      -6.184  -2.923 -34.854  1.00  0.00     0.002 A 
HETATM   34  C   UNL     1      -4.868  -3.186 -34.489  1.00  0.00     0.002 A 
ENDBRANCH  22  26
BRANCH  23  35
HETATM   35  O   UNL     1      -8.655   1.251 -30.908  1.00  0.00    -0.360 OA
HETATM   36  H   UNL     1      -9.476   1.725 -30.649  1.00  0.00     0.217 HD
ENDBRANCH  23  35
ENDBRANCH   1  20
TORSDOF 9
ENDMDL
MODEL 10
REMARK VINA RESULT:      -7.1      3.179      4.208
REMARK  9 active torsions:
REMARK  status: ('A' for Active; 'I' for Inactive)
REMARK    1  A    between atoms: C_2  and  N_3 
REMARK    2  A    between atoms: N_3  and  C_4 
REMARK    3  A    between atoms: N_3  and  C_32 
REMARK    4  A    between atoms: C_7  and  C_8 
REMARK       I    between atoms: C_8  and  N_9 
REMARK    5  A    between atoms: N_9  and  C_10 
REMARK    6  A    between atoms: C_10  and  N_11 
REMARK    7  A    between atoms: N_11  and  C_12 
REMARK    8  A    between atoms: C_14  and  C_15 
REMARK    9  A    between atoms: C_24  and  O_25 
ROOT
HETATM    1  N   UNL     1      -6.875   5.414 -32.720  1.00  0.00    -0.337 N 
HETATM    2  H   UNL     1      -6.147   6.115 -32.835  1.00  0.00     0.168 HD
ENDROOT
BRANCH   1   3
HETATM    3  C   UNL     1      -8.116   5.828 -33.149  1.00  0.00     0.157 C 
HETATM    4  S   UNL     1      -8.988   6.848 -32.155  1.00  0.00    -0.047 SA
BRANCH   3   5
HETATM    5  N   UNL     1      -8.461   5.418 -34.425  1.00  0.00    -0.201 NA
HETATM    6  C   UNL     1      -9.706   5.582 -35.005  1.00  0.00     0.237 C 
HETATM    7  O   UNL     1      -9.861   6.417 -35.894  1.00  0.00    -0.274 OA
HETATM    8  H   UNL     1      -7.778   5.820 -35.058  1.00  0.00     0.139 HD
BRANCH   6   9
HETATM    9  C   UNL     1     -10.806   4.649 -34.634  1.00  0.00     0.026 A 
HETATM   10  C   UNL     1     -10.465   3.353 -34.245  1.00  0.00     0.019 A 
HETATM   11  C   UNL     1     -11.441   2.475 -33.755  1.00  0.00     0.030 A 
HETATM   12  C   UNL     1     -12.783   2.860 -33.611  1.00  0.00     0.030 A 
HETATM   13  C   UNL     1     -13.107   4.152 -34.068  1.00  0.00     0.030 A 
HETATM   14  C   UNL     1     -12.141   5.043 -34.561  1.00  0.00     0.019 A 
BRANCH  12  15
HETATM   15  N   UNL     1     -13.760   2.024 -33.066  1.00  0.00    -0.382 N 
BRANCH  15  16
HETATM   16  C   UNL     1     -14.303   0.955 -33.923  1.00  0.00     0.118 C 
HETATM   17  C   UNL     1     -13.589  -0.359 -33.639  1.00  0.00     0.026 C 
ENDBRANCH  15  16
BRANCH  15  18
HETATM   18  C   UNL     1     -14.670   2.502 -32.012  1.00  0.00     0.118 C 
HETATM   19  C   UNL     1     -16.123   2.234 -32.377  1.00  0.00     0.026 C 
ENDBRANCH  15  18
ENDBRANCH  12  15
ENDBRANCH   6   9
ENDBRANCH   3   5
ENDBRANCH   1   3
BRANCH   1  20
HETATM   20  C   UNL     1      -6.485   4.204 -32.109  1.00  0.00     0.035 A 
HETATM   21  C   UNL     1      -6.371   3.000 -32.818  1.00  0.00     0.046 A 
HETATM   22  C   UNL     1      -6.053   1.788 -32.173  1.00  0.00     0.035 A 
HETATM   23  C   UNL     1      -5.816   1.840 -30.787  1.00  0.00     0.078 A 
HETATM   24  C   UNL     1      -5.931   3.031 -30.071  1.00  0.00     0.040 A 
HETATM   25  C   UNL     1      -6.291   4.207 -30.727  1.00  0.00     0.032 A 
BRANCH  22  26
HETATM   26  C   UNL     1      -6.028   0.490 -32.887  1.00  0.00     0.112 A 
HETATM   27  S   UNL     1      -7.447  -0.247 -33.525  1.00  0.00    -0.067 SA
HETATM   28  C   UNL     1      -6.545  -1.637 -33.977  1.00  0.00     0.035 A 
HETATM   29  C   UNL     1      -5.205  -1.431 -33.653  1.00  0.00     0.075 A 
HETATM   30  C   UNL     1      -6.993  -2.828 -34.573  1.00  0.00     0.021 A 
HETATM   31  N   UNL     1      -4.921  -0.214 -33.054  1.00  0.00    -0.239 NA
HETATM   32  C   UNL     1      -4.275  -2.452 -33.937  1.00  0.00     0.033 A 
HETATM   33  C   UNL     1      -4.710  -3.646 -34.523  1.00  0.00     0.002 A 
HETATM   34  C   UNL     1      -6.053  -3.829 -34.835  1.00  0.00     0.002 A 
ENDBRANCH  22  26
BRANCH  23  35
HETATM   35  O   UNL     1      -5.484   0.735 -30.043  1.00  0.00    -0.360 OA
HETATM   36  H   UNL     1      -6.228   0.550 -29.429  1.00  0.00     0.217 HD
ENDBRANCH  23  35
ENDBRANCH   1  20
TORSDOF 9
ENDMDL
