MODEL 1
REMARK VINA RESULT:      -8.4      0.000      0.000
REMARK  6 active torsions:
REMARK  status: ('A' for Active; 'I' for Inactive)
REMARK    1  A    between atoms: C_2  and  O_3 
REMARK    2  A    between atoms: O_3  and  C_4 
REMARK    3  A    between atoms: C_4  and  C_6 
REMARK    4  A    between atoms: C_8  and  N_9 
REMARK    5  A    between atoms: N_9  and  C_10 
REMARK    6  A    between atoms: C_18  and  C_19 
ROOT
HETATM    1  C   UNL     1      -4.945   3.961 -33.184  1.00  0.00     0.115 A 
HETATM    2  S   UNL     1      -5.928   2.614 -33.602  1.00  0.00    -0.043 SA
HETATM    3  C   UNL     1      -5.290   1.717 -32.274  1.00  0.00     0.172 A 
HETATM    4  N   UNL     1      -4.375   2.360 -31.588  1.00  0.00    -0.220 NA
HETATM    5  C   UNL     1      -4.158   3.633 -32.100  1.00  0.00     0.118 A 
ENDROOT
BRANCH   3   6
HETATM    6  N   UNL     1      -5.782   0.481 -32.030  1.00  0.00    -0.335 N 
HETATM    7  H   UNL     1      -6.128   0.306 -31.095  1.00  0.00     0.168 HD
BRANCH   6   8
HETATM    8  C   UNL     1      -5.807  -0.643 -32.877  1.00  0.00     0.034 A 
HETATM    9  C   UNL     1      -7.038  -1.030 -33.437  1.00  0.00     0.031 A 
HETATM   10  C   UNL     1      -7.145  -2.163 -34.250  1.00  0.00     0.021 A 
HETATM   11  C   UNL     1      -6.014  -2.927 -34.517  1.00  0.00     0.011 A 
HETATM   12 BR   UNL     1      -6.151  -4.462 -35.610  1.00  0.00    -0.051 Br
HETATM   13  C   UNL     1      -4.785  -2.567 -33.979  1.00  0.00     0.021 A 
HETATM   14  C   UNL     1      -4.687  -1.434 -33.162  1.00  0.00     0.031 A 
ENDBRANCH   6   8
ENDBRANCH   3   6
BRANCH   1  15
HETATM   15  C   UNL     1      -5.097   5.209 -33.884  1.00  0.00     0.302 C 
HETATM   16  O   UNL     1      -5.923   6.076 -33.633  1.00  0.00    -0.259 OA
BRANCH  15  17
HETATM   17  O   UNL     1      -4.221   5.261 -34.934  1.00  0.00    -0.317 OA
BRANCH  17  18
HETATM   18  C   UNL     1      -2.990   5.956 -34.687  1.00  0.00     0.174 C 
HETATM   19  C   UNL     1      -1.811   5.054 -35.006  1.00  0.00     0.034 C 
ENDBRANCH  17  18
ENDBRANCH  15  17
ENDBRANCH   1  15
BRANCH   5  20
HETATM   20  C   UNL     1      -3.110   4.531 -31.496  1.00  0.00     0.129 A 
HETATM   21  N   UNL     1      -1.826   4.252 -31.538  1.00  0.00    -0.238 NA
HETATM   22  C   UNL     1      -1.102   5.255 -30.917  1.00  0.00     0.075 A 
HETATM   23  C   UNL     1       0.302   5.310 -30.797  1.00  0.00     0.033 A 
HETATM   24  C   UNL     1      -1.861   6.290 -30.368  1.00  0.00     0.035 A 
HETATM   25  C   UNL     1       0.903   6.390 -30.139  1.00  0.00     0.002 A 
HETATM   26  C   UNL     1       0.125   7.409 -29.600  1.00  0.00     0.002 A 
HETATM   27  C   UNL     1      -1.269   7.377 -29.705  1.00  0.00     0.021 A 
HETATM   28  S   UNL     1      -3.525   5.972 -30.657  1.00  0.00    -0.066 SA
ENDBRANCH   5  20
TORSDOF 6
ENDMDL
MODEL 2
REMARK VINA RESULT:      -8.2      3.773      8.376
REMARK  6 active torsions:
REMARK  status: ('A' for Active; 'I' for Inactive)
REMARK    1  A    between atoms: C_2  and  O_3 
REMARK    2  A    between atoms: O_3  and  C_4 
REMARK    3  A    between atoms: C_4  and  C_6 
REMARK    4  A    between atoms: C_8  and  N_9 
REMARK    5  A    between atoms: N_9  and  C_10 
REMARK    6  A    between atoms: C_18  and  C_19 
ROOT
HETATM    1  C   UNL     1      -5.222   2.657 -32.055  1.00  0.00     0.115 A 
HETATM    2  S   UNL     1      -4.922   4.345 -31.927  1.00  0.00    -0.043 SA
HETATM    3  C   UNL     1      -3.269   4.099 -32.355  1.00  0.00     0.172 A 
HETATM    4  N   UNL     1      -2.948   2.840 -32.539  1.00  0.00    -0.220 NA
HETATM    5  C   UNL     1      -4.045   2.006 -32.360  1.00  0.00     0.118 A 
ENDROOT
BRANCH   3   6
HETATM    6  N   UNL     1      -2.466   5.179 -32.491  1.00  0.00    -0.335 N 
HETATM    7  H   UNL     1      -2.306   5.510 -33.434  1.00  0.00     0.168 HD
BRANCH   6   8
HETATM    8  C   UNL     1      -1.743   5.873 -31.503  1.00  0.00     0.034 A 
HETATM    9  C   UNL     1      -0.355   6.021 -31.672  1.00  0.00     0.031 A 
HETATM   10  C   UNL     1       0.433   6.658 -30.707  1.00  0.00     0.021 A 
HETATM   11  C   UNL     1      -0.162   7.160 -29.555  1.00  0.00     0.011 A 
HETATM   12 BR   UNL     1       0.895   8.017 -28.245  1.00  0.00    -0.051 Br
HETATM   13  C   UNL     1      -1.532   7.029 -29.363  1.00  0.00     0.021 A 
HETATM   14  C   UNL     1      -2.313   6.386 -30.330  1.00  0.00     0.031 A 
ENDBRANCH   6   8
ENDBRANCH   3   6
BRANCH   1  15
HETATM   15  C   UNL     1      -6.564   2.152 -31.934  1.00  0.00     0.302 C 
HETATM   16  O   UNL     1      -7.115   1.823 -30.892  1.00  0.00    -0.259 OA
BRANCH  15  17
HETATM   17  O   UNL     1      -7.122   2.018 -33.176  1.00  0.00    -0.317 OA
BRANCH  17  18
HETATM   18  C   UNL     1      -7.837   0.796 -33.411  1.00  0.00     0.174 C 
HETATM   19  C   UNL     1      -7.758   0.423 -34.880  1.00  0.00     0.034 C 
ENDBRANCH  17  18
ENDBRANCH  15  17
ENDBRANCH   1  15
BRANCH   5  20
HETATM   20  C   UNL     1      -3.895   0.512 -32.475  1.00  0.00     0.129 A 
HETATM   21  N   UNL     1      -4.394  -0.178 -33.477  1.00  0.00    -0.238 NA
HETATM   22  C   UNL     1      -4.093  -1.521 -33.326  1.00  0.00     0.075 A 
HETATM   23  C   UNL     1      -4.440  -2.552 -34.222  1.00  0.00     0.033 A 
HETATM   24  C   UNL     1      -3.384  -1.849 -32.170  1.00  0.00     0.035 A 
HETATM   25  C   UNL     1      -4.070  -3.872 -33.941  1.00  0.00     0.002 A 
HETATM   26  C   UNL     1      -3.363  -4.175 -32.782  1.00  0.00     0.002 A 
HETATM   27  C   UNL     1      -3.009  -3.170 -31.877  1.00  0.00     0.021 A 
HETATM   28  S   UNL     1      -3.097  -0.415 -31.267  1.00  0.00    -0.066 SA
ENDBRANCH   5  20
TORSDOF 6
ENDMDL
MODEL 3
REMARK VINA RESULT:      -8.0      4.176      8.694
REMARK  6 active torsions:
REMARK  status: ('A' for Active; 'I' for Inactive)
REMARK    1  A    between atoms: C_2  and  O_3 
REMARK    2  A    between atoms: O_3  and  C_4 
REMARK    3  A    between atoms: C_4  and  C_6 
REMARK    4  A    between atoms: C_8  and  N_9 
REMARK    5  A    between atoms: N_9  and  C_10 
REMARK    6  A    between atoms: C_18  and  C_19 
ROOT
HETATM    1  C   UNL     1      -8.200   1.630 -33.308  1.00  0.00     0.115 A 
HETATM    2  S   UNL     1      -8.342   3.341 -33.222  1.00  0.00    -0.043 SA
HETATM    3  C   UNL     1      -6.765   3.522 -33.896  1.00  0.00     0.172 A 
HETATM    4  N   UNL     1      -6.152   2.385 -34.130  1.00  0.00    -0.220 NA
HETATM    5  C   UNL     1      -6.950   1.300 -33.790  1.00  0.00     0.118 A 
ENDROOT
BRANCH   3   6
HETATM    6  N   UNL     1      -6.306   4.769 -34.149  1.00  0.00    -0.335 N 
HETATM    7  H   UNL     1      -6.890   5.358 -34.729  1.00  0.00     0.168 HD
BRANCH   6   8
HETATM    8  C   UNL     1      -5.077   5.349 -33.786  1.00  0.00     0.034 A 
HETATM    9  C   UNL     1      -4.005   5.266 -34.692  1.00  0.00     0.031 A 
HETATM   10  C   UNL     1      -2.742   5.780 -34.378  1.00  0.00     0.021 A 
HETATM   11  C   UNL     1      -2.535   6.389 -33.145  1.00  0.00     0.011 A 
HETATM   12 BR   UNL     1      -0.832   7.081 -32.710  1.00  0.00    -0.051 Br
HETATM   13  C   UNL     1      -3.577   6.486 -32.230  1.00  0.00     0.021 A 
HETATM   14  C   UNL     1      -4.836   5.965 -32.551  1.00  0.00     0.031 A 
ENDBRANCH   6   8
ENDBRANCH   3   6
BRANCH   1  15
HETATM   15  C   UNL     1      -9.327   0.795 -32.986  1.00  0.00     0.302 C 
HETATM   16  O   UNL     1      -9.451   0.116 -31.976  1.00  0.00    -0.259 OA
BRANCH  15  17
HETATM   17  O   UNL     1     -10.223   0.809 -34.020  1.00  0.00    -0.317 OA
BRANCH  17  18
HETATM   18  C   UNL     1     -11.570   1.161 -33.674  1.00  0.00     0.174 C 
HETATM   19  C   UNL     1     -12.363   1.479 -34.929  1.00  0.00     0.034 C 
ENDBRANCH  17  18
ENDBRANCH  15  17
ENDBRANCH   1  15
BRANCH   5  20
HETATM   20  C   UNL     1      -6.427  -0.106 -33.930  1.00  0.00     0.129 A 
HETATM   21  N   UNL     1      -7.154  -1.089 -34.413  1.00  0.00    -0.238 NA
HETATM   22  C   UNL     1      -6.415  -2.260 -34.435  1.00  0.00     0.075 A 
HETATM   23  C   UNL     1      -6.858  -3.509 -34.916  1.00  0.00     0.033 A 
HETATM   24  C   UNL     1      -5.120  -2.159 -33.925  1.00  0.00     0.035 A 
HETATM   25  C   UNL     1      -6.000  -4.614 -34.875  1.00  0.00     0.002 A 
HETATM   26  C   UNL     1      -4.712  -4.489 -34.363  1.00  0.00     0.002 A 
HETATM   27  C   UNL     1      -4.251  -3.262 -33.879  1.00  0.00     0.021 A 
HETATM   28  S   UNL     1      -4.847  -0.541 -33.415  1.00  0.00    -0.066 SA
ENDBRANCH   5  20
TORSDOF 6
ENDMDL
MODEL 4
REMARK VINA RESULT:      -7.6      4.647      8.238
REMARK  6 active torsions:
REMARK  status: ('A' for Active; 'I' for Inactive)
REMARK    1  A    between atoms: C_2  and  O_3 
REMARK    2  A    between atoms: O_3  and  C_4 
REMARK    3  A    between atoms: C_4  and  C_6 
REMARK    4  A    between atoms: C_8  and  N_9 
REMARK    5  A    between atoms: N_9  and  C_10 
REMARK    6  A    between atoms: C_18  and  C_19 
ROOT
HETATM    1  C   UNL     1      -6.932   1.748 -33.161  1.00  0.00     0.115 A 
HETATM    2  S   UNL     1      -7.997   3.081 -33.364  1.00  0.00    -0.043 SA
HETATM    3  C   UNL     1      -9.033   2.122 -34.355  1.00  0.00     0.172 A 
HETATM    4  N   UNL     1      -8.596   0.903 -34.559  1.00  0.00    -0.220 NA
HETATM    5  C   UNL     1      -7.395   0.677 -33.897  1.00  0.00     0.118 A 
ENDROOT
BRANCH   3   6
HETATM    6  N   UNL     1     -10.186   2.668 -34.807  1.00  0.00    -0.335 N 
HETATM    7  H   UNL     1     -10.108   3.320 -35.576  1.00  0.00     0.168 HD
BRANCH   6   8
HETATM    8  C   UNL     1     -11.491   2.520 -34.301  1.00  0.00     0.034 A 
HETATM    9  C   UNL     1     -11.959   3.467 -33.373  1.00  0.00     0.031 A 
HETATM   10  C   UNL     1     -13.228   3.357 -32.795  1.00  0.00     0.021 A 
HETATM   11  C   UNL     1     -14.051   2.291 -33.142  1.00  0.00     0.011 A 
HETATM   12 BR   UNL     1     -15.764   2.131 -32.362  1.00  0.00    -0.051 Br
HETATM   13  C   UNL     1     -13.615   1.341 -34.058  1.00  0.00     0.021 A 
HETATM   14  C   UNL     1     -12.342   1.457 -34.628  1.00  0.00     0.031 A 
ENDBRANCH   6   8
ENDBRANCH   3   6
BRANCH   1  15
HETATM   15  C   UNL     1      -5.818   1.845 -32.255  1.00  0.00     0.302 C 
HETATM   16  O   UNL     1      -5.785   1.412 -31.111  1.00  0.00    -0.259 OA
BRANCH  15  17
HETATM   17  O   UNL     1      -4.811   2.567 -32.835  1.00  0.00    -0.317 OA
BRANCH  17  18
HETATM   18  C   UNL     1      -3.509   2.400 -32.255  1.00  0.00     0.174 C 
HETATM   19  C   UNL     1      -2.869   3.755 -32.012  1.00  0.00     0.034 C 
ENDBRANCH  17  18
ENDBRANCH  15  17
ENDBRANCH   1  15
BRANCH   5  20
HETATM   20  C   UNL     1      -6.685  -0.644 -34.032  1.00  0.00     0.129 A 
HETATM   21  N   UNL     1      -7.290  -1.737 -34.442  1.00  0.00    -0.238 NA
HETATM   22  C   UNL     1      -6.393  -2.791 -34.479  1.00  0.00     0.075 A 
HETATM   23  C   UNL     1      -6.679  -4.107 -34.897  1.00  0.00     0.033 A 
HETATM   24  C   UNL     1      -5.097  -2.490 -34.056  1.00  0.00     0.035 A 
HETATM   25  C   UNL     1      -5.669  -5.077 -34.882  1.00  0.00     0.002 A 
HETATM   26  C   UNL     1      -4.385  -4.752 -34.456  1.00  0.00     0.002 A 
HETATM   27  C   UNL     1      -4.078  -3.455 -34.035  1.00  0.00     0.021 A 
HETATM   28  S   UNL     1      -5.030  -0.832 -33.607  1.00  0.00    -0.066 SA
ENDBRANCH   5  20
TORSDOF 6
ENDMDL
MODEL 5
REMARK VINA RESULT:      -7.5      4.659      9.181
REMARK  6 active torsions:
REMARK  status: ('A' for Active; 'I' for Inactive)
REMARK    1  A    between atoms: C_2  and  O_3 
REMARK    2  A    between atoms: O_3  and  C_4 
REMARK    3  A    between atoms: C_4  and  C_6 
REMARK    4  A    between atoms: C_8  and  N_9 
REMARK    5  A    between atoms: N_9  and  C_10 
REMARK    6  A    between atoms: C_18  and  C_19 
ROOT
HETATM    1  C   UNL     1      -6.908   0.504 -33.551  1.00  0.00     0.115 A 
HETATM    2  S   UNL     1      -5.363   0.845 -32.880  1.00  0.00    -0.043 SA
HETATM    3  C   UNL     1      -6.072   1.964 -31.775  1.00  0.00     0.172 A 
HETATM    4  N   UNL     1      -7.368   2.109 -31.923  1.00  0.00    -0.220 NA
HETATM    5  C   UNL     1      -7.857   1.295 -32.936  1.00  0.00     0.118 A 
ENDROOT
BRANCH   3   6
HETATM    6  N   UNL     1      -5.278   2.564 -30.859  1.00  0.00    -0.335 N 
HETATM    7  H   UNL     1      -5.410   2.288 -29.894  1.00  0.00     0.168 HD
BRANCH   6   8
HETATM    8  C   UNL     1      -4.334   3.591 -31.044  1.00  0.00     0.034 A 
HETATM    9  C   UNL     1      -4.726   4.914 -30.776  1.00  0.00     0.031 A 
HETATM   10  C   UNL     1      -3.854   5.989 -30.982  1.00  0.00     0.021 A 
HETATM   11  C   UNL     1      -2.570   5.751 -31.461  1.00  0.00     0.011 A 
HETATM   12 BR   UNL     1      -1.389   7.197 -31.748  1.00  0.00    -0.051 Br
HETATM   13  C   UNL     1      -2.156   4.453 -31.734  1.00  0.00     0.021 A 
HETATM   14  C   UNL     1      -3.036   3.384 -31.529  1.00  0.00     0.031 A 
ENDBRANCH   6   8
ENDBRANCH   3   6
BRANCH   1  15
HETATM   15  C   UNL     1      -7.056  -0.541 -34.528  1.00  0.00     0.302 C 
HETATM   16  O   UNL     1      -7.392  -0.389 -35.695  1.00  0.00    -0.259 OA
BRANCH  15  17
HETATM   17  O   UNL     1      -6.836  -1.758 -33.943  1.00  0.00    -0.317 OA
BRANCH  17  18
HETATM   18  C   UNL     1      -5.987  -2.657 -34.670  1.00  0.00     0.174 C 
HETATM   19  C   UNL     1      -6.702  -3.977 -34.898  1.00  0.00     0.034 C 
ENDBRANCH  17  18
ENDBRANCH  15  17
ENDBRANCH   1  15
BRANCH   5  20
HETATM   20  C   UNL     1      -9.315   1.335 -33.312  1.00  0.00     0.129 A 
HETATM   21  N   UNL     1     -10.130   0.324 -33.106  1.00  0.00    -0.238 NA
HETATM   22  C   UNL     1     -11.406   0.647 -33.537  1.00  0.00     0.075 A 
HETATM   23  C   UNL     1     -12.544  -0.181 -33.448  1.00  0.00     0.033 A 
HETATM   24  C   UNL     1     -11.542   1.913 -34.109  1.00  0.00     0.035 A 
HETATM   25  C   UNL     1     -13.776   0.277 -33.928  1.00  0.00     0.002 A 
HETATM   26  C   UNL     1     -13.887   1.543 -34.494  1.00  0.00     0.002 A 
HETATM   27  C   UNL     1     -12.773   2.381 -34.595  1.00  0.00     0.021 A 
HETATM   28  S   UNL     1     -10.014   2.699 -34.090  1.00  0.00    -0.066 SA
ENDBRANCH   5  20
TORSDOF 6
ENDMDL
MODEL 6
REMARK VINA RESULT:      -7.4      4.961      7.880
REMARK  6 active torsions:
REMARK  status: ('A' for Active; 'I' for Inactive)
REMARK    1  A    between atoms: C_2  and  O_3 
REMARK    2  A    between atoms: O_3  and  C_4 
REMARK    3  A    between atoms: C_4  and  C_6 
REMARK    4  A    between atoms: C_8  and  N_9 
REMARK    5  A    between atoms: N_9  and  C_10 
REMARK    6  A    between atoms: C_18  and  C_19 
ROOT
HETATM    1  C   UNL     1      -6.822   1.942 -33.186  1.00  0.00     0.115 A 
HETATM    2  S   UNL     1      -8.066   3.064 -33.571  1.00  0.00    -0.043 SA
HETATM    3  C   UNL     1      -8.971   1.818 -34.347  1.00  0.00     0.172 A 
HETATM    4  N   UNL     1      -8.371   0.652 -34.359  1.00  0.00    -0.220 NA
HETATM    5  C   UNL     1      -7.142   0.707 -33.713  1.00  0.00     0.118 A 
ENDROOT
BRANCH   3   6
HETATM    6  N   UNL     1     -10.195   2.117 -34.842  1.00  0.00    -0.335 N 
HETATM    7  H   UNL     1     -10.234   2.403 -35.812  1.00  0.00     0.168 HD
BRANCH   6   8
HETATM    8  C   UNL     1     -11.431   2.168 -34.171  1.00  0.00     0.034 A 
HETATM    9  C   UNL     1     -12.324   1.094 -34.335  1.00  0.00     0.031 A 
HETATM   10  C   UNL     1     -13.588   1.099 -33.735  1.00  0.00     0.021 A 
HETATM   11  C   UNL     1     -13.976   2.185 -32.958  1.00  0.00     0.011 A 
HETATM   12 BR   UNL     1     -15.683   2.203 -32.149  1.00  0.00    -0.051 Br
HETATM   13  C   UNL     1     -13.112   3.259 -32.778  1.00  0.00     0.021 A 
HETATM   14  C   UNL     1     -11.851   3.248 -33.385  1.00  0.00     0.031 A 
ENDBRANCH   6   8
ENDBRANCH   3   6
BRANCH   1  15
HETATM   15  C   UNL     1      -5.722   2.343 -32.350  1.00  0.00     0.302 C 
HETATM   16  O   UNL     1      -4.540   2.340 -32.670  1.00  0.00    -0.259 OA
BRANCH  15  17
HETATM   17  O   UNL     1      -6.181   2.664 -31.102  1.00  0.00    -0.317 OA
BRANCH  17  18
HETATM   18  C   UNL     1      -6.815   1.600 -30.377  1.00  0.00     0.174 C 
HETATM   19  C   UNL     1      -5.769   0.761 -29.665  1.00  0.00     0.034 C 
ENDBRANCH  17  18
ENDBRANCH  15  17
ENDBRANCH   1  15
BRANCH   5  20
HETATM   20  C   UNL     1      -6.256  -0.509 -33.650  1.00  0.00     0.129 A 
HETATM   21  N   UNL     1      -5.315  -0.656 -32.744  1.00  0.00    -0.238 NA
HETATM   22  C   UNL     1      -4.671  -1.869 -32.920  1.00  0.00     0.075 A 
HETATM   23  C   UNL     1      -3.630  -2.378 -32.117  1.00  0.00     0.033 A 
HETATM   24  C   UNL     1      -5.117  -2.632 -34.000  1.00  0.00     0.035 A 
HETATM   25  C   UNL     1      -3.069  -3.625 -32.413  1.00  0.00     0.002 A 
HETATM   26  C   UNL     1      -3.530  -4.367 -33.496  1.00  0.00     0.002 A 
HETATM   27  C   UNL     1      -4.560  -3.884 -34.308  1.00  0.00     0.021 A 
HETATM   28  S   UNL     1      -6.379  -1.781 -34.798  1.00  0.00    -0.066 SA
ENDBRANCH   5  20
TORSDOF 6
ENDMDL
MODEL 7
REMARK VINA RESULT:      -7.3      2.388      3.178
REMARK  6 active torsions:
REMARK  status: ('A' for Active; 'I' for Inactive)
REMARK    1  A    between atoms: C_2  and  O_3 
REMARK    2  A    between atoms: O_3  and  C_4 
REMARK    3  A    between atoms: C_4  and  C_6 
REMARK    4  A    between atoms: C_8  and  N_9 
REMARK    5  A    between atoms: N_9  and  C_10 
REMARK    6  A    between atoms: C_18  and  C_19 
ROOT
HETATM    1  C   UNL     1      -6.083   3.470 -31.478  1.00  0.00     0.115 A 
HETATM    2  S   UNL     1      -7.240   2.349 -32.077  1.00  0.00    -0.043 SA
HETATM    3  C   UNL     1      -6.118   1.804 -33.269  1.00  0.00     0.172 A 
HETATM    4  N   UNL     1      -4.972   2.442 -33.252  1.00  0.00    -0.220 NA
HETATM    5  C   UNL     1      -4.940   3.401 -32.247  1.00  0.00     0.118 A 
ENDROOT
BRANCH   3   6
HETATM    6  N   UNL     1      -6.478   0.783 -34.079  1.00  0.00    -0.335 N 
HETATM    7  H   UNL     1      -7.231   0.964 -34.731  1.00  0.00     0.168 HD
BRANCH   6   8
HETATM    8  C   UNL     1      -6.006  -0.543 -34.093  1.00  0.00     0.034 A 
HETATM    9  C   UNL     1      -4.821  -0.837 -33.397  1.00  0.00     0.031 A 
HETATM   10  C   UNL     1      -4.269  -2.123 -33.406  1.00  0.00     0.021 A 
HETATM   11  C   UNL     1      -4.903  -3.138 -34.116  1.00  0.00     0.011 A 
HETATM   12 BR   UNL     1      -4.162  -4.876 -34.138  1.00  0.00    -0.051 Br
HETATM   13  C   UNL     1      -6.077  -2.876 -34.811  1.00  0.00     0.021 A 
HETATM   14  C   UNL     1      -6.619  -1.585 -34.801  1.00  0.00     0.031 A 
ENDBRANCH   6   8
ENDBRANCH   3   6
BRANCH   1  15
HETATM   15  C   UNL     1      -6.363   4.229 -30.288  1.00  0.00     0.302 C 
HETATM   16  O   UNL     1      -5.685   4.241 -29.270  1.00  0.00    -0.259 OA
BRANCH  15  17
HETATM   17  O   UNL     1      -7.553   4.890 -30.430  1.00  0.00    -0.317 OA
BRANCH  17  18
HETATM   18  C   UNL     1      -7.581   6.238 -29.937  1.00  0.00     0.174 C 
HETATM   19  C   UNL     1      -8.849   6.473 -29.137  1.00  0.00     0.034 C 
ENDBRANCH  17  18
ENDBRANCH  15  17
ENDBRANCH   1  15
BRANCH   5  20
HETATM   20  C   UNL     1      -3.736   4.289 -32.077  1.00  0.00     0.129 A 
HETATM   21  N   UNL     1      -2.702   3.950 -31.339  1.00  0.00    -0.238 NA
HETATM   22  C   UNL     1      -1.744   4.948 -31.375  1.00  0.00     0.075 A 
HETATM   23  C   UNL     1      -0.492   4.918 -30.728  1.00  0.00     0.033 A 
HETATM   24  C   UNL     1      -2.081   6.074 -32.128  1.00  0.00     0.035 A 
HETATM   25  C   UNL     1       0.382   6.005 -30.851  1.00  0.00     0.002 A 
HETATM   26  C   UNL     1       0.023   7.116 -31.607  1.00  0.00     0.002 A 
HETATM   27  C   UNL     1      -1.213   7.171 -32.257  1.00  0.00     0.021 A 
HETATM   28  S   UNL     1      -3.647   5.846 -32.800  1.00  0.00    -0.066 SA
ENDBRANCH   5  20
TORSDOF 6
ENDMDL
MODEL 8
REMARK VINA RESULT:      -7.3      3.678      4.950
REMARK  6 active torsions:
REMARK  status: ('A' for Active; 'I' for Inactive)
REMARK    1  A    between atoms: C_2  and  O_3 
REMARK    2  A    between atoms: O_3  and  C_4 
REMARK    3  A    between atoms: C_4  and  C_6 
REMARK    4  A    between atoms: C_8  and  N_9 
REMARK    5  A    between atoms: N_9  and  C_10 
REMARK    6  A    between atoms: C_18  and  C_19 
ROOT
HETATM    1  C   UNL     1      -4.725   1.077 -31.156  1.00  0.00     0.115 A 
HETATM    2  S   UNL     1      -6.147   0.276 -30.615  1.00  0.00    -0.043 SA
HETATM    3  C   UNL     1      -7.087   1.681 -30.958  1.00  0.00     0.172 A 
HETATM    4  N   UNL     1      -6.385   2.695 -31.405  1.00  0.00    -0.220 NA
HETATM    5  C   UNL     1      -5.038   2.372 -31.512  1.00  0.00     0.118 A 
ENDROOT
BRANCH   3   6
HETATM    6  N   UNL     1      -8.426   1.626 -30.775  1.00  0.00    -0.335 N 
HETATM    7  H   UNL     1      -8.748   1.436 -29.834  1.00  0.00     0.168 HD
BRANCH   6   8
HETATM    8  C   UNL     1      -9.454   1.716 -31.732  1.00  0.00     0.034 A 
HETATM    9  C   UNL     1      -9.768   0.570 -32.484  1.00  0.00     0.031 A 
HETATM   10  C   UNL     1     -10.746   0.598 -33.484  1.00  0.00     0.021 A 
HETATM   11  C   UNL     1     -11.428   1.782 -33.745  1.00  0.00     0.011 A 
HETATM   12 BR   UNL     1     -12.746   1.832 -35.097  1.00  0.00    -0.051 Br
HETATM   13  C   UNL     1     -11.139   2.930 -33.016  1.00  0.00     0.021 A 
HETATM   14  C   UNL     1     -10.155   2.893 -32.020  1.00  0.00     0.031 A 
ENDBRANCH   6   8
ENDBRANCH   3   6
BRANCH   1  15
HETATM   15  C   UNL     1      -3.486   0.354 -31.261  1.00  0.00     0.302 C 
HETATM   16  O   UNL     1      -2.393   0.744 -30.875  1.00  0.00    -0.259 OA
BRANCH  15  17
HETATM   17  O   UNL     1      -3.691  -0.821 -31.932  1.00  0.00    -0.317 OA
BRANCH  17  18
HETATM   18  C   UNL     1      -3.797  -0.715 -33.359  1.00  0.00     0.174 C 
HETATM   19  C   UNL     1      -4.845  -1.684 -33.877  1.00  0.00     0.034 C 
ENDBRANCH  17  18
ENDBRANCH  15  17
ENDBRANCH   1  15
BRANCH   5  20
HETATM   20  C   UNL     1      -4.038   3.405 -31.960  1.00  0.00     0.129 A 
HETATM   21  N   UNL     1      -3.026   3.786 -31.212  1.00  0.00    -0.238 NA
HETATM   22  C   UNL     1      -2.271   4.734 -31.881  1.00  0.00     0.075 A 
HETATM   23  C   UNL     1      -1.095   5.345 -31.399  1.00  0.00     0.033 A 
HETATM   24  C   UNL     1      -2.745   5.096 -33.143  1.00  0.00     0.035 A 
HETATM   25  C   UNL     1      -0.430   6.292 -32.187  1.00  0.00     0.002 A 
HETATM   26  C   UNL     1      -0.923   6.637 -33.442  1.00  0.00     0.002 A 
HETATM   27  C   UNL     1      -2.087   6.046 -33.940  1.00  0.00     0.021 A 
HETATM   28  S   UNL     1      -4.178   4.206 -33.474  1.00  0.00    -0.066 SA
ENDBRANCH   5  20
TORSDOF 6
ENDMDL
MODEL 9
REMARK VINA RESULT:      -7.3      2.296      3.290
REMARK  6 active torsions:
REMARK  status: ('A' for Active; 'I' for Inactive)
REMARK    1  A    between atoms: C_2  and  O_3 
REMARK    2  A    between atoms: O_3  and  C_4 
REMARK    3  A    between atoms: C_4  and  C_6 
REMARK    4  A    between atoms: C_8  and  N_9 
REMARK    5  A    between atoms: N_9  and  C_10 
REMARK    6  A    between atoms: C_18  and  C_19 
ROOT
HETATM    1  C   UNL     1      -7.213   3.823 -33.423  1.00  0.00     0.115 A 
HETATM    2  S   UNL     1      -8.275   2.480 -33.567  1.00  0.00    -0.043 SA
HETATM    3  C   UNL     1      -6.942   1.392 -33.439  1.00  0.00     0.172 A 
HETATM    4  N   UNL     1      -5.777   1.987 -33.339  1.00  0.00    -0.220 NA
HETATM    5  C   UNL     1      -5.912   3.370 -33.341  1.00  0.00     0.118 A 
ENDROOT
BRANCH   3   6
HETATM    6  N   UNL     1      -7.189   0.062 -33.423  1.00  0.00    -0.335 N 
HETATM    7  H   UNL     1      -8.139  -0.221 -33.218  1.00  0.00     0.168 HD
BRANCH   6   8
HETATM    8  C   UNL     1      -6.286  -1.006 -33.573  1.00  0.00     0.034 A 
HETATM    9  C   UNL     1      -6.606  -2.029 -34.483  1.00  0.00     0.031 A 
HETATM   10  C   UNL     1      -5.777  -3.144 -34.649  1.00  0.00     0.021 A 
HETATM   11  C   UNL     1      -4.608  -3.249 -33.902  1.00  0.00     0.011 A 
HETATM   12 BR   UNL     1      -3.486  -4.753 -34.116  1.00  0.00    -0.051 Br
HETATM   13  C   UNL     1      -4.266  -2.252 -32.997  1.00  0.00     0.021 A 
HETATM   14  C   UNL     1      -5.104  -1.142 -32.834  1.00  0.00     0.031 A 
ENDBRANCH   6   8
ENDBRANCH   3   6
BRANCH   1  15
HETATM   15  C   UNL     1      -7.745   5.156 -33.318  1.00  0.00     0.302 C 
HETATM   16  O   UNL     1      -7.679   5.879 -32.334  1.00  0.00    -0.259 OA
BRANCH  15  17
HETATM   17  O   UNL     1      -8.413   5.480 -34.468  1.00  0.00    -0.317 OA
BRANCH  17  18
HETATM   18  C   UNL     1      -9.770   5.915 -34.301  1.00  0.00     0.174 C 
HETATM   19  C   UNL     1     -10.369   6.279 -35.647  1.00  0.00     0.034 C 
ENDBRANCH  17  18
ENDBRANCH  15  17
ENDBRANCH   1  15
BRANCH   5  20
HETATM   20  C   UNL     1      -4.696   4.257 -33.285  1.00  0.00     0.129 A 
HETATM   21  N   UNL     1      -3.978   4.410 -32.194  1.00  0.00    -0.238 NA
HETATM   22  C   UNL     1      -2.920   5.269 -32.439  1.00  0.00     0.075 A 
HETATM   23  C   UNL     1      -1.926   5.642 -31.511  1.00  0.00     0.033 A 
HETATM   24  C   UNL     1      -2.863   5.797 -33.730  1.00  0.00     0.035 A 
HETATM   25  C   UNL     1      -0.910   6.524 -31.898  1.00  0.00     0.002 A 
HETATM   26  C   UNL     1      -0.875   7.037 -33.190  1.00  0.00     0.002 A 
HETATM   27  C   UNL     1      -1.850   6.684 -34.127  1.00  0.00     0.021 A 
HETATM   28  S   UNL     1      -4.184   5.180 -34.641  1.00  0.00    -0.066 SA
ENDBRANCH   5  20
TORSDOF 6
ENDMDL
MODEL 10
REMARK VINA RESULT:      -7.2      4.818      6.348
REMARK  6 active torsions:
REMARK  status: ('A' for Active; 'I' for Inactive)
REMARK    1  A    between atoms: C_2  and  O_3 
REMARK    2  A    between atoms: O_3  and  C_4 
REMARK    3  A    between atoms: C_4  and  C_6 
REMARK    4  A    between atoms: C_8  and  N_9 
REMARK    5  A    between atoms: N_9  and  C_10 
REMARK    6  A    between atoms: C_18  and  C_19 
ROOT
HETATM    1  C   UNL     1      -7.181   0.974 -33.269  1.00  0.00     0.115 A 
HETATM    2  S   UNL     1      -8.812   0.546 -33.602  1.00  0.00    -0.043 SA
HETATM    3  C   UNL     1      -9.114   2.124 -34.230  1.00  0.00     0.172 A 
HETATM    4  N   UNL     1      -8.083   2.932 -34.158  1.00  0.00    -0.220 NA
HETATM    5  C   UNL     1      -6.978   2.297 -33.604  1.00  0.00     0.118 A 
ENDROOT
BRANCH   3   6
HETATM    6  N   UNL     1     -10.332   2.392 -34.753  1.00  0.00    -0.335 N 
HETATM    7  H   UNL     1     -10.353   2.714 -35.713  1.00  0.00     0.168 HD
BRANCH   6   8
HETATM    8  C   UNL     1     -11.590   2.366 -34.123  1.00  0.00     0.034 A 
HETATM    9  C   UNL     1     -12.558   1.466 -34.601  1.00  0.00     0.031 A 
HETATM   10  C   UNL     1     -13.845   1.419 -34.053  1.00  0.00     0.021 A 
HETATM   11  C   UNL     1     -14.180   2.277 -33.010  1.00  0.00     0.011 A 
HETATM   12 BR   UNL     1     -15.916   2.224 -32.267  1.00  0.00    -0.051 Br
HETATM   13  C   UNL     1     -13.241   3.175 -32.517  1.00  0.00     0.021 A 
HETATM   14  C   UNL     1     -11.958   3.219 -33.075  1.00  0.00     0.031 A 
ENDBRANCH   6   8
ENDBRANCH   3   6
BRANCH   1  15
HETATM   15  C   UNL     1      -6.253  -0.024 -32.807  1.00  0.00     0.302 C 
HETATM   16  O   UNL     1      -6.139  -0.418 -31.654  1.00  0.00    -0.259 OA
BRANCH  15  17
HETATM   17  O   UNL     1      -5.450  -0.424 -33.840  1.00  0.00    -0.317 OA
BRANCH  17  18
HETATM   18  C   UNL     1      -5.171  -1.830 -33.906  1.00  0.00     0.174 C 
HETATM   19  C   UNL     1      -6.205  -2.526 -34.774  1.00  0.00     0.034 C 
ENDBRANCH  17  18
ENDBRANCH  15  17
ENDBRANCH   1  15
BRANCH   5  20
HETATM   20  C   UNL     1      -5.695   3.053 -33.381  1.00  0.00     0.129 A 
HETATM   21  N   UNL     1      -5.263   3.979 -34.208  1.00  0.00    -0.238 NA
HETATM   22  C   UNL     1      -4.070   4.509 -33.746  1.00  0.00     0.075 A 
HETATM   23  C   UNL     1      -3.332   5.543 -34.359  1.00  0.00     0.033 A 
HETATM   24  C   UNL     1      -3.580   3.945 -32.568  1.00  0.00     0.035 A 
HETATM   25  C   UNL     1      -2.136   5.981 -33.779  1.00  0.00     0.002 A 
HETATM   26  C   UNL     1      -1.667   5.403 -32.603  1.00  0.00     0.002 A 
HETATM   27  C   UNL     1      -2.380   4.375 -31.979  1.00  0.00     0.021 A 
HETATM   28  S   UNL     1      -4.667   2.720 -32.044  1.00  0.00    -0.066 SA
ENDBRANCH   5  20
TORSDOF 6
ENDMDL
