MODEL 1
REMARK VINA RESULT:      -7.6      0.000      0.000
REMARK  9 active torsions:
REMARK  status: ('A' for Active; 'I' for Inactive)
REMARK    1  A    between atoms: C_2  and  O_3 
REMARK    2  A    between atoms: O_3  and  C_4 
REMARK    3  A    between atoms: C_4  and  C_5 
REMARK    4  A    between atoms: C_7  and  C_8 
REMARK       I    between atoms: C_8  and  N_9 
REMARK    5  A    between atoms: N_9  and  N_10 
REMARK    6  A    between atoms: N_10  and  C_11 
REMARK    7  A    between atoms: C_11  and  N_12 
REMARK    8  A    between atoms: N_12  and  C_13 
REMARK    9  A    between atoms: C_13  and  C_14 
ROOT
HETATM    1  C   UNL     1      -5.912   3.535 -30.006  1.00  0.00     0.293 C 
HETATM    2  N   UNL     1      -4.610   3.899 -30.322  1.00  0.00    -0.262 N 
HETATM    3  O   UNL     1      -6.649   4.314 -29.398  1.00  0.00    -0.264 OA
HETATM    4  H   UNL     1      -4.073   3.389 -31.017  1.00  0.00     0.190 HD
ENDROOT
BRANCH   1   5
HETATM    5  C   UNL     1      -6.301   2.211 -30.453  1.00  0.00     0.145 A 
HETATM    6  O   UNL     1      -6.861   2.090 -31.700  1.00  0.00    -0.307 OA
HETATM    7  C   UNL     1      -7.158   0.775 -31.897  1.00  0.00     0.078 A 
HETATM    8  C   UNL     1      -6.789   0.038 -30.794  1.00  0.00     0.038 A 
HETATM    9  C   UNL     1      -6.237   0.956 -29.867  1.00  0.00     0.045 A 
BRANCH   7  10
HETATM   10  C   UNL     1      -7.785   0.416 -33.196  1.00  0.00     0.240 C 
BRANCH  10  11
HETATM   11  O   UNL     1      -6.718   0.288 -34.135  1.00  0.00    -0.345 OA
BRANCH  11  12
HETATM   12  C   UNL     1      -6.022  -0.888 -34.126  1.00  0.00     0.069 A 
HETATM   13  C   UNL     1      -4.704  -1.060 -33.698  1.00  0.00     0.038 A 
HETATM   14  C   UNL     1      -4.117  -2.330 -33.726  1.00  0.00     0.022 A 
HETATM   15  C   UNL     1      -4.848  -3.425 -34.183  1.00  0.00     0.011 A 
HETATM   16  C   UNL     1      -6.161  -3.263 -34.612  1.00  0.00     0.022 A 
HETATM   17 BR   UNL     1      -4.050  -5.138 -34.218  1.00  0.00    -0.051 Br
HETATM   18  C   UNL     1      -6.745  -1.995 -34.579  1.00  0.00     0.038 A 
ENDBRANCH  11  12
ENDBRANCH  10  11
ENDBRANCH   7  10
ENDBRANCH   1   5
BRANCH   2  19
HETATM   19  N   UNL     1      -4.227   5.241 -30.110  1.00  0.00    -0.274 N 
HETATM   20  H   UNL     1      -5.017   5.844 -29.879  1.00  0.00     0.189 HD
BRANCH  19  21
HETATM   21  C   UNL     1      -3.207   5.783 -30.851  1.00  0.00     0.186 C 
HETATM   22  S   UNL     1      -3.115   7.388 -31.322  1.00  0.00    -0.040 SA
BRANCH  21  23
HETATM   23  N   UNL     1      -2.236   4.930 -31.268  1.00  0.00    -0.364 N 
HETATM   24  H   UNL     1      -2.209   4.041 -30.775  1.00  0.00     0.162 HD
BRANCH  23  25
HETATM   25  C   UNL     1      -1.101   5.168 -32.156  1.00  0.00     0.154 C 
BRANCH  25  26
HETATM   26  C   UNL     1       0.226   5.276 -31.386  1.00  0.00     0.139 C 
HETATM   27  O   UNL     1       0.087   4.629 -30.103  1.00  0.00    -0.384 OA
HETATM   28  C   UNL     1       0.545   5.532 -29.090  1.00  0.00     0.168 C 
HETATM   29  C   UNL     1       0.383   6.920 -29.662  1.00  0.00     0.029 C 
HETATM   30  C   UNL     1       0.694   6.703 -31.123  1.00  0.00     0.035 C 
ENDBRANCH  25  26
ENDBRANCH  23  25
ENDBRANCH  21  23
ENDBRANCH  19  21
ENDBRANCH   2  19
TORSDOF 9
ENDMDL
MODEL 2
REMARK VINA RESULT:      -7.6      3.012      4.908
REMARK  9 active torsions:
REMARK  status: ('A' for Active; 'I' for Inactive)
REMARK    1  A    between atoms: C_2  and  O_3 
REMARK    2  A    between atoms: O_3  and  C_4 
REMARK    3  A    between atoms: C_4  and  C_5 
REMARK    4  A    between atoms: C_7  and  C_8 
REMARK       I    between atoms: C_8  and  N_9 
REMARK    5  A    between atoms: N_9  and  N_10 
REMARK    6  A    between atoms: N_10  and  C_11 
REMARK    7  A    between atoms: C_11  and  N_12 
REMARK    8  A    between atoms: N_12  and  C_13 
REMARK    9  A    between atoms: C_13  and  C_14 
ROOT
HETATM    1  C   UNL     1      -0.129   4.986 -30.788  1.00  0.00     0.293 C 
HETATM    2  N   UNL     1      -0.588   5.460 -29.566  1.00  0.00    -0.262 N 
HETATM    3  O   UNL     1       1.073   4.780 -30.966  1.00  0.00    -0.264 OA
HETATM    4  H   UNL     1      -1.571   5.408 -29.315  1.00  0.00     0.190 HD
ENDROOT
BRANCH   1   5
HETATM    5  C   UNL     1      -1.161   4.758 -31.780  1.00  0.00     0.145 A 
HETATM    6  O   UNL     1      -2.141   3.841 -31.494  1.00  0.00    -0.307 OA
HETATM    7  C   UNL     1      -2.982   3.782 -32.565  1.00  0.00     0.078 A 
HETATM    8  C   UNL     1      -2.563   4.658 -33.541  1.00  0.00     0.038 A 
HETATM    9  C   UNL     1      -1.397   5.286 -33.040  1.00  0.00     0.045 A 
BRANCH   7  10
HETATM   10  C   UNL     1      -4.125   2.836 -32.469  1.00  0.00     0.240 C 
BRANCH  10  11
HETATM   11  O   UNL     1      -3.567   1.566 -32.132  1.00  0.00    -0.345 OA
BRANCH  11  12
HETATM   12  C   UNL     1      -4.141   0.465 -32.702  1.00  0.00     0.069 A 
HETATM   13  C   UNL     1      -3.581  -0.811 -32.771  1.00  0.00     0.038 A 
HETATM   14  C   UNL     1      -4.291  -1.858 -33.370  1.00  0.00     0.022 A 
HETATM   15  C   UNL     1      -5.558  -1.626 -33.901  1.00  0.00     0.011 A 
HETATM   16  C   UNL     1      -6.124  -0.356 -33.838  1.00  0.00     0.022 A 
HETATM   17 BR   UNL     1      -6.513  -3.042 -34.710  1.00  0.00    -0.051 Br
HETATM   18  C   UNL     1      -5.415   0.685 -33.235  1.00  0.00     0.038 A 
ENDBRANCH  11  12
ENDBRANCH  10  11
ENDBRANCH   7  10
ENDBRANCH   1   5
BRANCH   2  19
HETATM   19  N   UNL     1       0.322   5.505 -28.488  1.00  0.00    -0.274 N 
HETATM   20  H   UNL     1       0.829   4.628 -28.363  1.00  0.00     0.189 HD
BRANCH  19  21
HETATM   21  C   UNL     1       0.008   6.224 -27.362  1.00  0.00     0.186 C 
HETATM   22  S   UNL     1       1.008   7.358 -26.641  1.00  0.00    -0.040 SA
BRANCH  21  23
HETATM   23  N   UNL     1      -1.184   5.946 -26.773  1.00  0.00    -0.364 N 
HETATM   24  H   UNL     1      -1.592   5.053 -27.037  1.00  0.00     0.162 HD
BRANCH  23  25
HETATM   25  C   UNL     1      -2.066   6.810 -25.993  1.00  0.00     0.154 C 
BRANCH  25  26
HETATM   26  C   UNL     1      -2.974   7.671 -26.887  1.00  0.00     0.139 C 
HETATM   27  O   UNL     1      -3.009   7.106 -28.215  1.00  0.00    -0.384 OA
HETATM   28  C   UNL     1      -2.730   8.149 -29.156  1.00  0.00     0.168 C 
HETATM   29  C   UNL     1      -1.929   9.186 -28.406  1.00  0.00     0.029 C 
HETATM   30  C   UNL     1      -2.537   9.124 -27.026  1.00  0.00     0.035 C 
ENDBRANCH  25  26
ENDBRANCH  23  25
ENDBRANCH  21  23
ENDBRANCH  19  21
ENDBRANCH   2  19
TORSDOF 9
ENDMDL
MODEL 3
REMARK VINA RESULT:      -7.5      4.389     10.127
REMARK  9 active torsions:
REMARK  status: ('A' for Active; 'I' for Inactive)
REMARK    1  A    between atoms: C_2  and  O_3 
REMARK    2  A    between atoms: O_3  and  C_4 
REMARK    3  A    between atoms: C_4  and  C_5 
REMARK    4  A    between atoms: C_7  and  C_8 
REMARK       I    between atoms: C_8  and  N_9 
REMARK    5  A    between atoms: N_9  and  N_10 
REMARK    6  A    between atoms: N_10  and  C_11 
REMARK    7  A    between atoms: C_11  and  N_12 
REMARK    8  A    between atoms: N_12  and  C_13 
REMARK    9  A    between atoms: C_13  and  C_14 
ROOT
HETATM    1  C   UNL     1      -3.400   2.667 -31.920  1.00  0.00     0.293 C 
HETATM    2  N   UNL     1      -4.734   2.963 -32.171  1.00  0.00    -0.262 N 
HETATM    3  O   UNL     1      -3.078   1.564 -31.474  1.00  0.00    -0.264 OA
HETATM    4  H   UNL     1      -4.999   3.753 -32.752  1.00  0.00     0.190 HD
ENDROOT
BRANCH   1   5
HETATM    5  C   UNL     1      -2.469   3.735 -32.232  1.00  0.00     0.145 A 
HETATM    6  O   UNL     1      -1.633   4.172 -31.237  1.00  0.00    -0.307 OA
HETATM    7  C   UNL     1      -0.868   5.178 -31.748  1.00  0.00     0.078 A 
HETATM    8  C   UNL     1      -1.194   5.393 -33.069  1.00  0.00     0.038 A 
HETATM    9  C   UNL     1      -2.219   4.467 -33.382  1.00  0.00     0.045 A 
BRANCH   7  10
HETATM   10  C   UNL     1       0.115   5.809 -30.828  1.00  0.00     0.240 C 
BRANCH  10  11
HETATM   11  O   UNL     1      -0.638   6.328 -29.733  1.00  0.00    -0.345 OA
BRANCH  11  12
HETATM   12  C   UNL     1       0.064   6.931 -28.727  1.00  0.00     0.069 A 
HETATM   13  C   UNL     1       0.931   8.016 -28.866  1.00  0.00     0.038 A 
HETATM   14  C   UNL     1       1.574   8.549 -27.743  1.00  0.00     0.022 A 
HETATM   15  C   UNL     1       1.352   7.994 -26.484  1.00  0.00     0.011 A 
HETATM   16  C   UNL     1       0.490   6.911 -26.337  1.00  0.00     0.022 A 
HETATM   17 BR   UNL     1       2.223   8.716 -24.971  1.00  0.00    -0.051 Br
HETATM   18  C   UNL     1      -0.153   6.385 -27.458  1.00  0.00     0.038 A 
ENDBRANCH  11  12
ENDBRANCH  10  11
ENDBRANCH   7  10
ENDBRANCH   1   5
BRANCH   2  19
HETATM   19  N   UNL     1      -5.672   1.911 -32.095  1.00  0.00    -0.274 N 
HETATM   20  H   UNL     1      -5.689   1.465 -31.177  1.00  0.00     0.189 HD
BRANCH  19  21
HETATM   21  C   UNL     1      -5.896   1.118 -33.192  1.00  0.00     0.186 C 
HETATM   22  S   UNL     1      -6.975   1.470 -34.423  1.00  0.00    -0.040 SA
BRANCH  21  23
HETATM   23  N   UNL     1      -5.221  -0.060 -33.241  1.00  0.00    -0.364 N 
HETATM   24  H   UNL     1      -4.254   0.015 -33.545  1.00  0.00     0.162 HD
BRANCH  23  25
HETATM   25  C   UNL     1      -5.720  -1.429 -33.132  1.00  0.00     0.154 C 
BRANCH  25  26
HETATM   26  C   UNL     1      -5.778  -2.135 -34.497  1.00  0.00     0.139 C 
HETATM   27  O   UNL     1      -6.982  -2.928 -34.572  1.00  0.00    -0.384 OA
HETATM   28  C   UNL     1      -6.627  -4.250 -34.992  1.00  0.00     0.168 C 
HETATM   29  C   UNL     1      -5.187  -4.446 -34.582  1.00  0.00     0.029 C 
HETATM   30  C   UNL     1      -4.606  -3.067 -34.781  1.00  0.00     0.035 C 
ENDBRANCH  25  26
ENDBRANCH  23  25
ENDBRANCH  21  23
ENDBRANCH  19  21
ENDBRANCH   2  19
TORSDOF 9
ENDMDL
MODEL 4
REMARK VINA RESULT:      -7.5      4.874      7.806
REMARK  9 active torsions:
REMARK  status: ('A' for Active; 'I' for Inactive)
REMARK    1  A    between atoms: C_2  and  O_3 
REMARK    2  A    between atoms: O_3  and  C_4 
REMARK    3  A    between atoms: C_4  and  C_5 
REMARK    4  A    between atoms: C_7  and  C_8 
REMARK       I    between atoms: C_8  and  N_9 
REMARK    5  A    between atoms: N_9  and  N_10 
REMARK    6  A    between atoms: N_10  and  C_11 
REMARK    7  A    between atoms: C_11  and  N_12 
REMARK    8  A    between atoms: N_12  and  C_13 
REMARK    9  A    between atoms: C_13  and  C_14 
ROOT
HETATM    1  C   UNL     1      -9.512   4.000 -30.328  1.00  0.00     0.293 C 
HETATM    2  N   UNL     1     -10.625   3.189 -30.512  1.00  0.00    -0.262 N 
HETATM    3  O   UNL     1      -9.641   5.149 -29.902  1.00  0.00    -0.264 OA
HETATM    4  H   UNL     1     -10.533   2.184 -30.627  1.00  0.00     0.190 HD
ENDROOT
BRANCH   1   5
HETATM    5  C   UNL     1      -8.244   3.380 -30.662  1.00  0.00     0.145 A 
HETATM    6  O   UNL     1      -8.035   3.001 -31.963  1.00  0.00    -0.307 OA
HETATM    7  C   UNL     1      -6.798   2.434 -32.038  1.00  0.00     0.078 A 
HETATM    8  C   UNL     1      -6.198   2.449 -30.799  1.00  0.00     0.038 A 
HETATM    9  C   UNL     1      -7.122   3.057 -29.915  1.00  0.00     0.045 A 
BRANCH   7  10
HETATM   10  C   UNL     1      -6.365   1.941 -33.372  1.00  0.00     0.240 C 
BRANCH  10  11
HETATM   11  O   UNL     1      -5.284   1.039 -33.134  1.00  0.00    -0.345 OA
BRANCH  11  12
HETATM   12  C   UNL     1      -5.424  -0.235 -33.608  1.00  0.00     0.069 A 
HETATM   13  C   UNL     1      -4.439  -1.224 -33.609  1.00  0.00     0.038 A 
HETATM   14  C   UNL     1      -4.725  -2.498 -34.111  1.00  0.00     0.022 A 
HETATM   15  C   UNL     1      -5.993  -2.781 -34.613  1.00  0.00     0.011 A 
HETATM   16  C   UNL     1      -6.981  -1.801 -34.617  1.00  0.00     0.022 A 
HETATM   17 BR   UNL     1      -6.374  -4.504 -35.290  1.00  0.00    -0.051 Br
HETATM   18  C   UNL     1      -6.694  -0.532 -34.111  1.00  0.00     0.038 A 
ENDBRANCH  11  12
ENDBRANCH  10  11
ENDBRANCH   7  10
ENDBRANCH   1   5
BRANCH   2  19
HETATM   19  N   UNL     1     -11.865   3.642 -30.013  1.00  0.00    -0.274 N 
HETATM   20  H   UNL     1     -12.190   3.100 -29.212  1.00  0.00     0.189 HD
BRANCH  19  21
HETATM   21  C   UNL     1     -12.813   4.122 -30.881  1.00  0.00     0.186 C 
HETATM   22  S   UNL     1     -12.938   5.718 -31.376  1.00  0.00    -0.040 SA
BRANCH  21  23
HETATM   23  N   UNL     1     -13.742   3.235 -31.322  1.00  0.00    -0.364 N 
HETATM   24  H   UNL     1     -14.175   2.673 -30.594  1.00  0.00     0.162 HD
BRANCH  23  25
HETATM   25  C   UNL     1     -14.061   2.815 -32.685  1.00  0.00     0.154 C 
BRANCH  25  26
HETATM   26  C   UNL     1     -13.064   1.773 -33.219  1.00  0.00     0.139 C 
HETATM   27  O   UNL     1     -11.728   2.315 -33.153  1.00  0.00    -0.384 OA
HETATM   28  C   UNL     1     -11.106   2.139 -34.432  1.00  0.00     0.168 C 
HETATM   29  C   UNL     1     -12.231   2.063 -35.437  1.00  0.00     0.029 C 
HETATM   30  C   UNL     1     -13.306   1.342 -34.661  1.00  0.00     0.035 C 
ENDBRANCH  25  26
ENDBRANCH  23  25
ENDBRANCH  21  23
ENDBRANCH  19  21
ENDBRANCH   2  19
TORSDOF 9
ENDMDL
MODEL 5
REMARK VINA RESULT:      -7.4      2.186      3.110
REMARK  9 active torsions:
REMARK  status: ('A' for Active; 'I' for Inactive)
REMARK    1  A    between atoms: C_2  and  O_3 
REMARK    2  A    between atoms: O_3  and  C_4 
REMARK    3  A    between atoms: C_4  and  C_5 
REMARK    4  A    between atoms: C_7  and  C_8 
REMARK       I    between atoms: C_8  and  N_9 
REMARK    5  A    between atoms: N_9  and  N_10 
REMARK    6  A    between atoms: N_10  and  C_11 
REMARK    7  A    between atoms: C_11  and  N_12 
REMARK    8  A    between atoms: N_12  and  C_13 
REMARK    9  A    between atoms: C_13  and  C_14 
ROOT
HETATM    1  C   UNL     1      -4.540   5.788 -30.512  1.00  0.00     0.293 C 
HETATM    2  N   UNL     1      -3.681   6.125 -29.474  1.00  0.00    -0.262 N 
HETATM    3  O   UNL     1      -4.851   6.625 -31.362  1.00  0.00    -0.264 OA
HETATM    4  H   UNL     1      -3.224   5.411 -28.913  1.00  0.00     0.190 HD
ENDROOT
BRANCH   1   5
HETATM    5  C   UNL     1      -5.002   4.413 -30.500  1.00  0.00     0.145 A 
HETATM    6  O   UNL     1      -4.358   3.510 -31.307  1.00  0.00    -0.307 OA
HETATM    7  C   UNL     1      -4.966   2.300 -31.145  1.00  0.00     0.078 A 
HETATM    8  C   UNL     1      -5.993   2.408 -30.234  1.00  0.00     0.038 A 
HETATM    9  C   UNL     1      -6.017   3.761 -29.817  1.00  0.00     0.045 A 
BRANCH   7  10
HETATM   10  C   UNL     1      -4.427   1.166 -31.940  1.00  0.00     0.240 C 
BRANCH  10  11
HETATM   11  O   UNL     1      -5.174   1.137 -33.155  1.00  0.00    -0.345 OA
BRANCH  11  12
HETATM   12  C   UNL     1      -5.526  -0.092 -33.638  1.00  0.00     0.069 A 
HETATM   13  C   UNL     1      -6.746  -0.424 -34.230  1.00  0.00     0.038 A 
HETATM   14  C   UNL     1      -6.967  -1.723 -34.700  1.00  0.00     0.022 A 
HETATM   15  C   UNL     1      -5.970  -2.689 -34.575  1.00  0.00     0.011 A 
HETATM   16  C   UNL     1      -4.751  -2.367 -33.985  1.00  0.00     0.022 A 
HETATM   17 BR   UNL     1      -6.274  -4.442 -35.211  1.00  0.00    -0.051 Br
HETATM   18  C   UNL     1      -4.532  -1.068 -33.522  1.00  0.00     0.038 A 
ENDBRANCH  11  12
ENDBRANCH  10  11
ENDBRANCH   7  10
ENDBRANCH   1   5
BRANCH   2  19
HETATM   19  N   UNL     1      -3.025   7.374 -29.535  1.00  0.00    -0.274 N 
HETATM   20  H   UNL     1      -3.613   8.108 -29.931  1.00  0.00     0.189 HD
BRANCH  19  21
HETATM   21  C   UNL     1      -1.680   7.424 -29.800  1.00  0.00     0.186 C 
HETATM   22  S   UNL     1      -0.483   6.838 -28.786  1.00  0.00    -0.040 SA
BRANCH  21  23
HETATM   23  N   UNL     1      -1.307   8.044 -30.950  1.00  0.00    -0.364 N 
HETATM   24  H   UNL     1      -0.796   8.912 -30.820  1.00  0.00     0.162 HD
BRANCH  23  25
HETATM   25  C   UNL     1      -1.706   7.773 -32.329  1.00  0.00     0.154 C 
BRANCH  25  26
HETATM   26  C   UNL     1      -0.914   6.608 -32.944  1.00  0.00     0.139 C 
HETATM   27  O   UNL     1      -1.017   6.667 -34.383  1.00  0.00    -0.384 OA
HETATM   28  C   UNL     1      -1.412   5.376 -34.861  1.00  0.00     0.168 C 
HETATM   29  C   UNL     1      -2.141   4.712 -33.717  1.00  0.00     0.029 C 
HETATM   30  C   UNL     1      -1.384   5.223 -32.516  1.00  0.00     0.035 C 
ENDBRANCH  25  26
ENDBRANCH  23  25
ENDBRANCH  21  23
ENDBRANCH  19  21
ENDBRANCH   2  19
TORSDOF 9
ENDMDL
MODEL 6
REMARK VINA RESULT:      -7.3      2.424      3.299
REMARK  9 active torsions:
REMARK  status: ('A' for Active; 'I' for Inactive)
REMARK    1  A    between atoms: C_2  and  O_3 
REMARK    2  A    between atoms: O_3  and  C_4 
REMARK    3  A    between atoms: C_4  and  C_5 
REMARK    4  A    between atoms: C_7  and  C_8 
REMARK       I    between atoms: C_8  and  N_9 
REMARK    5  A    between atoms: N_9  and  N_10 
REMARK    6  A    between atoms: N_10  and  C_11 
REMARK    7  A    between atoms: C_11  and  N_12 
REMARK    8  A    between atoms: N_12  and  C_13 
REMARK    9  A    between atoms: C_13  and  C_14 
ROOT
HETATM    1  C   UNL     1      -2.864   4.529 -32.660  1.00  0.00     0.293 C 
HETATM    2  N   UNL     1      -2.697   4.578 -31.282  1.00  0.00    -0.262 N 
HETATM    3  O   UNL     1      -1.932   4.814 -33.413  1.00  0.00    -0.264 OA
HETATM    4  H   UNL     1      -3.354   4.125 -30.653  1.00  0.00     0.190 HD
ENDROOT
BRANCH   1   5
HETATM    5  C   UNL     1      -4.183   4.115 -33.100  1.00  0.00     0.145 A 
HETATM    6  O   UNL     1      -4.709   2.966 -32.568  1.00  0.00    -0.307 OA
HETATM    7  C   UNL     1      -5.934   2.768 -33.133  1.00  0.00     0.078 A 
HETATM    8  C   UNL     1      -6.212   3.783 -34.021  1.00  0.00     0.038 A 
HETATM    9  C   UNL     1      -5.092   4.649 -34.000  1.00  0.00     0.045 A 
BRANCH   7  10
HETATM   10  C   UNL     1      -6.686   1.562 -32.699  1.00  0.00     0.240 C 
BRANCH  10  11
HETATM   11  O   UNL     1      -5.708   0.584 -32.348  1.00  0.00    -0.345 OA
BRANCH  11  12
HETATM   12  C   UNL     1      -5.715  -0.584 -33.057  1.00  0.00     0.069 A 
HETATM   13  C   UNL     1      -4.617  -1.416 -33.282  1.00  0.00     0.038 A 
HETATM   14  C   UNL     1      -4.771  -2.598 -34.015  1.00  0.00     0.022 A 
HETATM   15  C   UNL     1      -6.021  -2.945 -34.523  1.00  0.00     0.011 A 
HETATM   16  C   UNL     1      -7.121  -2.121 -34.305  1.00  0.00     0.022 A 
HETATM   17 BR   UNL     1      -6.224  -4.543 -35.512  1.00  0.00    -0.051 Br
HETATM   18  C   UNL     1      -6.965  -0.945 -33.569  1.00  0.00     0.038 A 
ENDBRANCH  11  12
ENDBRANCH  10  11
ENDBRANCH   7  10
ENDBRANCH   1   5
BRANCH   2  19
HETATM   19  N   UNL     1      -1.391   4.765 -30.779  1.00  0.00    -0.274 N 
HETATM   20  H   UNL     1      -0.998   3.913 -30.378  1.00  0.00     0.189 HD
BRANCH  19  21
HETATM   21  C   UNL     1      -1.052   5.958 -30.193  1.00  0.00     0.186 C 
HETATM   22  S   UNL     1      -1.034   7.438 -30.977  1.00  0.00    -0.040 SA
BRANCH  21  23
HETATM   23  N   UNL     1      -0.656   5.910 -28.895  1.00  0.00    -0.364 N 
HETATM   24  H   UNL     1      -1.400   6.054 -28.217  1.00  0.00     0.162 HD
BRANCH  23  25
HETATM   25  C   UNL     1       0.690   5.897 -28.327  1.00  0.00     0.154 C 
BRANCH  25  26
HETATM   26  C   UNL     1       0.884   6.995 -27.268  1.00  0.00     0.139 C 
HETATM   27  O   UNL     1      -0.350   7.180 -26.542  1.00  0.00    -0.384 OA
HETATM   28  C   UNL     1      -0.662   8.579 -26.531  1.00  0.00     0.168 C 
HETATM   29  C   UNL     1       0.017   9.168 -27.744  1.00  0.00     0.029 C 
HETATM   30  C   UNL     1       1.286   8.355 -27.828  1.00  0.00     0.035 C 
ENDBRANCH  25  26
ENDBRANCH  23  25
ENDBRANCH  21  23
ENDBRANCH  19  21
ENDBRANCH   2  19
TORSDOF 9
ENDMDL
MODEL 7
REMARK VINA RESULT:      -7.3      1.638      2.102
REMARK  9 active torsions:
REMARK  status: ('A' for Active; 'I' for Inactive)
REMARK    1  A    between atoms: C_2  and  O_3 
REMARK    2  A    between atoms: O_3  and  C_4 
REMARK    3  A    between atoms: C_4  and  C_5 
REMARK    4  A    between atoms: C_7  and  C_8 
REMARK       I    between atoms: C_8  and  N_9 
REMARK    5  A    between atoms: N_9  and  N_10 
REMARK    6  A    between atoms: N_10  and  C_11 
REMARK    7  A    between atoms: C_11  and  N_12 
REMARK    8  A    between atoms: N_12  and  C_13 
REMARK    9  A    between atoms: C_13  and  C_14 
ROOT
HETATM    1  C   UNL     1      -5.936   3.737 -29.960  1.00  0.00     0.293 C 
HETATM    2  N   UNL     1      -4.619   4.100 -30.210  1.00  0.00    -0.262 N 
HETATM    3  O   UNL     1      -6.705   4.520 -29.399  1.00  0.00    -0.264 OA
HETATM    4  H   UNL     1      -4.045   3.585 -30.871  1.00  0.00     0.190 HD
ENDROOT
BRANCH   1   5
HETATM    5  C   UNL     1      -6.299   2.408 -30.416  1.00  0.00     0.145 A 
HETATM    6  O   UNL     1      -6.915   2.291 -31.636  1.00  0.00    -0.307 OA
HETATM    7  C   UNL     1      -7.174   0.969 -31.846  1.00  0.00     0.078 A 
HETATM    8  C   UNL     1      -6.725   0.226 -30.778  1.00  0.00     0.038 A 
HETATM    9  C   UNL     1      -6.162   1.146 -29.860  1.00  0.00     0.045 A 
BRANCH   7  10
HETATM   10  C   UNL     1      -7.851   0.613 -33.120  1.00  0.00     0.240 C 
BRANCH  10  11
HETATM   11  O   UNL     1      -6.824   0.508 -34.105  1.00  0.00    -0.345 OA
BRANCH  11  12
HETATM   12  C   UNL     1      -6.056  -0.622 -34.082  1.00  0.00     0.069 A 
HETATM   13  C   UNL     1      -4.733  -0.708 -33.645  1.00  0.00     0.038 A 
HETATM   14  C   UNL     1      -4.068  -1.940 -33.659  1.00  0.00     0.022 A 
HETATM   15  C   UNL     1      -4.726  -3.082 -34.111  1.00  0.00     0.011 A 
HETATM   16  C   UNL     1      -6.045  -3.005 -34.549  1.00  0.00     0.022 A 
HETATM   17 BR   UNL     1      -3.824  -4.742 -34.128  1.00  0.00    -0.051 Br
HETATM   18  C   UNL     1      -6.706  -1.776 -34.530  1.00  0.00     0.038 A 
ENDBRANCH  11  12
ENDBRANCH  10  11
ENDBRANCH   7  10
ENDBRANCH   1   5
BRANCH   2  19
HETATM   19  N   UNL     1      -4.250   5.445 -29.989  1.00  0.00    -0.274 N 
HETATM   20  H   UNL     1      -4.689   5.843 -29.159  1.00  0.00     0.189 HD
BRANCH  19  21
HETATM   21  C   UNL     1      -4.041   6.278 -31.060  1.00  0.00     0.186 C 
HETATM   22  S   UNL     1      -5.076   6.433 -32.367  1.00  0.00    -0.040 SA
BRANCH  21  23
HETATM   23  N   UNL     1      -2.880   6.982 -31.067  1.00  0.00    -0.364 N 
HETATM   24  H   UNL     1      -2.447   7.100 -30.155  1.00  0.00     0.162 HD
BRANCH  23  25
HETATM   25  C   UNL     1      -2.272   7.772 -32.136  1.00  0.00     0.154 C 
BRANCH  25  26
HETATM   26  C   UNL     1      -1.159   7.000 -32.866  1.00  0.00     0.139 C 
HETATM   27  O   UNL     1      -1.427   7.007 -34.284  1.00  0.00    -0.384 OA
HETATM   28  C   UNL     1      -1.340   5.660 -34.766  1.00  0.00     0.168 C 
HETATM   29  C   UNL     1      -1.632   4.772 -33.580  1.00  0.00     0.029 C 
HETATM   30  C   UNL     1      -1.011   5.544 -32.441  1.00  0.00     0.035 C 
ENDBRANCH  25  26
ENDBRANCH  23  25
ENDBRANCH  21  23
ENDBRANCH  19  21
ENDBRANCH   2  19
TORSDOF 9
ENDMDL
MODEL 8
REMARK VINA RESULT:      -7.3      4.185      8.788
REMARK  9 active torsions:
REMARK  status: ('A' for Active; 'I' for Inactive)
REMARK    1  A    between atoms: C_2  and  O_3 
REMARK    2  A    between atoms: O_3  and  C_4 
REMARK    3  A    between atoms: C_4  and  C_5 
REMARK    4  A    between atoms: C_7  and  C_8 
REMARK       I    between atoms: C_8  and  N_9 
REMARK    5  A    between atoms: N_9  and  N_10 
REMARK    6  A    between atoms: N_10  and  C_11 
REMARK    7  A    between atoms: C_11  and  N_12 
REMARK    8  A    between atoms: N_12  and  C_13 
REMARK    9  A    between atoms: C_13  and  C_14 
ROOT
HETATM    1  C   UNL     1      -4.903   3.384 -32.073  1.00  0.00     0.293 C 
HETATM    2  N   UNL     1      -6.289   3.341 -31.989  1.00  0.00    -0.262 N 
HETATM    3  O   UNL     1      -4.209   2.813 -31.230  1.00  0.00    -0.264 OA
HETATM    4  H   UNL     1      -6.874   3.588 -32.782  1.00  0.00     0.190 HD
ENDROOT
BRANCH   1   5
HETATM    5  C   UNL     1      -4.383   4.124 -33.206  1.00  0.00     0.145 A 
HETATM    6  O   UNL     1      -3.055   4.465 -33.200  1.00  0.00    -0.307 OA
HETATM    7  C   UNL     1      -2.798   5.162 -34.343  1.00  0.00     0.078 A 
HETATM    8  C   UNL     1      -3.946   5.270 -35.096  1.00  0.00     0.038 A 
HETATM    9  C   UNL     1      -4.964   4.604 -34.370  1.00  0.00     0.045 A 
BRANCH   7  10
HETATM   10  C   UNL     1      -1.404   5.638 -34.539  1.00  0.00     0.240 C 
BRANCH  10  11
HETATM   11  O   UNL     1      -1.399   7.020 -34.184  1.00  0.00    -0.345 OA
BRANCH  11  12
HETATM   12  C   UNL     1      -1.302   7.319 -32.854  1.00  0.00     0.069 A 
HETATM   13  C   UNL     1      -2.164   8.145 -32.132  1.00  0.00     0.038 A 
HETATM   14  C   UNL     1      -1.957   8.350 -30.763  1.00  0.00     0.022 A 
HETATM   15  C   UNL     1      -0.887   7.731 -30.120  1.00  0.00     0.011 A 
HETATM   16  C   UNL     1      -0.022   6.906 -30.832  1.00  0.00     0.022 A 
HETATM   17 BR   UNL     1      -0.611   8.011 -28.271  1.00  0.00    -0.051 Br
HETATM   18  C   UNL     1      -0.234   6.700 -32.197  1.00  0.00     0.038 A 
ENDBRANCH  11  12
ENDBRANCH  10  11
ENDBRANCH   7  10
ENDBRANCH   1   5
BRANCH   2  19
HETATM   19  N   UNL     1      -6.869   2.469 -31.042  1.00  0.00    -0.274 N 
HETATM   20  H   UNL     1      -6.277   1.665 -30.833  1.00  0.00     0.189 HD
BRANCH  19  21
HETATM   21  C   UNL     1      -8.228   2.278 -31.036  1.00  0.00     0.186 C 
HETATM   22  S   UNL     1      -9.358   3.449 -30.643  1.00  0.00    -0.040 SA
BRANCH  21  23
HETATM   23  N   UNL     1      -8.668   1.026 -31.325  1.00  0.00    -0.364 N 
HETATM   24  H   UNL     1      -8.406   0.315 -30.647  1.00  0.00     0.162 HD
BRANCH  23  25
HETATM   25  C   UNL     1      -9.271   0.505 -32.550  1.00  0.00     0.154 C 
BRANCH  25  26
HETATM   26  C   UNL     1      -8.263  -0.281 -33.404  1.00  0.00     0.139 C 
HETATM   27  O   UNL     1      -6.963  -0.224 -32.779  1.00  0.00    -0.384 OA
HETATM   28  C   UNL     1      -6.006   0.184 -33.764  1.00  0.00     0.168 C 
HETATM   29  C   UNL     1      -6.779   0.962 -34.801  1.00  0.00     0.029 C 
HETATM   30  C   UNL     1      -8.100   0.233 -34.830  1.00  0.00     0.035 C 
ENDBRANCH  25  26
ENDBRANCH  23  25
ENDBRANCH  21  23
ENDBRANCH  19  21
ENDBRANCH   2  19
TORSDOF 9
ENDMDL
MODEL 9
REMARK VINA RESULT:      -7.3      4.093      9.586
REMARK  9 active torsions:
REMARK  status: ('A' for Active; 'I' for Inactive)
REMARK    1  A    between atoms: C_2  and  O_3 
REMARK    2  A    between atoms: O_3  and  C_4 
REMARK    3  A    between atoms: C_4  and  C_5 
REMARK    4  A    between atoms: C_7  and  C_8 
REMARK       I    between atoms: C_8  and  N_9 
REMARK    5  A    between atoms: N_9  and  N_10 
REMARK    6  A    between atoms: N_10  and  C_11 
REMARK    7  A    between atoms: C_11  and  N_12 
REMARK    8  A    between atoms: N_12  and  C_13 
REMARK    9  A    between atoms: C_13  and  C_14 
ROOT
HETATM    1  C   UNL     1      -3.297   2.712 -31.270  1.00  0.00     0.293 C 
HETATM    2  N   UNL     1      -4.443   3.151 -30.619  1.00  0.00    -0.262 N 
HETATM    3  O   UNL     1      -3.063   1.506 -31.375  1.00  0.00    -0.264 OA
HETATM    4  H   UNL     1      -4.779   4.104 -30.727  1.00  0.00     0.190 HD
ENDROOT
BRANCH   1   5
HETATM    5  C   UNL     1      -2.453   3.766 -31.797  1.00  0.00     0.145 A 
HETATM    6  O   UNL     1      -1.454   4.253 -30.994  1.00  0.00    -0.307 OA
HETATM    7  C   UNL     1      -0.807   5.236 -31.683  1.00  0.00     0.078 A 
HETATM    8  C   UNL     1      -1.373   5.386 -32.930  1.00  0.00     0.038 A 
HETATM    9  C   UNL     1      -2.427   4.443 -33.006  1.00  0.00     0.045 A 
BRANCH   7  10
HETATM   10  C   UNL     1       0.320   5.913 -30.989  1.00  0.00     0.240 C 
BRANCH  10  11
HETATM   11  O   UNL     1       0.254   5.503 -29.624  1.00  0.00    -0.345 OA
BRANCH  11  12
HETATM   12  C   UNL     1       0.453   6.467 -28.676  1.00  0.00     0.069 A 
HETATM   13  C   UNL     1       0.981   7.740 -28.897  1.00  0.00     0.038 A 
HETATM   14  C   UNL     1       1.114   8.640 -27.833  1.00  0.00     0.022 A 
HETATM   15  C   UNL     1       0.720   8.264 -26.550  1.00  0.00     0.011 A 
HETATM   16  C   UNL     1       0.193   6.997 -26.321  1.00  0.00     0.022 A 
HETATM   17 BR   UNL     1       0.900   9.482 -25.117  1.00  0.00    -0.051 Br
HETATM   18  C   UNL     1       0.058   6.104 -27.385  1.00  0.00     0.038 A 
ENDBRANCH  11  12
ENDBRANCH  10  11
ENDBRANCH   7  10
ENDBRANCH   1   5
BRANCH   2  19
HETATM   19  N   UNL     1      -5.416   2.191 -30.267  1.00  0.00    -0.274 N 
HETATM   20  H   UNL     1      -5.173   1.251 -30.582  1.00  0.00     0.189 HD
BRANCH  19  21
HETATM   21  C   UNL     1      -6.743   2.537 -30.261  1.00  0.00     0.186 C 
HETATM   22  S   UNL     1      -7.354   3.980 -29.670  1.00  0.00    -0.040 SA
BRANCH  21  23
HETATM   23  N   UNL     1      -7.618   1.608 -30.727  1.00  0.00    -0.364 N 
HETATM   24  H   UNL     1      -8.025   1.009 -30.013  1.00  0.00     0.162 HD
BRANCH  23  25
HETATM   25  C   UNL     1      -7.902   1.196 -32.100  1.00  0.00     0.154 C 
BRANCH  25  26
HETATM   26  C   UNL     1      -7.240  -0.146 -32.452  1.00  0.00     0.139 C 
HETATM   27  O   UNL     1      -5.809   0.034 -32.530  1.00  0.00    -0.384 OA
HETATM   28  C   UNL     1      -5.351  -0.522 -33.768  1.00  0.00     0.168 C 
HETATM   29  C   UNL     1      -6.533  -0.482 -34.707  1.00  0.00     0.029 C 
HETATM   30  C   UNL     1      -7.691  -0.750 -33.777  1.00  0.00     0.035 C 
ENDBRANCH  25  26
ENDBRANCH  23  25
ENDBRANCH  21  23
ENDBRANCH  19  21
ENDBRANCH   2  19
TORSDOF 9
ENDMDL
MODEL 10
REMARK VINA RESULT:      -7.3      2.447      3.070
REMARK  9 active torsions:
REMARK  status: ('A' for Active; 'I' for Inactive)
REMARK    1  A    between atoms: C_2  and  O_3 
REMARK    2  A    between atoms: O_3  and  C_4 
REMARK    3  A    between atoms: C_4  and  C_5 
REMARK    4  A    between atoms: C_7  and  C_8 
REMARK       I    between atoms: C_8  and  N_9 
REMARK    5  A    between atoms: N_9  and  N_10 
REMARK    6  A    between atoms: N_10  and  C_11 
REMARK    7  A    between atoms: C_11  and  N_12 
REMARK    8  A    between atoms: N_12  and  C_13 
REMARK    9  A    between atoms: C_13  and  C_14 
ROOT
HETATM    1  C   UNL     1      -6.182   5.095 -28.794  1.00  0.00     0.293 C 
HETATM    2  N   UNL     1      -5.181   4.746 -27.896  1.00  0.00    -0.262 N 
HETATM    3  O   UNL     1      -6.980   5.993 -28.522  1.00  0.00    -0.264 OA
HETATM    4  H   UNL     1      -4.380   4.193 -28.186  1.00  0.00     0.190 HD
ENDROOT
BRANCH   1   5
HETATM    5  C   UNL     1      -6.182   4.338 -30.031  1.00  0.00     0.145 A 
HETATM    6  O   UNL     1      -5.654   3.072 -30.012  1.00  0.00    -0.307 OA
HETATM    7  C   UNL     1      -5.745   2.564 -31.274  1.00  0.00     0.078 A 
HETATM    8  C   UNL     1      -6.336   3.484 -32.110  1.00  0.00     0.038 A 
HETATM    9  C   UNL     1      -6.619   4.622 -31.316  1.00  0.00     0.045 A 
BRANCH   7  10
HETATM   10  C   UNL     1      -5.219   1.190 -31.484  1.00  0.00     0.240 C 
BRANCH  10  11
HETATM   11  O   UNL     1      -5.067   1.030 -32.893  1.00  0.00    -0.345 OA
BRANCH  11  12
HETATM   12  C   UNL     1      -5.435  -0.174 -33.425  1.00  0.00     0.069 A 
HETATM   13  C   UNL     1      -6.721  -0.534 -33.831  1.00  0.00     0.038 A 
HETATM   14  C   UNL     1      -6.955  -1.801 -34.379  1.00  0.00     0.022 A 
HETATM   15  C   UNL     1      -5.904  -2.705 -34.517  1.00  0.00     0.011 A 
HETATM   16  C   UNL     1      -4.619  -2.355 -34.114  1.00  0.00     0.022 A 
HETATM   17 BR   UNL     1      -6.225  -4.414 -35.257  1.00  0.00    -0.051 Br
HETATM   18  C   UNL     1      -4.388  -1.089 -33.572  1.00  0.00     0.038 A 
ENDBRANCH  11  12
ENDBRANCH  10  11
ENDBRANCH   7  10
ENDBRANCH   1   5
BRANCH   2  19
HETATM   19  N   UNL     1      -4.984   5.573 -26.769  1.00  0.00    -0.274 N 
HETATM   20  H   UNL     1      -5.834   5.696 -26.217  1.00  0.00     0.189 HD
BRANCH  19  21
HETATM   21  C   UNL     1      -4.118   6.634 -26.848  1.00  0.00     0.186 C 
HETATM   22  S   UNL     1      -4.175   7.991 -25.868  1.00  0.00    -0.040 SA
BRANCH  21  23
HETATM   23  N   UNL     1      -3.182   6.586 -27.831  1.00  0.00    -0.364 N 
HETATM   24  H   UNL     1      -3.138   5.704 -28.335  1.00  0.00     0.162 HD
BRANCH  23  25
HETATM   25  C   UNL     1      -2.097   7.516 -28.136  1.00  0.00     0.154 C 
BRANCH  25  26
HETATM   26  C   UNL     1      -0.725   6.822 -28.148  1.00  0.00     0.139 C 
HETATM   27  O   UNL     1      -0.166   6.849 -26.817  1.00  0.00    -0.384 OA
HETATM   28  C   UNL     1       1.172   7.354 -26.899  1.00  0.00     0.168 C 
HETATM   29  C   UNL     1       1.222   8.203 -28.147  1.00  0.00     0.029 C 
HETATM   30  C   UNL     1       0.301   7.457 -29.080  1.00  0.00     0.035 C 
ENDBRANCH  25  26
ENDBRANCH  23  25
ENDBRANCH  21  23
ENDBRANCH  19  21
ENDBRANCH   2  19
TORSDOF 9
ENDMDL
