MODEL 1
REMARK VINA RESULT:      -8.9      0.000      0.000
REMARK  3 active torsions:
REMARK  status: ('A' for Active; 'I' for Inactive)
REMARK    1  A    between atoms: C_7  and  C_8 
REMARK    2  A    between atoms: N_9  and  C_11 
REMARK    3  A    between atoms: C_11  and  C_12 
ROOT
HETATM    1  C   UNL     1      -7.496   1.577 -32.688  1.00  0.00     0.238 C 
HETATM    2  N   UNL     1      -6.543   2.661 -32.216  1.00  0.00    -0.056 N 
HETATM    3  H   UNL     1      -6.002   2.225 -31.462  1.00  0.00     0.281 HD
HETATM    4  C   UNL     1      -7.249   3.847 -31.600  1.00  0.00     0.236 C 
HETATM    5  C   UNL     1      -8.119   3.401 -30.439  1.00  0.00     0.028 C 
HETATM    6  C   UNL     1      -9.147   2.386 -30.908  1.00  0.00     0.004 C 
HETATM    7  C   UNL     1      -8.454   1.191 -31.543  1.00  0.00     0.040 C 
ENDROOT
BRANCH   2   8
HETATM    8  C   UNL     1      -5.500   3.091 -33.242  1.00  0.00     0.294 C 
BRANCH   8   9
HETATM    9  C   UNL     1      -4.168   3.420 -32.692  1.00  0.00     0.061 A 
HETATM   10  N   UNL     1      -3.312   4.382 -33.192  1.00  0.00    -0.305 N 
HETATM   11  C   UNL     1      -2.220   4.407 -32.361  1.00  0.00     0.151 A 
HETATM   12  C   UNL     1      -3.368   5.246 -34.273  1.00  0.00     0.118 A 
HETATM   13  C   UNL     1      -1.182   5.371 -32.608  1.00  0.00     0.167 A 
HETATM   14  N   UNL     1      -2.277   3.494 -31.422  1.00  0.00    -0.239 NA
HETATM   15  N   UNL     1      -1.259   6.208 -33.608  1.00  0.00    -0.268 NA
HETATM   16  C   UNL     1      -2.356   6.115 -34.447  1.00  0.00     0.134 A 
HETATM   17  C   UNL     1      -3.453   2.839 -31.654  1.00  0.00     0.146 A 
ENDBRANCH   8   9
ENDBRANCH   2   8
BRANCH   1  18
HETATM   18  C   UNL     1      -6.771   0.342 -33.123  1.00  0.00     0.041 A 
HETATM   19  N   UNL     1      -7.396  -0.652 -33.848  1.00  0.00    -0.357 N 
HETATM   20  C   UNL     1      -6.529  -1.693 -34.086  1.00  0.00     0.042 A 
HETATM   21  H   UNL     1      -8.360  -0.652 -34.161  1.00  0.00     0.166 HD
HETATM   22  C   UNL     1      -5.321  -1.377 -33.468  1.00  0.00    -0.008 A 
HETATM   23  C   UNL     1      -6.729  -2.893 -34.778  1.00  0.00     0.030 A 
HETATM   24  C   UNL     1      -4.260  -2.298 -33.535  1.00  0.00     0.014 A 
HETATM   25  C   UNL     1      -5.486  -0.105 -32.859  1.00  0.00     0.040 A 
HETATM   26  C   UNL     1      -4.443  -3.504 -34.221  1.00  0.00     0.001 A 
HETATM   27  C   UNL     1      -5.662  -3.793 -34.833  1.00  0.00     0.002 A 
ENDBRANCH   1  18
TORSDOF 3
ENDMDL
MODEL 2
REMARK VINA RESULT:      -8.6      1.577      2.277
REMARK  3 active torsions:
REMARK  status: ('A' for Active; 'I' for Inactive)
REMARK    1  A    between atoms: C_7  and  C_8 
REMARK    2  A    between atoms: N_9  and  C_11 
REMARK    3  A    between atoms: C_11  and  C_12 
ROOT
HETATM    1  C   UNL     1      -5.483   1.741 -31.836  1.00  0.00     0.238 C 
HETATM    2  N   UNL     1      -4.388   2.665 -31.330  1.00  0.00    -0.056 N 
HETATM    3  H   UNL     1      -3.979   2.173 -30.528  1.00  0.00     0.281 HD
HETATM    4  C   UNL     1      -4.916   3.977 -30.798  1.00  0.00     0.236 C 
HETATM    5  C   UNL     1      -5.922   3.733 -29.688  1.00  0.00     0.028 C 
HETATM    6  C   UNL     1      -7.078   2.891 -30.198  1.00  0.00     0.004 C 
HETATM    7  C   UNL     1      -6.564   1.570 -30.749  1.00  0.00     0.040 C 
ENDROOT
BRANCH   2   8
HETATM    8  C   UNL     1      -3.224   2.869 -32.293  1.00  0.00     0.294 C 
BRANCH   8   9
HETATM    9  C   UNL     1      -3.278   4.109 -33.097  1.00  0.00     0.061 A 
HETATM   10  N   UNL     1      -2.429   5.190 -32.956  1.00  0.00    -0.305 N 
HETATM   11  C   UNL     1      -2.779   6.095 -33.927  1.00  0.00     0.151 A 
HETATM   12  C   UNL     1      -1.383   5.482 -32.096  1.00  0.00     0.118 A 
HETATM   13  C   UNL     1      -2.013   7.304 -34.058  1.00  0.00     0.167 A 
HETATM   14  N   UNL     1      -3.823   5.712 -34.623  1.00  0.00    -0.239 NA
HETATM   15  N   UNL     1      -1.005   7.555 -33.266  1.00  0.00    -0.268 NA
HETATM   16  C   UNL     1      -0.717   6.638 -32.272  1.00  0.00     0.134 A 
HETATM   17  C   UNL     1      -4.174   4.509 -34.077  1.00  0.00     0.146 A 
ENDBRANCH   8   9
ENDBRANCH   2   8
BRANCH   1  18
HETATM   18  C   UNL     1      -4.956   0.384 -32.185  1.00  0.00     0.041 A 
HETATM   19  N   UNL     1      -5.377  -0.292 -33.312  1.00  0.00    -0.357 N 
HETATM   20  C   UNL     1      -4.778  -1.527 -33.384  1.00  0.00     0.042 A 
HETATM   21  H   UNL     1      -6.045   0.041 -33.999  1.00  0.00     0.166 HD
HETATM   22  C   UNL     1      -3.974  -1.667 -32.255  1.00  0.00    -0.008 A 
HETATM   23  C   UNL     1      -4.905  -2.537 -34.346  1.00  0.00     0.030 A 
HETATM   24  C   UNL     1      -3.263  -2.866 -32.067  1.00  0.00     0.014 A 
HETATM   25  C   UNL     1      -4.100  -0.467 -31.505  1.00  0.00     0.040 A 
HETATM   26  C   UNL     1      -3.380  -3.886 -33.019  1.00  0.00     0.001 A 
HETATM   27  C   UNL     1      -4.189  -3.719 -34.141  1.00  0.00     0.002 A 
ENDBRANCH   1  18
TORSDOF 3
ENDMDL
MODEL 3
REMARK VINA RESULT:      -8.6      2.357      5.552
REMARK  3 active torsions:
REMARK  status: ('A' for Active; 'I' for Inactive)
REMARK    1  A    between atoms: C_7  and  C_8 
REMARK    2  A    between atoms: N_9  and  C_11 
REMARK    3  A    between atoms: C_11  and  C_12 
ROOT
HETATM    1  C   UNL     1      -4.384   1.415 -31.519  1.00  0.00     0.238 C 
HETATM    2  N   UNL     1      -5.755   2.043 -31.700  1.00  0.00    -0.056 N 
HETATM    3  H   UNL     1      -5.918   2.032 -32.712  1.00  0.00     0.281 HD
HETATM    4  C   UNL     1      -5.805   3.494 -31.278  1.00  0.00     0.236 C 
HETATM    5  C   UNL     1      -4.775   4.304 -32.044  1.00  0.00     0.028 C 
HETATM    6  C   UNL     1      -3.381   3.753 -31.800  1.00  0.00     0.004 C 
HETATM    7  C   UNL     1      -3.316   2.289 -32.208  1.00  0.00     0.040 C 
ENDROOT
BRANCH   2   8
HETATM    8  C   UNL     1      -6.912   1.241 -31.113  1.00  0.00     0.294 C 
BRANCH   8   9
HETATM    9  C   UNL     1      -8.103   1.120 -31.980  1.00  0.00     0.061 A 
HETATM   10  N   UNL     1      -9.189   1.973 -31.969  1.00  0.00    -0.305 N 
HETATM   11  C   UNL     1     -10.037   1.545 -32.960  1.00  0.00     0.151 A 
HETATM   12  C   UNL     1      -9.529   3.083 -31.212  1.00  0.00     0.118 A 
HETATM   13  C   UNL     1     -11.236   2.295 -33.221  1.00  0.00     0.167 A 
HETATM   14  N   UNL     1      -9.616   0.451 -33.549  1.00  0.00    -0.239 NA
HETATM   15  N   UNL     1     -11.531   3.361 -32.527  1.00  0.00    -0.268 NA
HETATM   16  C   UNL     1     -10.672   3.729 -31.507  1.00  0.00     0.134 A 
HETATM   17  C   UNL     1      -8.447   0.148 -32.909  1.00  0.00     0.146 A 
ENDBRANCH   8   9
ENDBRANCH   2   8
BRANCH   1  18
HETATM   18  C   UNL     1      -4.313   0.042 -32.111  1.00  0.00     0.041 A 
HETATM   19  N   UNL     1      -3.627  -0.983 -31.492  1.00  0.00    -0.357 N 
HETATM   20  C   UNL     1      -3.678  -2.126 -32.254  1.00  0.00     0.042 A 
HETATM   21  H   UNL     1      -3.132  -0.928 -30.609  1.00  0.00     0.166 HD
HETATM   22  C   UNL     1      -4.388  -1.822 -33.414  1.00  0.00    -0.008 A 
HETATM   23  C   UNL     1      -3.133  -3.393 -32.017  1.00  0.00     0.030 A 
HETATM   24  C   UNL     1      -4.562  -2.821 -34.389  1.00  0.00     0.014 A 
HETATM   25  C   UNL     1      -4.773  -0.458 -33.319  1.00  0.00     0.040 A 
HETATM   26  C   UNL     1      -4.022  -4.092 -34.169  1.00  0.00     0.001 A 
HETATM   27  C   UNL     1      -3.319  -4.371 -32.998  1.00  0.00     0.002 A 
ENDBRANCH   1  18
TORSDOF 3
ENDMDL
MODEL 4
REMARK VINA RESULT:      -8.5      3.192      5.095
REMARK  3 active torsions:
REMARK  status: ('A' for Active; 'I' for Inactive)
REMARK    1  A    between atoms: C_7  and  C_8 
REMARK    2  A    between atoms: N_9  and  C_11 
REMARK    3  A    between atoms: C_11  and  C_12 
ROOT
HETATM    1  C   UNL     1     -11.915   1.603 -33.911  1.00  0.00     0.238 C 
HETATM    2  N   UNL     1     -12.187   2.686 -32.882  1.00  0.00    -0.056 N 
HETATM    3  H   UNL     1     -11.995   2.244 -31.978  1.00  0.00     0.281 HD
HETATM    4  C   UNL     1     -13.635   3.120 -32.844  1.00  0.00     0.236 C 
HETATM    5  C   UNL     1     -14.536   1.931 -32.572  1.00  0.00     0.028 C 
HETATM    6  C   UNL     1     -14.353   0.872 -33.645  1.00  0.00     0.004 C 
HETATM    7  C   UNL     1     -12.899   0.433 -33.707  1.00  0.00     0.040 C 
ENDROOT
BRANCH   2   8
HETATM    8  C   UNL     1     -11.238   3.879 -32.940  1.00  0.00     0.294 C 
BRANCH   8   9
HETATM    9  C   UNL     1     -10.070   3.803 -32.037  1.00  0.00     0.061 A 
HETATM   10  N   UNL     1      -8.751   3.938 -32.425  1.00  0.00    -0.305 N 
HETATM   11  C   UNL     1      -7.995   3.863 -31.282  1.00  0.00     0.151 A 
HETATM   12  C   UNL     1      -8.125   4.130 -33.646  1.00  0.00     0.118 A 
HETATM   13  C   UNL     1      -6.571   4.037 -31.378  1.00  0.00     0.167 A 
HETATM   14  N   UNL     1      -8.715   3.618 -30.213  1.00  0.00    -0.239 NA
HETATM   15  N   UNL     1      -5.992   4.254 -32.529  1.00  0.00    -0.268 NA
HETATM   16  C   UNL     1      -6.788   4.276 -33.661  1.00  0.00     0.134 A 
HETATM   17  C   UNL     1      -9.995   3.522 -30.680  1.00  0.00     0.146 A 
ENDBRANCH   8   9
ENDBRANCH   2   8
BRANCH   1  18
HETATM   18  C   UNL     1     -10.523   1.064 -33.804  1.00  0.00     0.041 A 
HETATM   19  N   UNL     1      -9.638   1.120 -34.862  1.00  0.00    -0.357 N 
HETATM   20  C   UNL     1      -8.445   0.524 -34.524  1.00  0.00     0.042 A 
HETATM   21  H   UNL     1      -9.817   1.522 -35.775  1.00  0.00     0.166 HD
HETATM   22  C   UNL     1      -8.576   0.039 -33.225  1.00  0.00    -0.008 A 
HETATM   23  C   UNL     1      -7.276   0.357 -35.275  1.00  0.00     0.030 A 
HETATM   24  C   UNL     1      -7.496  -0.648 -32.641  1.00  0.00     0.014 A 
HETATM   25  C   UNL     1      -9.885   0.374 -32.786  1.00  0.00     0.040 A 
HETATM   26  C   UNL     1      -6.320  -0.825 -33.378  1.00  0.00     0.001 A 
HETATM   27  C   UNL     1      -6.215  -0.327 -34.676  1.00  0.00     0.002 A 
ENDBRANCH   1  18
TORSDOF 3
ENDMDL
MODEL 5
REMARK VINA RESULT:      -8.4      1.773      6.828
REMARK  3 active torsions:
REMARK  status: ('A' for Active; 'I' for Inactive)
REMARK    1  A    between atoms: C_7  and  C_8 
REMARK    2  A    between atoms: N_9  and  C_11 
REMARK    3  A    between atoms: C_11  and  C_12 
ROOT
HETATM    1  C   UNL     1      -6.663   1.143 -32.473  1.00  0.00     0.238 C 
HETATM    2  N   UNL     1      -7.261   0.475 -33.699  1.00  0.00    -0.056 N 
HETATM    3  H   UNL     1      -7.725   1.232 -34.211  1.00  0.00     0.281 HD
HETATM    4  C   UNL     1      -8.336  -0.532 -33.362  1.00  0.00     0.236 C 
HETATM    5  C   UNL     1      -9.442   0.124 -32.556  1.00  0.00     0.028 C 
HETATM    6  C   UNL     1      -8.883   0.717 -31.274  1.00  0.00     0.004 C 
HETATM    7  C   UNL     1      -7.790   1.724 -31.595  1.00  0.00     0.040 C 
ENDROOT
BRANCH   2   8
HETATM    8  C   UNL     1      -6.243  -0.090 -34.683  1.00  0.00     0.294 C 
BRANCH   8   9
HETATM    9  C   UNL     1      -5.405  -1.193 -34.165  1.00  0.00     0.061 A 
HETATM   10  N   UNL     1      -5.584  -2.533 -34.449  1.00  0.00    -0.305 N 
HETATM   11  C   UNL     1      -4.566  -3.208 -33.823  1.00  0.00     0.151 A 
HETATM   12  C   UNL     1      -6.516  -3.240 -35.192  1.00  0.00     0.118 A 
HETATM   13  C   UNL     1      -4.464  -4.631 -33.999  1.00  0.00     0.167 A 
HETATM   14  N   UNL     1      -3.800  -2.418 -33.108  1.00  0.00    -0.239 NA
HETATM   15  N   UNL     1      -5.325  -5.285 -34.732  1.00  0.00    -0.268 NA
HETATM   16  C   UNL     1      -6.362  -4.572 -35.305  1.00  0.00     0.134 A 
HETATM   17  C   UNL     1      -4.347  -1.177 -33.268  1.00  0.00     0.146 A 
ENDBRANCH   8   9
ENDBRANCH   2   8
BRANCH   1  18
HETATM   18  C   UNL     1      -5.736   2.261 -32.839  1.00  0.00     0.041 A 
HETATM   19  N   UNL     1      -4.453   2.336 -32.337  1.00  0.00    -0.357 N 
HETATM   20  C   UNL     1      -3.824   3.472 -32.790  1.00  0.00     0.042 A 
HETATM   21  H   UNL     1      -4.013   1.673 -31.709  1.00  0.00     0.166 HD
HETATM   22  C   UNL     1      -4.738   4.167 -33.578  1.00  0.00    -0.008 A 
HETATM   23  C   UNL     1      -2.530   3.946 -32.544  1.00  0.00     0.030 A 
HETATM   24  C   UNL     1      -4.354   5.395 -34.148  1.00  0.00     0.014 A 
HETATM   25  C   UNL     1      -5.937   3.405 -33.595  1.00  0.00     0.040 A 
HETATM   26  C   UNL     1      -3.065   5.884 -33.910  1.00  0.00     0.001 A 
HETATM   27  C   UNL     1      -2.168   5.167 -33.120  1.00  0.00     0.002 A 
ENDBRANCH   1  18
TORSDOF 3
ENDMDL
MODEL 6
REMARK VINA RESULT:      -8.3      3.347      5.628
REMARK  3 active torsions:
REMARK  status: ('A' for Active; 'I' for Inactive)
REMARK    1  A    between atoms: C_7  and  C_8 
REMARK    2  A    between atoms: N_9  and  C_11 
REMARK    3  A    between atoms: C_11  and  C_12 
ROOT
HETATM    1  C   UNL     1      -7.381   1.169 -31.980  1.00  0.00     0.238 C 
HETATM    2  N   UNL     1      -7.450   2.410 -32.854  1.00  0.00    -0.056 N 
HETATM    3  H   UNL     1      -6.477   2.609 -33.107  1.00  0.00     0.281 HD
HETATM    4  C   UNL     1      -7.955   3.629 -32.118  1.00  0.00     0.236 C 
HETATM    5  C   UNL     1      -7.085   3.914 -30.907  1.00  0.00     0.028 C 
HETATM    6  C   UNL     1      -7.078   2.721 -29.968  1.00  0.00     0.004 C 
HETATM    7  C   UNL     1      -6.585   1.481 -30.697  1.00  0.00     0.040 C 
ENDROOT
BRANCH   2   8
HETATM    8  C   UNL     1      -8.164   2.217 -34.188  1.00  0.00     0.294 C 
BRANCH   8   9
HETATM    9  C   UNL     1      -9.634   2.086 -34.107  1.00  0.00     0.061 A 
HETATM   10  N   UNL     1     -10.544   3.053 -34.486  1.00  0.00    -0.305 N 
HETATM   11  C   UNL     1     -11.793   2.511 -34.307  1.00  0.00     0.151 A 
HETATM   12  C   UNL     1     -10.425   4.342 -34.979  1.00  0.00     0.118 A 
HETATM   13  C   UNL     1     -12.946   3.282 -34.685  1.00  0.00     0.167 A 
HETATM   14  N   UNL     1     -11.753   1.312 -33.777  1.00  0.00    -0.239 NA
HETATM   15  N   UNL     1     -12.823   4.483 -35.184  1.00  0.00    -0.268 NA
HETATM   16  C   UNL     1     -11.548   5.007 -35.304  1.00  0.00     0.134 A 
HETATM   17  C   UNL     1     -10.421   1.063 -33.596  1.00  0.00     0.146 A 
ENDBRANCH   8   9
ENDBRANCH   2   8
BRANCH   1  18
HETATM   18  C   UNL     1      -6.709   0.028 -32.678  1.00  0.00     0.041 A 
HETATM   19  N   UNL     1      -7.429  -0.931 -33.363  1.00  0.00    -0.357 N 
HETATM   20  C   UNL     1      -6.587  -1.889 -33.877  1.00  0.00     0.042 A 
HETATM   21  H   UNL     1      -8.436  -0.961 -33.474  1.00  0.00     0.166 HD
HETATM   22  C   UNL     1      -5.291  -1.558 -33.484  1.00  0.00    -0.008 A 
HETATM   23  C   UNL     1      -6.874  -3.030 -34.635  1.00  0.00     0.030 A 
HETATM   24  C   UNL     1      -4.229  -2.402 -33.858  1.00  0.00     0.014 A 
HETATM   25  C   UNL     1      -5.380  -0.361 -32.726  1.00  0.00     0.040 A 
HETATM   26  C   UNL     1      -4.500  -3.547 -34.615  1.00  0.00     0.001 A 
HETATM   27  C   UNL     1      -5.804  -3.853 -34.997  1.00  0.00     0.002 A 
ENDBRANCH   1  18
TORSDOF 3
ENDMDL
MODEL 7
REMARK VINA RESULT:      -8.3      1.662      2.590
REMARK  3 active torsions:
REMARK  status: ('A' for Active; 'I' for Inactive)
REMARK    1  A    between atoms: C_7  and  C_8 
REMARK    2  A    between atoms: N_9  and  C_11 
REMARK    3  A    between atoms: C_11  and  C_12 
ROOT
HETATM    1  C   UNL     1      -7.422   0.796 -33.644  1.00  0.00     0.238 C 
HETATM    2  N   UNL     1      -7.899   0.943 -32.210  1.00  0.00    -0.056 N 
HETATM    3  H   UNL     1      -8.473   0.112 -32.037  1.00  0.00     0.281 HD
HETATM    4  C   UNL     1      -8.804   2.136 -32.004  1.00  0.00     0.236 C 
HETATM    5  C   UNL     1     -10.005   2.054 -32.927  1.00  0.00     0.028 C 
HETATM    6  C   UNL     1      -9.556   2.004 -34.377  1.00  0.00     0.004 C 
HETATM    7  C   UNL     1      -8.632   0.817 -34.600  1.00  0.00     0.040 C 
ENDROOT
BRANCH   2   8
HETATM    8  C   UNL     1      -6.797   0.878 -31.157  1.00  0.00     0.294 C 
BRANCH   8   9
HETATM    9  C   UNL     1      -6.221   2.181 -30.762  1.00  0.00     0.061 A 
HETATM   10  N   UNL     1      -5.094   2.757 -31.315  1.00  0.00    -0.305 N 
HETATM   11  C   UNL     1      -4.940   3.980 -30.711  1.00  0.00     0.151 A 
HETATM   12  C   UNL     1      -4.191   2.356 -32.286  1.00  0.00     0.118 A 
HETATM   13  C   UNL     1      -3.869   4.837 -31.143  1.00  0.00     0.167 A 
HETATM   14  N   UNL     1      -5.828   4.196 -29.772  1.00  0.00    -0.239 NA
HETATM   15  N   UNL     1      -3.044   4.467 -32.085  1.00  0.00    -0.268 NA
HETATM   16  C   UNL     1      -3.208   3.208 -32.633  1.00  0.00     0.134 A 
HETATM   17  C   UNL     1      -6.591   3.063 -29.756  1.00  0.00     0.146 A 
ENDBRANCH   8   9
ENDBRANCH   2   8
BRANCH   1  18
HETATM   18  C   UNL     1      -6.681  -0.487 -33.861  1.00  0.00     0.041 A 
HETATM   19  N   UNL     1      -7.298  -1.604 -34.384  1.00  0.00    -0.357 N 
HETATM   20  C   UNL     1      -6.417  -2.658 -34.444  1.00  0.00     0.042 A 
HETATM   21  H   UNL     1      -8.266  -1.675 -34.676  1.00  0.00     0.166 HD
HETATM   22  C   UNL     1      -5.206  -2.219 -33.913  1.00  0.00    -0.008 A 
HETATM   23  C   UNL     1      -6.605  -3.967 -34.903  1.00  0.00     0.030 A 
HETATM   24  C   UNL     1      -4.130  -3.121 -33.829  1.00  0.00     0.014 A 
HETATM   25  C   UNL     1      -5.385  -0.860 -33.541  1.00  0.00     0.040 A 
HETATM   26  C   UNL     1      -4.302  -4.433 -34.282  1.00  0.00     0.001 A 
HETATM   27  C   UNL     1      -5.523  -4.847 -34.812  1.00  0.00     0.002 A 
ENDBRANCH   1  18
TORSDOF 3
ENDMDL
MODEL 8
REMARK VINA RESULT:      -8.2      3.397      6.098
REMARK  3 active torsions:
REMARK  status: ('A' for Active; 'I' for Inactive)
REMARK    1  A    between atoms: C_7  and  C_8 
REMARK    2  A    between atoms: N_9  and  C_11 
REMARK    3  A    between atoms: C_11  and  C_12 
ROOT
HETATM    1  C   UNL     1      -7.762   1.450 -31.988  1.00  0.00     0.238 C 
HETATM    2  N   UNL     1      -7.629   2.697 -32.844  1.00  0.00    -0.056 N 
HETATM    3  H   UNL     1      -6.627   2.772 -33.046  1.00  0.00     0.281 HD
HETATM    4  C   UNL     1      -8.011   3.964 -32.113  1.00  0.00     0.236 C 
HETATM    5  C   UNL     1      -7.173   4.123 -30.858  1.00  0.00     0.028 C 
HETATM    6  C   UNL     1      -7.365   2.930 -29.938  1.00  0.00     0.004 C 
HETATM    7  C   UNL     1      -6.998   1.644 -30.662  1.00  0.00     0.040 C 
ENDROOT
BRANCH   2   8
HETATM    8  C   UNL     1      -8.294   2.610 -34.214  1.00  0.00     0.294 C 
BRANCH   8   9
HETATM    9  C   UNL     1      -9.674   3.134 -34.282  1.00  0.00     0.061 A 
HETATM   10  N   UNL     1     -10.821   2.395 -34.067  1.00  0.00    -0.305 N 
HETATM   11  C   UNL     1     -11.877   3.267 -34.165  1.00  0.00     0.151 A 
HETATM   12  C   UNL     1     -11.063   1.060 -33.784  1.00  0.00     0.118 A 
HETATM   13  C   UNL     1     -13.207   2.778 -33.921  1.00  0.00     0.167 A 
HETATM   14  N   UNL     1     -11.502   4.479 -34.497  1.00  0.00    -0.239 NA
HETATM   15  N   UNL     1     -13.423   1.526 -33.619  1.00  0.00    -0.268 NA
HETATM   16  C   UNL     1     -12.334   0.673 -33.576  1.00  0.00     0.134 A 
HETATM   17  C   UNL     1     -10.145   4.393 -34.629  1.00  0.00     0.146 A 
ENDBRANCH   8   9
ENDBRANCH   2   8
BRANCH   1  18
HETATM   18  C   UNL     1      -7.207   0.238 -32.671  1.00  0.00     0.041 A 
HETATM   19  N   UNL     1      -5.851  -0.009 -32.724  1.00  0.00    -0.357 N 
HETATM   20  C   UNL     1      -5.598  -1.156 -33.439  1.00  0.00     0.042 A 
HETATM   21  H   UNL     1      -5.118   0.563 -32.319  1.00  0.00     0.166 HD
HETATM   22  C   UNL     1      -6.823  -1.644 -33.889  1.00  0.00    -0.008 A 
HETATM   23  C   UNL     1      -4.383  -1.783 -33.740  1.00  0.00     0.030 A 
HETATM   24  C   UNL     1      -6.845  -2.808 -34.679  1.00  0.00     0.014 A 
HETATM   25  C   UNL     1      -7.824  -0.758 -33.410  1.00  0.00     0.040 A 
HETATM   26  C   UNL     1      -5.640  -3.446 -34.990  1.00  0.00     0.001 A 
HETATM   27  C   UNL     1      -4.428  -2.938 -34.525  1.00  0.00     0.002 A 
ENDBRANCH   1  18
TORSDOF 3
ENDMDL
MODEL 9
REMARK VINA RESULT:      -8.2      3.217      6.178
REMARK  3 active torsions:
REMARK  status: ('A' for Active; 'I' for Inactive)
REMARK    1  A    between atoms: C_7  and  C_8 
REMARK    2  A    between atoms: N_9  and  C_11 
REMARK    3  A    between atoms: C_11  and  C_12 
ROOT
HETATM    1  C   UNL     1      -7.842  -0.484 -33.410  1.00  0.00     0.238 C 
HETATM    2  N   UNL     1      -6.799   0.038 -32.438  1.00  0.00    -0.056 N 
HETATM    3  H   UNL     1      -6.454   0.905 -32.862  1.00  0.00     0.281 HD
HETATM    4  C   UNL     1      -5.601  -0.875 -32.304  1.00  0.00     0.236 C 
HETATM    5  C   UNL     1      -4.956  -1.103 -33.659  1.00  0.00     0.028 C 
HETATM    6  C   UNL     1      -5.956  -1.717 -34.624  1.00  0.00     0.004 C 
HETATM    7  C   UNL     1      -7.174  -0.818 -34.760  1.00  0.00     0.040 C 
ENDROOT
BRANCH   2   8
HETATM    8  C   UNL     1      -7.343   0.462 -31.078  1.00  0.00     0.294 C 
BRANCH   8   9
HETATM    9  C   UNL     1      -7.051   1.856 -30.685  1.00  0.00     0.061 A 
HETATM   10  N   UNL     1      -7.990   2.859 -30.543  1.00  0.00    -0.305 N 
HETATM   11  C   UNL     1      -7.314   3.974 -30.112  1.00  0.00     0.151 A 
HETATM   12  C   UNL     1      -9.361   2.923 -30.731  1.00  0.00     0.118 A 
HETATM   13  C   UNL     1      -8.059   5.168 -29.817  1.00  0.00     0.167 A 
HETATM   14  N   UNL     1      -6.018   3.783 -30.040  1.00  0.00    -0.239 NA
HETATM   15  N   UNL     1      -9.356   5.208 -29.961  1.00  0.00    -0.268 NA
HETATM   16  C   UNL     1      -9.991   4.077 -30.443  1.00  0.00     0.134 A 
HETATM   17  C   UNL     1      -5.840   2.492 -30.449  1.00  0.00     0.146 A 
ENDBRANCH   8   9
ENDBRANCH   2   8
BRANCH   1  18
HETATM   18  C   UNL     1      -8.925   0.518 -33.662  1.00  0.00     0.041 A 
HETATM   19  N   UNL     1     -10.243   0.260 -33.343  1.00  0.00    -0.357 N 
HETATM   20  C   UNL     1     -11.043   1.317 -33.710  1.00  0.00     0.042 A 
HETATM   21  H   UNL     1     -10.604  -0.584 -32.914  1.00  0.00     0.166 HD
HETATM   22  C   UNL     1     -10.224   2.269 -34.314  1.00  0.00    -0.008 A 
HETATM   23  C   UNL     1     -12.425   1.492 -33.574  1.00  0.00     0.030 A 
HETATM   24  C   UNL     1     -10.803   3.450 -34.812  1.00  0.00     0.014 A 
HETATM   25  C   UNL     1      -8.900   1.754 -34.288  1.00  0.00     0.040 A 
HETATM   26  C   UNL     1     -12.184   3.639 -34.687  1.00  0.00     0.001 A 
HETATM   27  C   UNL     1     -12.980   2.672 -34.076  1.00  0.00     0.002 A 
ENDBRANCH   1  18
TORSDOF 3
ENDMDL
MODEL 10
REMARK VINA RESULT:      -8.1      2.891      5.056
REMARK  3 active torsions:
REMARK  status: ('A' for Active; 'I' for Inactive)
REMARK    1  A    between atoms: C_7  and  C_8 
REMARK    2  A    between atoms: N_9  and  C_11 
REMARK    3  A    between atoms: C_11  and  C_12 
ROOT
HETATM    1  C   UNL     1      -7.974  -0.122 -32.902  1.00  0.00     0.238 C 
HETATM    2  N   UNL     1      -6.918   0.909 -32.544  1.00  0.00    -0.056 N 
HETATM    3  H   UNL     1      -6.794   1.466 -33.395  1.00  0.00     0.281 HD
HETATM    4  C   UNL     1      -5.570   0.297 -32.236  1.00  0.00     0.236 C 
HETATM    5  C   UNL     1      -5.085  -0.533 -33.411  1.00  0.00     0.028 C 
HETATM    6  C   UNL     1      -6.082  -1.634 -33.727  1.00  0.00     0.004 C 
HETATM    7  C   UNL     1      -7.448  -1.037 -34.026  1.00  0.00     0.040 C 
ENDROOT
BRANCH   2   8
HETATM    8  C   UNL     1      -7.339   1.917 -31.480  1.00  0.00     0.294 C 
BRANCH   8   9
HETATM    9  C   UNL     1      -6.388   3.025 -31.245  1.00  0.00     0.061 A 
HETATM   10  N   UNL     1      -5.869   3.852 -32.222  1.00  0.00    -0.305 N 
HETATM   11  C   UNL     1      -5.083   4.775 -31.579  1.00  0.00     0.151 A 
HETATM   12  C   UNL     1      -6.004   3.911 -33.600  1.00  0.00     0.118 A 
HETATM   13  C   UNL     1      -4.457   5.814 -32.352  1.00  0.00     0.167 A 
HETATM   14  N   UNL     1      -5.000   4.558 -30.288  1.00  0.00    -0.239 NA
HETATM   15  N   UNL     1      -4.619   5.885 -33.646  1.00  0.00    -0.268 NA
HETATM   16  C   UNL     1      -5.382   4.906 -34.258  1.00  0.00     0.134 A 
HETATM   17  C   UNL     1      -5.759   3.442 -30.081  1.00  0.00     0.146 A 
ENDBRANCH   8   9
ENDBRANCH   2   8
BRANCH   1  18
HETATM   18  C   UNL     1      -9.242   0.516 -33.377  1.00  0.00     0.041 A 
HETATM   19  N   UNL     1     -10.482   0.018 -33.030  1.00  0.00    -0.357 N 
HETATM   20  C   UNL     1     -11.480   0.753 -33.625  1.00  0.00     0.042 A 
HETATM   21  H   UNL     1     -10.663  -0.784 -32.437  1.00  0.00     0.166 HD
HETATM   22  C   UNL     1     -10.868   1.731 -34.405  1.00  0.00    -0.008 A 
HETATM   23  C   UNL     1     -12.871   0.612 -33.550  1.00  0.00     0.030 A 
HETATM   24  C   UNL     1     -11.673   2.611 -35.152  1.00  0.00     0.014 A 
HETATM   25  C   UNL     1      -9.466   1.568 -34.251  1.00  0.00     0.040 A 
HETATM   26  C   UNL     1     -13.065   2.482 -35.090  1.00  0.00     0.001 A 
HETATM   27  C   UNL     1     -13.652   1.496 -34.299  1.00  0.00     0.002 A 
ENDBRANCH   1  18
TORSDOF 3
ENDMDL
