MODEL 1
REMARK VINA RESULT:      -8.5      0.000      0.000
REMARK  5 active torsions:
REMARK  status: ('A' for Active; 'I' for Inactive)
REMARK    1  A    between atoms: C_2  and  O_3 
REMARK    2  A    between atoms: O_3  and  C_4 
REMARK    3  A    between atoms: C_4  and  C_5 
REMARK    4  A    between atoms: C_6  and  N_7 
REMARK    5  A    between atoms: N_8  and  C_9 
ROOT
HETATM    1  C   UNL     1      -4.414   1.869 -31.909  1.00  0.00     0.084 A 
HETATM    2  C   UNL     1      -5.603   1.901 -32.696  1.00  0.00     0.119 A 
HETATM    3  N   UNL     1      -6.029   0.736 -33.296  1.00  0.00    -0.312 N 
HETATM    4  C   UNL     1      -5.284  -0.412 -33.181  1.00  0.00     0.150 A 
HETATM    5  C   UNL     1      -4.113  -0.433 -32.439  1.00  0.00     0.080 A 
HETATM    6  C   UNL     1      -3.360  -1.692 -32.356  1.00  0.00     0.267 A 
HETATM    7  O   UNL     1      -2.319  -1.695 -31.707  1.00  0.00    -0.267 OA
HETATM    8  N   UNL     1      -3.896  -2.785 -33.032  1.00  0.00    -0.272 N 
HETATM    9  C   UNL     1      -5.081  -2.664 -33.751  1.00  0.00     0.145 A 
HETATM   10  N   UNL     1      -5.749  -1.552 -33.837  1.00  0.00    -0.211 NA
HETATM   11  C   UNL     1      -3.216  -3.996 -32.972  1.00  0.00     0.102 A 
HETATM   12  C   UNL     1      -3.667  -5.089 -33.595  1.00  0.00     0.018 A 
HETATM   13  C   UNL     1      -4.886  -5.031 -34.353  1.00  0.00     0.012 A 
HETATM   14  C   UNL     1      -5.590  -3.892 -34.452  1.00  0.00    -0.015 A 
HETATM   15  C   UNL     1      -6.865  -3.786 -35.229  1.00  0.00     0.052 C 
HETATM   16  C   UNL     1      -3.667   0.704 -31.791  1.00  0.00     0.042 A 
ENDROOT
BRANCH   1  17
HETATM   17  C   UNL     1      -3.934   3.117 -31.257  1.00  0.00     0.297 C 
HETATM   18  O   UNL     1      -4.676   3.856 -30.631  1.00  0.00    -0.259 OA
BRANCH  17  19
HETATM   19  O   UNL     1      -2.604   3.258 -31.442  1.00  0.00    -0.318 OA
BRANCH  19  20
HETATM   20  C   UNL     1      -2.169   4.512 -31.999  1.00  0.00     0.174 C 
HETATM   21  C   UNL     1      -2.220   4.441 -33.512  1.00  0.00     0.034 C 
ENDBRANCH  19  20
ENDBRANCH  17  19
ENDBRANCH   1  17
BRANCH   2  22
HETATM   22  N   UNL     1      -6.362   3.071 -32.730  1.00  0.00    -0.384 N 
HETATM   23  H   UNL     1      -6.134   3.747 -31.986  1.00  0.00     0.157 HD
HETATM   24  H   UNL     1      -6.648   3.538 -33.574  1.00  0.00     0.157 HD
ENDBRANCH   2  22
BRANCH   3  25
HETATM   25  C   UNL     1      -7.318   0.659 -34.085  1.00  0.00     0.085 C 
HETATM   26  C   UNL     1      -7.070   0.295 -35.545  1.00  0.00     0.032 C 
HETATM   27  C   UNL     1      -8.354  -0.190 -33.359  1.00  0.00     0.032 C 
ENDBRANCH   3  25
TORSDOF 5
ENDMDL
MODEL 2
REMARK VINA RESULT:      -7.5      2.754      5.608
REMARK  5 active torsions:
REMARK  status: ('A' for Active; 'I' for Inactive)
REMARK    1  A    between atoms: C_2  and  O_3 
REMARK    2  A    between atoms: O_3  and  C_4 
REMARK    3  A    between atoms: C_4  and  C_5 
REMARK    4  A    between atoms: C_6  and  N_7 
REMARK    5  A    between atoms: N_8  and  C_9 
ROOT
HETATM    1  C   UNL     1      -4.054   3.152 -32.561  1.00  0.00     0.084 A 
HETATM    2  C   UNL     1      -4.308   1.847 -32.045  1.00  0.00     0.119 A 
HETATM    3  N   UNL     1      -5.572   1.315 -32.189  1.00  0.00    -0.312 N 
HETATM    4  C   UNL     1      -6.573   2.059 -32.763  1.00  0.00     0.150 A 
HETATM    5  C   UNL     1      -6.330   3.339 -33.237  1.00  0.00     0.080 A 
HETATM    6  C   UNL     1      -7.444   4.085 -33.841  1.00  0.00     0.267 A 
HETATM    7  O   UNL     1      -7.219   5.221 -34.246  1.00  0.00    -0.267 OA
HETATM    8  N   UNL     1      -8.672   3.432 -33.899  1.00  0.00    -0.272 N 
HETATM    9  C   UNL     1      -8.816   2.143 -33.395  1.00  0.00     0.145 A 
HETATM   10  N   UNL     1      -7.839   1.479 -32.852  1.00  0.00    -0.211 NA
HETATM   11  C   UNL     1      -9.748   4.102 -34.469  1.00  0.00     0.102 A 
HETATM   12  C   UNL     1     -10.959   3.542 -34.559  1.00  0.00     0.018 A 
HETATM   13  C   UNL     1     -11.173   2.212 -34.060  1.00  0.00     0.012 A 
HETATM   14  C   UNL     1     -10.176   1.511 -33.496  1.00  0.00    -0.015 A 
HETATM   15  C   UNL     1     -10.354   0.124 -32.964  1.00  0.00     0.052 C 
HETATM   16  C   UNL     1      -5.069   3.899 -33.146  1.00  0.00     0.042 A 
ENDROOT
BRANCH   1  17
HETATM   17  C   UNL     1      -2.699   3.747 -32.412  1.00  0.00     0.297 C 
HETATM   18  O   UNL     1      -2.124   3.804 -31.338  1.00  0.00    -0.259 OA
BRANCH  17  19
HETATM   19  O   UNL     1      -2.235   4.156 -33.612  1.00  0.00    -0.318 OA
BRANCH  19  20
HETATM   20  C   UNL     1      -1.461   5.370 -33.615  1.00  0.00     0.174 C 
HETATM   21  C   UNL     1      -2.294   6.501 -34.186  1.00  0.00     0.034 C 
ENDBRANCH  19  20
ENDBRANCH  17  19
ENDBRANCH   1  17
BRANCH   2  22
HETATM   22  N   UNL     1      -3.247   1.103 -31.529  1.00  0.00    -0.384 N 
HETATM   23  H   UNL     1      -2.985   1.351 -30.564  1.00  0.00     0.157 HD
HETATM   24  H   UNL     1      -3.099   0.124 -31.710  1.00  0.00     0.157 HD
ENDBRANCH   2  22
BRANCH   3  25
HETATM   25  C   UNL     1      -5.911  -0.090 -31.741  1.00  0.00     0.085 C 
HETATM   26  C   UNL     1      -4.995  -1.128 -32.379  1.00  0.00     0.032 C 
HETATM   27  C   UNL     1      -6.038  -0.165 -30.224  1.00  0.00     0.032 C 
ENDBRANCH   3  25
TORSDOF 5
ENDMDL
MODEL 3
REMARK VINA RESULT:      -7.3      2.856      4.883
REMARK  5 active torsions:
REMARK  status: ('A' for Active; 'I' for Inactive)
REMARK    1  A    between atoms: C_2  and  O_3 
REMARK    2  A    between atoms: O_3  and  C_4 
REMARK    3  A    between atoms: C_4  and  C_5 
REMARK    4  A    between atoms: C_6  and  N_7 
REMARK    5  A    between atoms: N_8  and  C_9 
ROOT
HETATM    1  C   UNL     1      -7.725   3.129 -33.673  1.00  0.00     0.084 A 
HETATM    2  C   UNL     1      -6.757   3.366 -32.654  1.00  0.00     0.119 A 
HETATM    3  N   UNL     1      -5.836   2.379 -32.375  1.00  0.00    -0.312 N 
HETATM    4  C   UNL     1      -5.898   1.173 -33.029  1.00  0.00     0.150 A 
HETATM    5  C   UNL     1      -6.860   0.934 -33.999  1.00  0.00     0.080 A 
HETATM    6  C   UNL     1      -6.875  -0.377 -34.662  1.00  0.00     0.267 A 
HETATM    7  O   UNL     1      -7.738  -0.580 -35.510  1.00  0.00    -0.267 OA
HETATM    8  N   UNL     1      -5.900  -1.288 -34.264  1.00  0.00    -0.272 N 
HETATM    9  C   UNL     1      -4.975  -0.953 -33.279  1.00  0.00     0.145 A 
HETATM   10  N   UNL     1      -4.960   0.200 -32.682  1.00  0.00    -0.211 NA
HETATM   11  C   UNL     1      -5.877  -2.537 -34.873  1.00  0.00     0.102 A 
HETATM   12  C   UNL     1      -4.972  -3.465 -34.544  1.00  0.00     0.018 A 
HETATM   13  C   UNL     1      -3.989  -3.181 -33.536  1.00  0.00     0.012 A 
HETATM   14  C   UNL     1      -3.957  -1.995 -32.908  1.00  0.00    -0.015 A 
HETATM   15  C   UNL     1      -2.950  -1.656 -31.854  1.00  0.00     0.052 C 
HETATM   16  C   UNL     1      -7.781   1.910 -34.336  1.00  0.00     0.042 A 
ENDROOT
BRANCH   1  17
HETATM   17  C   UNL     1      -8.731   4.179 -33.986  1.00  0.00     0.297 C 
HETATM   18  O   UNL     1      -8.416   5.296 -34.362  1.00  0.00    -0.259 OA
BRANCH  17  19
HETATM   19  O   UNL     1      -9.980   3.694 -33.821  1.00  0.00    -0.318 OA
BRANCH  19  20
HETATM   20  C   UNL     1     -10.862   3.808 -34.953  1.00  0.00     0.174 C 
HETATM   21  C   UNL     1     -11.791   2.610 -34.996  1.00  0.00     0.034 C 
ENDBRANCH  19  20
ENDBRANCH  17  19
ENDBRANCH   1  17
BRANCH   2  22
HETATM   22  N   UNL     1      -6.690   4.628 -32.062  1.00  0.00    -0.384 N 
HETATM   23  H   UNL     1      -6.606   5.407 -32.733  1.00  0.00     0.157 HD
HETATM   24  H   UNL     1      -7.210   4.901 -31.246  1.00  0.00     0.157 HD
ENDBRANCH   2  22
BRANCH   3  25
HETATM   25  C   UNL     1      -4.727   2.572 -31.364  1.00  0.00     0.085 C 
HETATM   26  C   UNL     1      -3.627   3.486 -31.895  1.00  0.00     0.032 C 
HETATM   27  C   UNL     1      -5.290   2.941 -29.998  1.00  0.00     0.032 C 
ENDBRANCH   3  25
TORSDOF 5
ENDMDL
MODEL 4
REMARK VINA RESULT:      -7.2      3.601      6.730
REMARK  5 active torsions:
REMARK  status: ('A' for Active; 'I' for Inactive)
REMARK    1  A    between atoms: C_2  and  O_3 
REMARK    2  A    between atoms: O_3  and  C_4 
REMARK    3  A    between atoms: C_4  and  C_5 
REMARK    4  A    between atoms: C_6  and  N_7 
REMARK    5  A    between atoms: N_8  and  C_9 
ROOT
HETATM    1  C   UNL     1      -6.623   0.863 -31.822  1.00  0.00     0.084 A 
HETATM    2  C   UNL     1      -6.253   2.153 -32.303  1.00  0.00     0.119 A 
HETATM    3  N   UNL     1      -7.193   2.901 -32.978  1.00  0.00    -0.312 N 
HETATM    4  C   UNL     1      -8.438   2.380 -33.231  1.00  0.00     0.150 A 
HETATM    5  C   UNL     1      -8.786   1.113 -32.788  1.00  0.00     0.080 A 
HETATM    6  C   UNL     1     -10.133   0.611 -33.091  1.00  0.00     0.267 A 
HETATM    7  O   UNL     1     -10.425  -0.516 -32.704  1.00  0.00    -0.267 OA
HETATM    8  N   UNL     1     -10.972   1.465 -33.802  1.00  0.00    -0.272 N 
HETATM    9  C   UNL     1     -10.529   2.722 -34.203  1.00  0.00     0.145 A 
HETATM   10  N   UNL     1      -9.337   3.171 -33.947  1.00  0.00    -0.211 NA
HETATM   11  C   UNL     1     -12.257   1.029 -34.102  1.00  0.00     0.102 A 
HETATM   12  C   UNL     1     -13.119   1.791 -34.783  1.00  0.00     0.018 A 
HETATM   13  C   UNL     1     -12.725   3.101 -35.223  1.00  0.00     0.012 A 
HETATM   14  C   UNL     1     -11.498   3.581 -34.968  1.00  0.00    -0.015 A 
HETATM   15  C   UNL     1     -11.045   4.939 -35.407  1.00  0.00     0.052 C 
HETATM   16  C   UNL     1      -7.886   0.341 -32.075  1.00  0.00     0.042 A 
ENDROOT
BRANCH   1  17
HETATM   17  C   UNL     1      -5.622   0.038 -31.095  1.00  0.00     0.297 C 
HETATM   18  O   UNL     1      -5.143   0.380 -30.027  1.00  0.00    -0.259 OA
BRANCH  17  19
HETATM   19  O   UNL     1      -5.379  -1.105 -31.772  1.00  0.00    -0.318 OA
BRANCH  19  20
HETATM   20  C   UNL     1      -4.473  -1.004 -32.887  1.00  0.00     0.174 C 
HETATM   21  C   UNL     1      -4.933  -1.926 -33.999  1.00  0.00     0.034 C 
ENDBRANCH  19  20
ENDBRANCH  17  19
ENDBRANCH   1  17
BRANCH   2  22
HETATM   22  N   UNL     1      -5.001   2.668 -31.967  1.00  0.00    -0.384 N 
HETATM   23  H   UNL     1      -4.215   2.025 -32.145  1.00  0.00     0.157 HD
HETATM   24  H   UNL     1      -4.727   3.628 -32.100  1.00  0.00     0.157 HD
ENDBRANCH   2  22
BRANCH   3  25
HETATM   25  C   UNL     1      -6.912   4.309 -33.457  1.00  0.00     0.085 C 
HETATM   26  C   UNL     1      -6.991   5.322 -32.320  1.00  0.00     0.032 C 
HETATM   27  C   UNL     1      -5.643   4.358 -34.298  1.00  0.00     0.032 C 
ENDBRANCH   3  25
TORSDOF 5
ENDMDL
MODEL 5
REMARK VINA RESULT:      -7.2      2.608      6.838
REMARK  5 active torsions:
REMARK  status: ('A' for Active; 'I' for Inactive)
REMARK    1  A    between atoms: C_2  and  O_3 
REMARK    2  A    between atoms: O_3  and  C_4 
REMARK    3  A    between atoms: C_4  and  C_5 
REMARK    4  A    between atoms: C_6  and  N_7 
REMARK    5  A    between atoms: N_8  and  C_9 
ROOT
HETATM    1  C   UNL     1      -4.759  -1.069 -33.354  1.00  0.00     0.084 A 
HETATM    2  C   UNL     1      -3.941  -0.091 -32.716  1.00  0.00     0.119 A 
HETATM    3  N   UNL     1      -4.443   1.183 -32.552  1.00  0.00    -0.312 N 
HETATM    4  C   UNL     1      -5.681   1.507 -33.050  1.00  0.00     0.150 A 
HETATM    5  C   UNL     1      -6.462   0.561 -33.695  1.00  0.00     0.080 A 
HETATM    6  C   UNL     1      -7.777   0.970 -34.207  1.00  0.00     0.267 A 
HETATM    7  O   UNL     1      -8.454   0.126 -34.786  1.00  0.00    -0.267 OA
HETATM    8  N   UNL     1      -8.146   2.295 -33.991  1.00  0.00    -0.272 N 
HETATM    9  C   UNL     1      -7.290   3.171 -33.329  1.00  0.00     0.145 A 
HETATM   10  N   UNL     1      -6.122   2.820 -32.881  1.00  0.00    -0.211 NA
HETATM   11  C   UNL     1      -9.386   2.718 -34.453  1.00  0.00     0.102 A 
HETATM   12  C   UNL     1      -9.809   3.976 -34.285  1.00  0.00     0.018 A 
HETATM   13  C   UNL     1      -8.974   4.929 -33.608  1.00  0.00     0.012 A 
HETATM   14  C   UNL     1      -7.764   4.584 -33.138  1.00  0.00    -0.015 A 
HETATM   15  C   UNL     1      -6.862   5.544 -32.427  1.00  0.00     0.052 C 
HETATM   16  C   UNL     1      -6.013  -0.739 -33.851  1.00  0.00     0.042 A 
ENDROOT
BRANCH   1  17
HETATM   17  C   UNL     1      -4.235  -2.448 -33.545  1.00  0.00     0.297 C 
HETATM   18  O   UNL     1      -3.562  -3.016 -32.702  1.00  0.00    -0.259 OA
BRANCH  17  19
HETATM   19  O   UNL     1      -4.642  -2.941 -34.735  1.00  0.00    -0.318 OA
BRANCH  19  20
HETATM   20  C   UNL     1      -5.194  -4.270 -34.719  1.00  0.00     0.174 C 
HETATM   21  C   UNL     1      -6.650  -4.221 -35.139  1.00  0.00     0.034 C 
ENDBRANCH  19  20
ENDBRANCH  17  19
ENDBRANCH   1  17
BRANCH   2  22
HETATM   22  N   UNL     1      -2.719  -0.481 -32.169  1.00  0.00    -0.384 N 
HETATM   23  H   UNL     1      -2.355   0.159 -31.447  1.00  0.00     0.157 HD
HETATM   24  H   UNL     1      -2.460  -1.434 -31.979  1.00  0.00     0.157 HD
ENDBRANCH   2  22
BRANCH   3  25
HETATM   25  C   UNL     1      -3.676   2.263 -31.820  1.00  0.00     0.085 C 
HETATM   26  C   UNL     1      -3.100   3.300 -32.778  1.00  0.00     0.032 C 
HETATM   27  C   UNL     1      -4.490   2.818 -30.657  1.00  0.00     0.032 C 
ENDBRANCH   3  25
TORSDOF 5
ENDMDL
MODEL 6
REMARK VINA RESULT:      -7.1      1.994      3.472
REMARK  5 active torsions:
REMARK  status: ('A' for Active; 'I' for Inactive)
REMARK    1  A    between atoms: C_2  and  O_3 
REMARK    2  A    between atoms: O_3  and  C_4 
REMARK    3  A    between atoms: C_4  and  C_5 
REMARK    4  A    between atoms: C_6  and  N_7 
REMARK    5  A    between atoms: N_8  and  C_9 
ROOT
HETATM    1  C   UNL     1      -3.479   4.190 -31.858  1.00  0.00     0.084 A 
HETATM    2  C   UNL     1      -4.796   4.722 -31.981  1.00  0.00     0.119 A 
HETATM    3  N   UNL     1      -5.818   3.877 -32.357  1.00  0.00    -0.312 N 
HETATM    4  C   UNL     1      -5.551   2.565 -32.664  1.00  0.00     0.150 A 
HETATM    5  C   UNL     1      -4.264   2.058 -32.573  1.00  0.00     0.080 A 
HETATM    6  C   UNL     1      -4.042   0.646 -32.917  1.00  0.00     0.267 A 
HETATM    7  O   UNL     1      -2.896   0.212 -32.843  1.00  0.00    -0.267 OA
HETATM    8  N   UNL     1      -5.161  -0.085 -33.304  1.00  0.00    -0.272 N 
HETATM    9  C   UNL     1      -6.416   0.516 -33.364  1.00  0.00     0.145 A 
HETATM   10  N   UNL     1      -6.620   1.765 -33.070  1.00  0.00    -0.211 NA
HETATM   11  C   UNL     1      -4.994  -1.425 -33.630  1.00  0.00     0.102 A 
HETATM   12  C   UNL     1      -6.021  -2.192 -34.012  1.00  0.00     0.018 A 
HETATM   13  C   UNL     1      -7.342  -1.632 -34.092  1.00  0.00     0.012 A 
HETATM   14  C   UNL     1      -7.572  -0.344 -33.792  1.00  0.00    -0.015 A 
HETATM   15  C   UNL     1      -8.930   0.280 -33.861  1.00  0.00     0.052 C 
HETATM   16  C   UNL     1      -3.214   2.861 -32.165  1.00  0.00     0.042 A 
ENDROOT
BRANCH   1  17
HETATM   17  C   UNL     1      -2.362   5.087 -31.458  1.00  0.00     0.297 C 
HETATM   18  O   UNL     1      -2.414   5.796 -30.467  1.00  0.00    -0.259 OA
BRANCH  17  19
HETATM   19  O   UNL     1      -1.329   4.958 -32.319  1.00  0.00    -0.318 OA
BRANCH  19  20
HETATM   20  C   UNL     1      -1.220   5.967 -33.339  1.00  0.00     0.174 C 
HETATM   21  C   UNL     1      -1.435   5.338 -34.701  1.00  0.00     0.034 C 
ENDBRANCH  19  20
ENDBRANCH  17  19
ENDBRANCH   1  17
BRANCH   2  22
HETATM   22  N   UNL     1      -5.033   6.042 -31.595  1.00  0.00    -0.384 N 
HETATM   23  H   UNL     1      -5.522   6.610 -32.304  1.00  0.00     0.157 HD
HETATM   24  H   UNL     1      -5.283   6.325 -30.662  1.00  0.00     0.157 HD
ENDBRANCH   2  22
BRANCH   3  25
HETATM   25  C   UNL     1      -7.258   4.336 -32.438  1.00  0.00     0.085 C 
HETATM   26  C   UNL     1      -7.811   4.716 -31.069  1.00  0.00     0.032 C 
HETATM   27  C   UNL     1      -7.438   5.377 -33.536  1.00  0.00     0.032 C 
ENDBRANCH   3  25
TORSDOF 5
ENDMDL
MODEL 7
REMARK VINA RESULT:      -7.0      3.432      5.738
REMARK  5 active torsions:
REMARK  status: ('A' for Active; 'I' for Inactive)
REMARK    1  A    between atoms: C_2  and  O_3 
REMARK    2  A    between atoms: O_3  and  C_4 
REMARK    3  A    between atoms: C_4  and  C_5 
REMARK    4  A    between atoms: C_6  and  N_7 
REMARK    5  A    between atoms: N_8  and  C_9 
ROOT
HETATM    1  C   UNL     1      -9.339   1.974 -34.000  1.00  0.00     0.084 A 
HETATM    2  C   UNL     1      -8.754   2.739 -32.948  1.00  0.00     0.119 A 
HETATM    3  N   UNL     1      -7.560   2.313 -32.407  1.00  0.00    -0.312 N 
HETATM    4  C   UNL     1      -6.986   1.142 -32.837  1.00  0.00     0.150 A 
HETATM    5  C   UNL     1      -7.571   0.386 -33.840  1.00  0.00     0.080 A 
HETATM    6  C   UNL     1      -6.909  -0.858 -34.256  1.00  0.00     0.267 A 
HETATM    7  O   UNL     1      -7.443  -1.526 -35.136  1.00  0.00    -0.267 OA
HETATM    8  N   UNL     1      -5.720  -1.178 -33.606  1.00  0.00    -0.272 N 
HETATM    9  C   UNL     1      -5.210  -0.351 -32.610  1.00  0.00     0.145 A 
HETATM   10  N   UNL     1      -5.794   0.746 -32.230  1.00  0.00    -0.211 NA
HETATM   11  C   UNL     1      -5.058  -2.344 -33.977  1.00  0.00     0.102 A 
HETATM   12  C   UNL     1      -3.913  -2.718 -33.398  1.00  0.00     0.018 A 
HETATM   13  C   UNL     1      -3.333  -1.907 -32.364  1.00  0.00     0.012 A 
HETATM   14  C   UNL     1      -3.921  -0.770 -31.959  1.00  0.00    -0.015 A 
HETATM   15  C   UNL     1      -3.353   0.106 -30.886  1.00  0.00     0.052 C 
HETATM   16  C   UNL     1      -8.751   0.793 -34.436  1.00  0.00     0.042 A 
ENDROOT
BRANCH   1  17
HETATM   17  C   UNL     1     -10.629   2.414 -34.594  1.00  0.00     0.297 C 
HETATM   18  O   UNL     1     -10.784   3.523 -35.077  1.00  0.00    -0.259 OA
BRANCH  17  19
HETATM   19  O   UNL     1     -11.534   1.413 -34.537  1.00  0.00    -0.318 OA
BRANCH  19  20
HETATM   20  C   UNL     1     -12.716   1.668 -33.756  1.00  0.00     0.174 C 
HETATM   21  C   UNL     1     -13.879   0.875 -34.321  1.00  0.00     0.034 C 
ENDBRANCH  19  20
ENDBRANCH  17  19
ENDBRANCH   1  17
BRANCH   2  22
HETATM   22  N   UNL     1      -9.337   3.954 -32.588  1.00  0.00    -0.384 N 
HETATM   23  H   UNL     1      -9.553   4.573 -33.383  1.00  0.00     0.157 HD
HETATM   24  H   UNL     1     -10.007   4.065 -31.845  1.00  0.00     0.157 HD
ENDBRANCH   2  22
BRANCH   3  25
HETATM   25  C   UNL     1      -6.830   3.102 -31.341  1.00  0.00     0.085 C 
HETATM   26  C   UNL     1      -6.322   4.439 -31.871  1.00  0.00     0.032 C 
HETATM   27  C   UNL     1      -7.645   3.167 -30.055  1.00  0.00     0.032 C 
ENDBRANCH   3  25
TORSDOF 5
ENDMDL
MODEL 8
REMARK VINA RESULT:      -7.0      1.740      2.026
REMARK  5 active torsions:
REMARK  status: ('A' for Active; 'I' for Inactive)
REMARK    1  A    between atoms: C_2  and  O_3 
REMARK    2  A    between atoms: O_3  and  C_4 
REMARK    3  A    between atoms: C_4  and  C_5 
REMARK    4  A    between atoms: C_6  and  N_7 
REMARK    5  A    between atoms: N_8  and  C_9 
ROOT
HETATM    1  C   UNL     1      -6.371   2.610 -30.887  1.00  0.00     0.084 A 
HETATM    2  C   UNL     1      -7.438   2.416 -31.812  1.00  0.00     0.119 A 
HETATM    3  N   UNL     1      -7.449   1.270 -32.577  1.00  0.00    -0.312 N 
HETATM    4  C   UNL     1      -6.415   0.370 -32.486  1.00  0.00     0.150 A 
HETATM    5  C   UNL     1      -5.364   0.575 -31.607  1.00  0.00     0.080 A 
HETATM    6  C   UNL     1      -4.287  -0.423 -31.557  1.00  0.00     0.267 A 
HETATM    7  O   UNL     1      -3.356  -0.224 -30.783  1.00  0.00    -0.267 OA
HETATM    8  N   UNL     1      -4.416  -1.521 -32.403  1.00  0.00    -0.272 N 
HETATM    9  C   UNL     1      -5.513  -1.639 -33.252  1.00  0.00     0.145 A 
HETATM   10  N   UNL     1      -6.465  -0.756 -33.309  1.00  0.00    -0.211 NA
HETATM   11  C   UNL     1      -3.422  -2.492 -32.380  1.00  0.00     0.102 A 
HETATM   12  C   UNL     1      -3.474  -3.574 -33.164  1.00  0.00     0.018 A 
HETATM   13  C   UNL     1      -4.581  -3.755 -34.062  1.00  0.00     0.012 A 
HETATM   14  C   UNL     1      -5.574  -2.855 -34.134  1.00  0.00    -0.015 A 
HETATM   15  C   UNL     1      -6.746  -3.004 -35.052  1.00  0.00     0.052 C 
HETATM   16  C   UNL     1      -5.331   1.695 -30.794  1.00  0.00     0.042 A 
ENDROOT
BRANCH   1  17
HETATM   17  C   UNL     1      -6.339   3.843 -30.055  1.00  0.00     0.297 C 
HETATM   18  O   UNL     1      -7.270   4.176 -29.341  1.00  0.00    -0.259 OA
BRANCH  17  19
HETATM   19  O   UNL     1      -5.152   4.471 -30.198  1.00  0.00    -0.318 OA
BRANCH  19  20
HETATM   20  C   UNL     1      -5.186   5.758 -30.843  1.00  0.00     0.174 C 
HETATM   21  C   UNL     1      -4.930   5.588 -32.327  1.00  0.00     0.034 C 
ENDBRANCH  19  20
ENDBRANCH  17  19
ENDBRANCH   1  17
BRANCH   2  22
HETATM   22  N   UNL     1      -8.499   3.322 -31.824  1.00  0.00    -0.384 N 
HETATM   23  H   UNL     1      -9.263   3.090 -31.171  1.00  0.00     0.157 HD
HETATM   24  H   UNL     1      -8.394   4.318 -31.927  1.00  0.00     0.157 HD
ENDBRANCH   2  22
BRANCH   3  25
HETATM   25  C   UNL     1      -8.580   0.944 -33.528  1.00  0.00     0.085 C 
HETATM   26  C   UNL     1      -8.069   0.607 -34.925  1.00  0.00     0.032 C 
HETATM   27  C   UNL     1      -9.538  -0.068 -32.913  1.00  0.00     0.032 C 
ENDBRANCH   3  25
TORSDOF 5
ENDMDL
MODEL 9
REMARK VINA RESULT:      -7.0      3.596      7.612
REMARK  5 active torsions:
REMARK  status: ('A' for Active; 'I' for Inactive)
REMARK    1  A    between atoms: C_2  and  O_3 
REMARK    2  A    between atoms: O_3  and  C_4 
REMARK    3  A    between atoms: C_4  and  C_5 
REMARK    4  A    between atoms: C_6  and  N_7 
REMARK    5  A    between atoms: N_8  and  C_9 
ROOT
HETATM    1  C   UNL     1      -6.758  -0.734 -33.469  1.00  0.00     0.084 A 
HETATM    2  C   UNL     1      -6.001  -0.142 -32.416  1.00  0.00     0.119 A 
HETATM    3  N   UNL     1      -6.534   0.938 -31.745  1.00  0.00    -0.312 N 
HETATM    4  C   UNL     1      -7.743   1.462 -32.131  1.00  0.00     0.150 A 
HETATM    5  C   UNL     1      -8.464   0.902 -33.175  1.00  0.00     0.080 A 
HETATM    6  C   UNL     1      -9.751   1.510 -33.542  1.00  0.00     0.267 A 
HETATM    7  O   UNL     1     -10.374   1.013 -34.474  1.00  0.00    -0.267 OA
HETATM    8  N   UNL     1     -10.156   2.612 -32.793  1.00  0.00    -0.272 N 
HETATM    9  C   UNL     1      -9.360   3.101 -31.761  1.00  0.00     0.145 A 
HETATM   10  N   UNL     1      -8.217   2.575 -31.436  1.00  0.00    -0.211 NA
HETATM   11  C   UNL     1     -11.371   3.210 -33.105  1.00  0.00     0.102 A 
HETATM   12  C   UNL     1     -11.827   4.272 -32.432  1.00  0.00     0.018 A 
HETATM   13  C   UNL     1     -11.054   4.824 -31.355  1.00  0.00     0.012 A 
HETATM   14  C   UNL     1      -9.871   4.294 -31.004  1.00  0.00    -0.015 A 
HETATM   15  C   UNL     1      -9.033   4.835 -29.887  1.00  0.00     0.052 C 
HETATM   16  C   UNL     1      -7.984  -0.204 -33.853  1.00  0.00     0.042 A 
ENDROOT
BRANCH   1  17
HETATM   17  C   UNL     1      -6.199  -1.896 -34.208  1.00  0.00     0.297 C 
HETATM   18  O   UNL     1      -5.013  -1.992 -34.478  1.00  0.00    -0.259 OA
BRANCH  17  19
HETATM   19  O   UNL     1      -7.175  -2.789 -34.481  1.00  0.00    -0.318 OA
BRANCH  19  20
HETATM   20  C   UNL     1      -6.821  -4.179 -34.353  1.00  0.00     0.174 C 
HETATM   21  C   UNL     1      -6.422  -4.728 -35.708  1.00  0.00     0.034 C 
ENDBRANCH  19  20
ENDBRANCH  17  19
ENDBRANCH   1  17
BRANCH   2  22
HETATM   22  N   UNL     1      -4.810  -0.746 -32.014  1.00  0.00    -0.384 N 
HETATM   23  H   UNL     1      -4.320  -0.255 -31.252  1.00  0.00     0.157 HD
HETATM   24  H   UNL     1      -4.668  -1.741 -31.959  1.00  0.00     0.157 HD
ENDBRANCH   2  22
BRANCH   3  25
HETATM   25  C   UNL     1      -5.836   1.581 -30.566  1.00  0.00     0.085 C 
HETATM   26  C   UNL     1      -5.733   0.630 -29.378  1.00  0.00     0.032 C 
HETATM   27  C   UNL     1      -4.533   2.243 -30.997  1.00  0.00     0.032 C 
ENDBRANCH   3  25
TORSDOF 5
ENDMDL
MODEL 10
REMARK VINA RESULT:      -6.9      4.150      6.854
REMARK  5 active torsions:
REMARK  status: ('A' for Active; 'I' for Inactive)
REMARK    1  A    between atoms: C_2  and  O_3 
REMARK    2  A    between atoms: O_3  and  C_4 
REMARK    3  A    between atoms: C_4  and  C_5 
REMARK    4  A    between atoms: C_6  and  N_7 
REMARK    5  A    between atoms: N_8  and  C_9 
ROOT
HETATM    1  C   UNL     1     -10.597   1.793 -34.030  1.00  0.00     0.084 A 
HETATM    2  C   UNL     1     -10.325   2.886 -33.156  1.00  0.00     0.119 A 
HETATM    3  N   UNL     1      -9.051   3.025 -32.648  1.00  0.00    -0.312 N 
HETATM    4  C   UNL     1      -8.088   2.089 -32.935  1.00  0.00     0.150 A 
HETATM    5  C   UNL     1      -8.363   1.011 -33.762  1.00  0.00     0.080 A 
HETATM    6  C   UNL     1      -7.290   0.043 -34.030  1.00  0.00     0.267 A 
HETATM    7  O   UNL     1      -7.549  -0.914 -34.754  1.00  0.00    -0.267 OA
HETATM    8  N   UNL     1      -6.059   0.295 -33.431  1.00  0.00    -0.272 N 
HETATM    9  C   UNL     1      -5.881   1.409 -32.615  1.00  0.00     0.145 A 
HETATM   10  N   UNL     1      -6.826   2.265 -32.366  1.00  0.00    -0.211 NA
HETATM   11  C   UNL     1      -5.017  -0.594 -33.666  1.00  0.00     0.102 A 
HETATM   12  C   UNL     1      -3.806  -0.420 -33.125  1.00  0.00     0.018 A 
HETATM   13  C   UNL     1      -3.557   0.711 -32.276  1.00  0.00     0.012 A 
HETATM   14  C   UNL     1      -4.520   1.606 -32.007  1.00  0.00    -0.015 A 
HETATM   15  C   UNL     1      -4.305   2.799 -31.129  1.00  0.00     0.052 C 
HETATM   16  C   UNL     1      -9.618   0.852 -34.322  1.00  0.00     0.042 A 
ENDROOT
BRANCH   1  17
HETATM   17  C   UNL     1     -11.965   1.623 -34.586  1.00  0.00     0.297 C 
HETATM   18  O   UNL     1     -12.209   1.743 -35.775  1.00  0.00    -0.259 OA
BRANCH  17  19
HETATM   19  O   UNL     1     -12.832   1.298 -33.601  1.00  0.00    -0.318 OA
BRANCH  19  20
HETATM   20  C   UNL     1     -13.698   0.178 -33.860  1.00  0.00     0.174 C 
HETATM   21  C   UNL     1     -15.067   0.680 -34.276  1.00  0.00     0.034 C 
ENDBRANCH  19  20
ENDBRANCH  17  19
ENDBRANCH   1  17
BRANCH   2  22
HETATM   22  N   UNL     1     -11.314   3.848 -32.945  1.00  0.00    -0.384 N 
HETATM   23  H   UNL     1     -12.237   3.599 -33.331  1.00  0.00     0.157 HD
HETATM   24  H   UNL     1     -11.403   4.396 -32.106  1.00  0.00     0.157 HD
ENDBRANCH   2  22
BRANCH   3  25
HETATM   25  C   UNL     1      -8.653   4.196 -31.775  1.00  0.00     0.085 C 
HETATM   26  C   UNL     1      -8.689   5.514 -32.541  1.00  0.00     0.032 C 
HETATM   27  C   UNL     1      -9.414   4.177 -30.456  1.00  0.00     0.032 C 
ENDBRANCH   3  25
TORSDOF 5
ENDMDL
