MODEL 1
REMARK VINA RESULT:      -8.7      0.000      0.000
REMARK  5 active torsions:
REMARK  status: ('A' for Active; 'I' for Inactive)
REMARK    1  A    between atoms: C_2  and  C_3 
REMARK    2  A    between atoms: C_7  and  N_8 
REMARK    3  A    between atoms: C_13  and  N_14 
REMARK       I    between atoms: N_14  and  C_15 
REMARK    4  A    between atoms: C_15  and  C_16 
REMARK       I    between atoms: C_16  and  N_17 
REMARK    5  A    between atoms: N_17  and  C_18 
ROOT
HETATM    1  N   UNL     1      -6.650  -1.133 -34.063  1.00  0.00    -0.045 N 
HETATM    2  N   UNL     1      -7.121  -2.313 -34.558  1.00  0.00    -0.156 NA
HETATM    3  C   UNL     1      -6.036  -3.090 -34.646  1.00  0.00     0.055 A 
HETATM    4  C   UNL     1      -6.137  -4.479 -35.160  1.00  0.00     0.072 C 
HETATM    5  C   UNL     1      -4.872  -2.422 -34.203  1.00  0.00     0.079 A 
HETATM    6  C   UNL     1      -5.283  -1.161 -33.834  1.00  0.00     0.152 A 
ENDROOT
BRANCH   6   7
HETATM    7  N   UNL     1      -4.518  -0.106 -33.341  1.00  0.00    -0.303 N 
HETATM    8  C   UNL     1      -4.452   0.261 -31.960  1.00  0.00     0.315 C 
HETATM    9  O   UNL     1      -5.114  -0.282 -31.090  1.00  0.00    -0.262 OA
HETATM   10  H   UNL     1      -3.965   0.445 -34.008  1.00  0.00     0.171 HD
BRANCH   8  11
HETATM   11  C   UNL     1      -3.478   1.405 -31.623  1.00  0.00     0.310 C 
HETATM   12  N   UNL     1      -3.807   2.609 -32.210  1.00  0.00    -0.348 N 
HETATM   13  H   UNL     1      -4.589   2.610 -32.862  1.00  0.00     0.163 HD
HETATM   14  O   UNL     1      -2.531   1.177 -30.884  1.00  0.00    -0.262 OA
BRANCH  12  15
HETATM   15  C   UNL     1      -3.042   3.840 -32.045  1.00  0.00     0.085 C 
HETATM   16  C   UNL     1      -3.986   4.955 -31.569  1.00  0.00     0.034 C 
HETATM   17  C   UNL     1      -3.319   6.342 -31.455  1.00  0.00    -0.045 C 
HETATM   18  C   UNL     1      -2.346   6.378 -30.262  1.00  0.00     0.015 C 
HETATM   19  C   UNL     1      -4.412   7.400 -31.207  1.00  0.00     0.015 C 
HETATM   20  C   UNL     1      -2.585   6.681 -32.772  1.00  0.00     0.013 C 
HETATM   21  C   UNL     1      -1.622   5.579 -33.238  1.00  0.00    -0.016 C 
HETATM   22  C   UNL     1      -0.984   5.961 -34.574  1.00  0.00     0.010 C 
HETATM   23  C   UNL     1      -2.345   4.229 -33.353  1.00  0.00     0.029 C 
ENDBRANCH  12  15
ENDBRANCH   8  11
ENDBRANCH   6   7
BRANCH   1  24
HETATM   24  C   UNL     1      -7.529  -0.065 -33.835  1.00  0.00     0.732 A 
HETATM   25  N   UNL     1      -8.783  -0.501 -33.535  1.00  0.00    -0.152 N 
HETATM   26  C   UNL     1      -9.788   0.368 -33.257  1.00  0.00     0.268 A 
HETATM   27  H   UNL     1      -8.981  -1.496 -33.500  1.00  0.00     0.188 HD
HETATM   28  C   UNL     1      -9.419   1.811 -33.324  1.00  0.00     0.035 A 
HETATM   29  O   UNL     1     -10.914  -0.017 -32.969  1.00  0.00    -0.267 OA
HETATM   30  C   UNL     1      -8.140   2.117 -33.645  1.00  0.00     0.061 A 
HETATM   31  N   UNL     1      -7.159   1.173 -33.903  1.00  0.00    -0.067 NA
HETATM   32  C   UNL     1      -7.636   3.536 -33.730  1.00  0.00     0.072 C 
BRANCH  28  33
HETATM   33  C   UNL     1     -10.542   2.781 -33.063  1.00  0.00     0.042 C 
HETATM   34  C   UNL     1     -11.281   3.155 -34.341  1.00  0.00     0.010 C 
ENDBRANCH  28  33
ENDBRANCH   1  24
TORSDOF 5
ENDMDL
MODEL 2
REMARK VINA RESULT:      -8.7      1.830      4.524
REMARK  5 active torsions:
REMARK  status: ('A' for Active; 'I' for Inactive)
REMARK    1  A    between atoms: C_2  and  C_3 
REMARK    2  A    between atoms: C_7  and  N_8 
REMARK    3  A    between atoms: C_13  and  N_14 
REMARK       I    between atoms: N_14  and  C_15 
REMARK    4  A    between atoms: C_15  and  C_16 
REMARK       I    between atoms: C_16  and  N_17 
REMARK    5  A    between atoms: N_17  and  C_18 
ROOT
HETATM    1  N   UNL     1      -7.292   0.041 -33.174  1.00  0.00    -0.045 N 
HETATM    2  N   UNL     1      -8.599  -0.306 -33.355  1.00  0.00    -0.156 NA
HETATM    3  C   UNL     1      -9.274   0.829 -33.145  1.00  0.00     0.055 A 
HETATM    4  C   UNL     1     -10.755   0.861 -33.243  1.00  0.00     0.072 C 
HETATM    5  C   UNL     1      -8.411   1.906 -32.840  1.00  0.00     0.079 A 
HETATM    6  C   UNL     1      -7.138   1.382 -32.859  1.00  0.00     0.152 A 
ENDROOT
BRANCH   6   7
HETATM    7  N   UNL     1      -5.928   2.027 -32.609  1.00  0.00    -0.303 N 
HETATM    8  C   UNL     1      -5.365   2.198 -31.305  1.00  0.00     0.315 C 
HETATM    9  O   UNL     1      -5.927   1.847 -30.280  1.00  0.00    -0.262 OA
HETATM   10  H   UNL     1      -5.405   2.403 -33.408  1.00  0.00     0.171 HD
BRANCH   8  11
HETATM   11  C   UNL     1      -3.977   2.864 -31.265  1.00  0.00     0.310 C 
HETATM   12  N   UNL     1      -4.020   4.243 -31.275  1.00  0.00    -0.348 N 
HETATM   13  H   UNL     1      -4.932   4.679 -31.394  1.00  0.00     0.163 HD
HETATM   14  O   UNL     1      -2.982   2.156 -31.216  1.00  0.00    -0.262 OA
BRANCH  12  15
HETATM   15  C   UNL     1      -2.841   5.102 -31.242  1.00  0.00     0.085 C 
HETATM   16  C   UNL     1      -3.180   6.386 -30.470  1.00  0.00     0.034 C 
HETATM   17  C   UNL     1      -2.044   7.431 -30.451  1.00  0.00    -0.045 C 
HETATM   18  C   UNL     1      -0.886   6.955 -29.554  1.00  0.00     0.015 C 
HETATM   19  C   UNL     1      -2.589   8.747 -29.864  1.00  0.00     0.015 C 
HETATM   20  C   UNL     1      -1.549   7.693 -31.892  1.00  0.00     0.013 C 
HETATM   21  C   UNL     1      -1.186   6.412 -32.659  1.00  0.00    -0.016 C 
HETATM   22  C   UNL     1      -0.767   6.750 -34.089  1.00  0.00     0.010 C 
HETATM   23  C   UNL     1      -2.360   5.422 -32.661  1.00  0.00     0.029 C 
ENDBRANCH  12  15
ENDBRANCH   8  11
ENDBRANCH   6   7
BRANCH   1  24
HETATM   24  C   UNL     1      -6.282  -0.920 -33.321  1.00  0.00     0.732 A 
HETATM   25  N   UNL     1      -6.582  -1.819 -34.298  1.00  0.00    -0.152 N 
HETATM   26  C   UNL     1      -5.729  -2.825 -34.621  1.00  0.00     0.268 A 
HETATM   27  H   UNL     1      -7.452  -1.738 -34.815  1.00  0.00     0.188 HD
HETATM   28  C   UNL     1      -4.471  -2.875 -33.822  1.00  0.00     0.035 A 
HETATM   29  O   UNL     1      -5.984  -3.627 -35.510  1.00  0.00    -0.267 OA
HETATM   30  C   UNL     1      -4.296  -1.930 -32.870  1.00  0.00     0.061 A 
HETATM   31  N   UNL     1      -5.206  -0.920 -32.603  1.00  0.00    -0.067 NA
HETATM   32  C   UNL     1      -3.061  -1.860 -32.005  1.00  0.00     0.072 C 
BRANCH  28  33
HETATM   33  C   UNL     1      -3.544  -4.017 -34.144  1.00  0.00     0.042 C 
HETATM   34  C   UNL     1      -3.875  -5.266 -33.338  1.00  0.00     0.010 C 
ENDBRANCH  28  33
ENDBRANCH   1  24
TORSDOF 5
ENDMDL
MODEL 3
REMARK VINA RESULT:      -8.6      2.278      7.635
REMARK  5 active torsions:
REMARK  status: ('A' for Active; 'I' for Inactive)
REMARK    1  A    between atoms: C_2  and  C_3 
REMARK    2  A    between atoms: C_7  and  N_8 
REMARK    3  A    between atoms: C_13  and  N_14 
REMARK       I    between atoms: N_14  and  C_15 
REMARK    4  A    between atoms: C_15  and  C_16 
REMARK       I    between atoms: C_16  and  N_17 
REMARK    5  A    between atoms: N_17  and  C_18 
ROOT
HETATM    1  N   UNL     1      -4.621   2.527 -32.473  1.00  0.00    -0.045 N 
HETATM    2  N   UNL     1      -3.281   2.739 -32.341  1.00  0.00    -0.156 NA
HETATM    3  C   UNL     1      -3.190   3.973 -31.833  1.00  0.00     0.055 A 
HETATM    4  C   UNL     1      -1.866   4.582 -31.549  1.00  0.00     0.072 C 
HETATM    5  C   UNL     1      -4.463   4.552 -31.628  1.00  0.00     0.079 A 
HETATM    6  C   UNL     1      -5.375   3.610 -32.047  1.00  0.00     0.152 A 
ENDROOT
BRANCH   6   7
HETATM    7  N   UNL     1      -6.765   3.693 -32.068  1.00  0.00    -0.303 N 
HETATM    8  C   UNL     1      -7.618   3.127 -31.068  1.00  0.00     0.315 C 
HETATM    9  O   UNL     1      -7.204   2.461 -30.132  1.00  0.00    -0.262 OA
HETATM   10  H   UNL     1      -7.210   4.191 -32.847  1.00  0.00     0.171 HD
BRANCH   8  11
HETATM   11  C   UNL     1      -9.121   3.410 -31.240  1.00  0.00     0.310 C 
HETATM   12  N   UNL     1      -9.619   3.049 -32.476  1.00  0.00    -0.348 N 
HETATM   13  H   UNL     1      -8.949   2.721 -33.168  1.00  0.00     0.163 HD
HETATM   14  O   UNL     1      -9.741   3.901 -30.309  1.00  0.00    -0.262 OA
BRANCH  12  15
HETATM   15  C   UNL     1     -11.010   3.216 -32.882  1.00  0.00     0.085 C 
HETATM   16  C   UNL     1     -11.577   1.849 -33.296  1.00  0.00     0.034 C 
HETATM   17  C   UNL     1     -13.017   1.903 -33.848  1.00  0.00    -0.045 C 
HETATM   18  C   UNL     1     -14.019   2.204 -32.718  1.00  0.00     0.015 C 
HETATM   19  C   UNL     1     -13.373   0.527 -34.443  1.00  0.00     0.015 C 
HETATM   20  C   UNL     1     -13.110   2.969 -34.964  1.00  0.00     0.013 C 
HETATM   21  C   UNL     1     -12.567   4.344 -34.546  1.00  0.00    -0.016 C 
HETATM   22  C   UNL     1     -12.637   5.322 -35.718  1.00  0.00     0.010 C 
HETATM   23  C   UNL     1     -11.127   4.229 -34.025  1.00  0.00     0.029 C 
ENDBRANCH  12  15
ENDBRANCH   8  11
ENDBRANCH   6   7
BRANCH   1  24
HETATM   24  C   UNL     1      -5.094   1.310 -32.983  1.00  0.00     0.732 A 
HETATM   25  N   UNL     1      -4.410   0.249 -32.471  1.00  0.00    -0.152 N 
HETATM   26  C   UNL     1      -4.719  -1.026 -32.816  1.00  0.00     0.268 A 
HETATM   27  H   UNL     1      -3.660   0.402 -31.804  1.00  0.00     0.188 HD
HETATM   28  C   UNL     1      -5.834  -1.169 -33.795  1.00  0.00     0.035 A 
HETATM   29  O   UNL     1      -4.120  -1.985 -32.347  1.00  0.00    -0.267 OA
HETATM   30  C   UNL     1      -6.427  -0.037 -34.240  1.00  0.00     0.061 A 
HETATM   31  N   UNL     1      -6.067   1.237 -33.832  1.00  0.00    -0.067 NA
HETATM   32  C   UNL     1      -7.575  -0.046 -35.218  1.00  0.00     0.072 C 
BRANCH  28  33
HETATM   33  C   UNL     1      -6.149  -2.581 -34.217  1.00  0.00     0.042 C 
HETATM   34  C   UNL     1      -5.244  -3.054 -35.347  1.00  0.00     0.010 C 
ENDBRANCH  28  33
ENDBRANCH   1  24
TORSDOF 5
ENDMDL
MODEL 4
REMARK VINA RESULT:      -8.4      2.183      4.852
REMARK  5 active torsions:
REMARK  status: ('A' for Active; 'I' for Inactive)
REMARK    1  A    between atoms: C_2  and  C_3 
REMARK    2  A    between atoms: C_7  and  N_8 
REMARK    3  A    between atoms: C_13  and  N_14 
REMARK       I    between atoms: N_14  and  C_15 
REMARK    4  A    between atoms: C_15  and  C_16 
REMARK       I    between atoms: C_16  and  N_17 
REMARK    5  A    between atoms: N_17  and  C_18 
ROOT
HETATM    1  N   UNL     1      -8.432   1.010 -33.440  1.00  0.00    -0.045 N 
HETATM    2  N   UNL     1      -9.573   0.265 -33.496  1.00  0.00    -0.156 NA
HETATM    3  C   UNL     1     -10.557   1.170 -33.536  1.00  0.00     0.055 A 
HETATM    4  C   UNL     1     -11.978   0.746 -33.594  1.00  0.00     0.072 C 
HETATM    5  C   UNL     1     -10.056   2.492 -33.516  1.00  0.00     0.079 A 
HETATM    6  C   UNL     1      -8.686   2.372 -33.451  1.00  0.00     0.152 A 
ENDROOT
BRANCH   6   7
HETATM    7  N   UNL     1      -7.727   3.380 -33.395  1.00  0.00    -0.303 N 
HETATM    8  C   UNL     1      -7.341   4.055 -32.194  1.00  0.00     0.315 C 
HETATM    9  O   UNL     1      -7.866   3.849 -31.111  1.00  0.00    -0.262 OA
HETATM   10  H   UNL     1      -7.265   3.660 -34.268  1.00  0.00     0.171 HD
BRANCH   8  11
HETATM   11  C   UNL     1      -6.199   5.077 -32.345  1.00  0.00     0.310 C 
HETATM   12  N   UNL     1      -4.944   4.548 -32.126  1.00  0.00    -0.348 N 
HETATM   13  H   UNL     1      -4.896   3.582 -31.809  1.00  0.00     0.163 HD
HETATM   14  O   UNL     1      -6.473   6.230 -32.645  1.00  0.00    -0.262 OA
BRANCH  12  15
HETATM   15  C   UNL     1      -3.704   5.312 -32.209  1.00  0.00     0.085 C 
HETATM   16  C   UNL     1      -3.086   5.111 -33.601  1.00  0.00     0.034 C 
HETATM   17  C   UNL     1      -1.711   5.786 -33.786  1.00  0.00    -0.045 C 
HETATM   18  C   UNL     1      -1.863   7.317 -33.851  1.00  0.00     0.015 C 
HETATM   19  C   UNL     1      -1.100   5.314 -35.119  1.00  0.00     0.015 C 
HETATM   20  C   UNL     1      -0.767   5.377 -32.631  1.00  0.00     0.013 C 
HETATM   21  C   UNL     1      -1.373   5.599 -31.237  1.00  0.00    -0.016 C 
HETATM   22  C   UNL     1      -0.407   5.115 -30.156  1.00  0.00     0.010 C 
HETATM   23  C   UNL     1      -2.728   4.889 -31.107  1.00  0.00     0.029 C 
ENDBRANCH  12  15
ENDBRANCH   8  11
ENDBRANCH   6   7
BRANCH   1  24
HETATM   24  C   UNL     1      -7.182   0.378 -33.390  1.00  0.00     0.732 A 
HETATM   25  N   UNL     1      -7.236  -0.887 -33.891  1.00  0.00    -0.152 N 
HETATM   26  C   UNL     1      -6.131  -1.671 -33.957  1.00  0.00     0.268 A 
HETATM   27  H   UNL     1      -8.114  -1.258 -34.242  1.00  0.00     0.188 HD
HETATM   28  C   UNL     1      -4.880  -1.055 -33.428  1.00  0.00     0.035 A 
HETATM   29  O   UNL     1      -6.168  -2.803 -34.422  1.00  0.00    -0.267 OA
HETATM   30  C   UNL     1      -4.959   0.207 -32.944  1.00  0.00     0.061 A 
HETATM   31  N   UNL     1      -6.124   0.956 -32.922  1.00  0.00    -0.067 NA
HETATM   32  C   UNL     1      -3.764   0.948 -32.397  1.00  0.00     0.072 C 
BRANCH  28  33
HETATM   33  C   UNL     1      -3.660  -1.939 -33.455  1.00  0.00     0.042 C 
HETATM   34  C   UNL     1      -3.414  -2.612 -32.111  1.00  0.00     0.010 C 
ENDBRANCH  28  33
ENDBRANCH   1  24
TORSDOF 5
ENDMDL
MODEL 5
REMARK VINA RESULT:      -8.3      2.100      4.969
REMARK  5 active torsions:
REMARK  status: ('A' for Active; 'I' for Inactive)
REMARK    1  A    between atoms: C_2  and  C_3 
REMARK    2  A    between atoms: C_7  and  N_8 
REMARK    3  A    between atoms: C_13  and  N_14 
REMARK       I    between atoms: N_14  and  C_15 
REMARK    4  A    between atoms: C_15  and  C_16 
REMARK       I    between atoms: C_16  and  N_17 
REMARK    5  A    between atoms: N_17  and  C_18 
ROOT
HETATM    1  N   UNL     1      -8.863   1.093 -33.367  1.00  0.00    -0.045 N 
HETATM    2  N   UNL     1     -10.086   0.505 -33.227  1.00  0.00    -0.156 NA
HETATM    3  C   UNL     1     -10.955   1.474 -33.533  1.00  0.00     0.055 A 
HETATM    4  C   UNL     1     -12.418   1.224 -33.488  1.00  0.00     0.072 C 
HETATM    5  C   UNL     1     -10.300   2.678 -33.879  1.00  0.00     0.079 A 
HETATM    6  C   UNL     1      -8.954   2.418 -33.765  1.00  0.00     0.152 A 
ENDROOT
BRANCH   6   7
HETATM    7  N   UNL     1      -7.880   3.278 -33.981  1.00  0.00    -0.303 N 
HETATM    8  C   UNL     1      -7.122   3.895 -32.936  1.00  0.00     0.315 C 
HETATM    9  O   UNL     1      -7.390   3.772 -31.751  1.00  0.00    -0.262 OA
HETATM   10  H   UNL     1      -7.611   3.485 -34.950  1.00  0.00     0.171 HD
BRANCH   8  11
HETATM   11  C   UNL     1      -5.923   4.743 -33.397  1.00  0.00     0.310 C 
HETATM   12  N   UNL     1      -5.205   5.304 -32.361  1.00  0.00    -0.348 N 
HETATM   13  H   UNL     1      -5.575   5.183 -31.421  1.00  0.00     0.163 HD
HETATM   14  O   UNL     1      -5.695   4.844 -34.594  1.00  0.00    -0.262 OA
BRANCH  12  15
HETATM   15  C   UNL     1      -4.028   6.147 -32.539  1.00  0.00     0.085 C 
HETATM   16  C   UNL     1      -2.768   5.303 -32.292  1.00  0.00     0.034 C 
HETATM   17  C   UNL     1      -1.450   6.105 -32.347  1.00  0.00    -0.045 C 
HETATM   18  C   UNL     1      -1.132   6.525 -33.794  1.00  0.00     0.015 C 
HETATM   19  C   UNL     1      -0.301   5.206 -31.851  1.00  0.00     0.015 C 
HETATM   20  C   UNL     1      -1.550   7.342 -31.425  1.00  0.00     0.013 C 
HETATM   21  C   UNL     1      -2.796   8.201 -31.686  1.00  0.00    -0.016 C 
HETATM   22  C   UNL     1      -2.855   9.366 -30.698  1.00  0.00     0.010 C 
HETATM   23  C   UNL     1      -4.075   7.355 -31.598  1.00  0.00     0.029 C 
ENDBRANCH  12  15
ENDBRANCH   8  11
ENDBRANCH   6   7
BRANCH   1  24
HETATM   24  C   UNL     1      -7.696   0.355 -33.125  1.00  0.00     0.732 A 
HETATM   25  N   UNL     1      -7.143   0.669 -31.921  1.00  0.00    -0.152 N 
HETATM   26  C   UNL     1      -6.017   0.056 -31.477  1.00  0.00     0.268 A 
HETATM   27  H   UNL     1      -7.582   1.365 -31.326  1.00  0.00     0.188 HD
HETATM   28  C   UNL     1      -5.435  -0.957 -32.404  1.00  0.00     0.035 A 
HETATM   29  O   UNL     1      -5.523   0.320 -30.388  1.00  0.00    -0.267 OA
HETATM   30  C   UNL     1      -6.073  -1.171 -33.579  1.00  0.00     0.061 A 
HETATM   31  N   UNL     1      -7.232  -0.515 -33.962  1.00  0.00    -0.067 NA
HETATM   32  C   UNL     1      -5.597  -2.179 -34.595  1.00  0.00     0.072 C 
BRANCH  28  33
HETATM   33  C   UNL     1      -4.158  -1.606 -31.937  1.00  0.00     0.042 C 
HETATM   34  C   UNL     1      -2.929  -0.806 -32.346  1.00  0.00     0.010 C 
ENDBRANCH  28  33
ENDBRANCH   1  24
TORSDOF 5
ENDMDL
MODEL 6
REMARK VINA RESULT:      -8.2      1.604      2.014
REMARK  5 active torsions:
REMARK  status: ('A' for Active; 'I' for Inactive)
REMARK    1  A    between atoms: C_2  and  C_3 
REMARK    2  A    between atoms: C_7  and  N_8 
REMARK    3  A    between atoms: C_13  and  N_14 
REMARK       I    between atoms: N_14  and  C_15 
REMARK    4  A    between atoms: C_15  and  C_16 
REMARK       I    between atoms: C_16  and  N_17 
REMARK    5  A    between atoms: N_17  and  C_18 
ROOT
HETATM    1  N   UNL     1      -7.174   0.099 -33.904  1.00  0.00    -0.045 N 
HETATM    2  N   UNL     1      -7.333  -1.141 -34.449  1.00  0.00    -0.156 NA
HETATM    3  C   UNL     1      -6.133  -1.716 -34.314  1.00  0.00     0.055 A 
HETATM    4  C   UNL     1      -5.894  -3.097 -34.805  1.00  0.00     0.072 C 
HETATM    5  C   UNL     1      -5.206  -0.859 -33.679  1.00  0.00     0.079 A 
HETATM    6  C   UNL     1      -5.891   0.308 -33.424  1.00  0.00     0.152 A 
ENDROOT
BRANCH   6   7
HETATM    7  N   UNL     1      -5.426   1.476 -32.823  1.00  0.00    -0.303 N 
HETATM    8  C   UNL     1      -5.474   1.729 -31.416  1.00  0.00     0.315 C 
HETATM    9  O   UNL     1      -5.987   0.964 -30.614  1.00  0.00    -0.262 OA
HETATM   10  H   UNL     1      -5.022   2.203 -33.425  1.00  0.00     0.171 HD
BRANCH   8  11
HETATM   11  C   UNL     1      -4.827   3.048 -30.957  1.00  0.00     0.310 C 
HETATM   12  N   UNL     1      -3.732   3.424 -31.708  1.00  0.00    -0.348 N 
HETATM   13  H   UNL     1      -3.410   2.770 -32.418  1.00  0.00     0.163 HD
HETATM   14  O   UNL     1      -5.314   3.648 -30.010  1.00  0.00    -0.262 OA
BRANCH  12  15
HETATM   15  C   UNL     1      -2.950   4.632 -31.473  1.00  0.00     0.085 C 
HETATM   16  C   UNL     1      -2.909   5.461 -32.766  1.00  0.00     0.034 C 
HETATM   17  C   UNL     1      -2.021   6.720 -32.682  1.00  0.00    -0.045 C 
HETATM   18  C   UNL     1      -2.674   7.784 -31.779  1.00  0.00     0.015 C 
HETATM   19  C   UNL     1      -1.876   7.321 -34.093  1.00  0.00     0.015 C 
HETATM   20  C   UNL     1      -0.619   6.339 -32.154  1.00  0.00     0.013 C 
HETATM   21  C   UNL     1      -0.655   5.531 -30.848  1.00  0.00    -0.016 C 
HETATM   22  C   UNL     1       0.762   5.141 -30.426  1.00  0.00     0.010 C 
HETATM   23  C   UNL     1      -1.535   4.282 -30.999  1.00  0.00     0.029 C 
ENDBRANCH  12  15
ENDBRANCH   8  11
ENDBRANCH   6   7
BRANCH   1  24
HETATM   24  C   UNL     1      -8.252   0.995 -33.869  1.00  0.00     0.732 A 
HETATM   25  N   UNL     1      -9.436   0.351 -33.676  1.00  0.00    -0.152 N 
HETATM   26  C   UNL     1     -10.606   1.032 -33.589  1.00  0.00     0.268 A 
HETATM   27  H   UNL     1      -9.455  -0.659 -33.577  1.00  0.00     0.188 HD
HETATM   28  C   UNL     1     -10.496   2.511 -33.738  1.00  0.00     0.035 A 
HETATM   29  O   UNL     1     -11.673   0.461 -33.397  1.00  0.00    -0.267 OA
HETATM   30  C   UNL     1      -9.262   3.030 -33.938  1.00  0.00     0.061 A 
HETATM   31  N   UNL     1      -8.104   2.273 -34.002  1.00  0.00    -0.067 NA
HETATM   32  C   UNL     1      -9.013   4.511 -34.088  1.00  0.00     0.072 C 
BRANCH  28  33
HETATM   33  C   UNL     1     -11.799   3.267 -33.690  1.00  0.00     0.042 C 
HETATM   34  C   UNL     1     -12.426   3.411 -35.070  1.00  0.00     0.010 C 
ENDBRANCH  28  33
ENDBRANCH   1  24
TORSDOF 5
ENDMDL
MODEL 7
REMARK VINA RESULT:      -8.2      2.482      7.367
REMARK  5 active torsions:
REMARK  status: ('A' for Active; 'I' for Inactive)
REMARK    1  A    between atoms: C_2  and  C_3 
REMARK    2  A    between atoms: C_7  and  N_8 
REMARK    3  A    between atoms: C_13  and  N_14 
REMARK       I    between atoms: N_14  and  C_15 
REMARK    4  A    between atoms: C_15  and  C_16 
REMARK       I    between atoms: C_16  and  N_17 
REMARK    5  A    between atoms: N_17  and  C_18 
ROOT
HETATM    1  N   UNL     1      -4.426   1.131 -32.253  1.00  0.00    -0.045 N 
HETATM    2  N   UNL     1      -3.405   0.227 -32.237  1.00  0.00    -0.156 NA
HETATM    3  C   UNL     1      -4.012  -0.954 -32.079  1.00  0.00     0.055 A 
HETATM    4  C   UNL     1      -3.223  -2.209 -32.002  1.00  0.00     0.072 C 
HETATM    5  C   UNL     1      -5.417  -0.816 -32.002  1.00  0.00     0.079 A 
HETATM    6  C   UNL     1      -5.668   0.532 -32.113  1.00  0.00     0.152 A 
ENDROOT
BRANCH   6   7
HETATM    7  N   UNL     1      -6.893   1.194 -32.083  1.00  0.00    -0.303 N 
HETATM    8  C   UNL     1      -7.390   1.911 -30.950  1.00  0.00     0.315 C 
HETATM    9  O   UNL     1      -6.809   1.956 -29.877  1.00  0.00    -0.262 OA
HETATM   10  H   UNL     1      -7.479   1.169 -32.926  1.00  0.00     0.171 HD
BRANCH   8  11
HETATM   11  C   UNL     1      -8.729   2.642 -31.162  1.00  0.00     0.310 C 
HETATM   12  N   UNL     1      -9.417   2.231 -32.285  1.00  0.00    -0.348 N 
HETATM   13  H   UNL     1      -8.949   1.567 -32.899  1.00  0.00     0.163 HD
HETATM   14  O   UNL     1      -9.077   3.487 -30.350  1.00  0.00    -0.262 OA
BRANCH  12  15
HETATM   15  C   UNL     1     -10.706   2.770 -32.702  1.00  0.00     0.085 C 
HETATM   16  C   UNL     1     -11.549   1.637 -33.308  1.00  0.00     0.034 C 
HETATM   17  C   UNL     1     -12.904   2.097 -33.886  1.00  0.00    -0.045 C 
HETATM   18  C   UNL     1     -13.872   2.485 -32.753  1.00  0.00     0.015 C 
HETATM   19  C   UNL     1     -13.533   0.928 -34.668  1.00  0.00     0.015 C 
HETATM   20  C   UNL     1     -12.686   3.284 -34.852  1.00  0.00     0.013 C 
HETATM   21  C   UNL     1     -11.865   4.429 -34.241  1.00  0.00    -0.016 C 
HETATM   22  C   UNL     1     -11.641   5.533 -35.275  1.00  0.00     0.010 C 
HETATM   23  C   UNL     1     -10.522   3.915 -33.702  1.00  0.00     0.029 C 
ENDBRANCH  12  15
ENDBRANCH   8  11
ENDBRANCH   6   7
BRANCH   1  24
HETATM   24  C   UNL     1      -4.153   2.497 -32.410  1.00  0.00     0.732 A 
HETATM   25  N   UNL     1      -2.952   2.837 -31.866  1.00  0.00    -0.152 N 
HETATM   26  C   UNL     1      -2.482   4.108 -31.924  1.00  0.00     0.268 A 
HETATM   27  H   UNL     1      -2.379   2.129 -31.417  1.00  0.00     0.188 HD
HETATM   28  C   UNL     1      -3.377   5.088 -32.603  1.00  0.00     0.035 A 
HETATM   29  O   UNL     1      -1.395   4.417 -31.452  1.00  0.00    -0.267 OA
HETATM   30  C   UNL     1      -4.552   4.629 -33.092  1.00  0.00     0.061 A 
HETATM   31  N   UNL     1      -4.963   3.309 -33.009  1.00  0.00    -0.067 NA
HETATM   32  C   UNL     1      -5.538   5.514 -33.814  1.00  0.00     0.072 C 
BRANCH  28  33
HETATM   33  C   UNL     1      -2.881   6.511 -32.628  1.00  0.00     0.042 C 
HETATM   34  C   UNL     1      -2.135   6.832 -33.916  1.00  0.00     0.010 C 
ENDBRANCH  28  33
ENDBRANCH   1  24
TORSDOF 5
ENDMDL
MODEL 8
REMARK VINA RESULT:      -8.1      2.131      7.832
REMARK  5 active torsions:
REMARK  status: ('A' for Active; 'I' for Inactive)
REMARK    1  A    between atoms: C_2  and  C_3 
REMARK    2  A    between atoms: C_7  and  N_8 
REMARK    3  A    between atoms: C_13  and  N_14 
REMARK       I    between atoms: N_14  and  C_15 
REMARK    4  A    between atoms: C_15  and  C_16 
REMARK       I    between atoms: C_16  and  N_17 
REMARK    5  A    between atoms: N_17  and  C_18 
ROOT
HETATM    1  N   UNL     1      -4.187   2.263 -32.283  1.00  0.00    -0.045 N 
HETATM    2  N   UNL     1      -2.936   2.693 -31.954  1.00  0.00    -0.156 NA
HETATM    3  C   UNL     1      -3.099   3.984 -31.648  1.00  0.00     0.055 A 
HETATM    4  C   UNL     1      -1.942   4.820 -31.239  1.00  0.00     0.072 C 
HETATM    5  C   UNL     1      -4.449   4.386 -31.769  1.00  0.00     0.079 A 
HETATM    6  C   UNL     1      -5.137   3.268 -32.182  1.00  0.00     0.152 A 
ENDROOT
BRANCH   6   7
HETATM    7  N   UNL     1      -6.495   3.136 -32.460  1.00  0.00    -0.303 N 
HETATM    8  C   UNL     1      -7.464   2.653 -31.525  1.00  0.00     0.315 C 
HETATM    9  O   UNL     1      -7.175   2.251 -30.409  1.00  0.00    -0.262 OA
HETATM   10  H   UNL     1      -6.827   3.402 -33.395  1.00  0.00     0.171 HD
BRANCH   8  11
HETATM   11  C   UNL     1      -8.924   2.669 -32.013  1.00  0.00     0.310 C 
HETATM   12  N   UNL     1      -9.068   2.357 -33.349  1.00  0.00    -0.348 N 
HETATM   13  H   UNL     1      -8.216   2.237 -33.893  1.00  0.00     0.163 HD
HETATM   14  O   UNL     1      -9.811   2.932 -31.215  1.00  0.00    -0.262 OA
BRANCH  12  15
HETATM   15  C   UNL     1     -10.348   2.306 -34.047  1.00  0.00     0.085 C 
HETATM   16  C   UNL     1     -11.101   3.624 -33.808  1.00  0.00     0.034 C 
HETATM   17  C   UNL     1     -12.522   3.658 -34.409  1.00  0.00    -0.045 C 
HETATM   18  C   UNL     1     -12.458   3.737 -35.946  1.00  0.00     0.015 C 
HETATM   19  C   UNL     1     -13.247   4.919 -33.900  1.00  0.00     0.015 C 
HETATM   20  C   UNL     1     -13.313   2.409 -33.957  1.00  0.00     0.013 C 
HETATM   21  C   UNL     1     -12.574   1.088 -34.216  1.00  0.00    -0.016 C 
HETATM   22  C   UNL     1     -13.391  -0.091 -33.687  1.00  0.00     0.010 C 
HETATM   23  C   UNL     1     -11.177   1.105 -33.578  1.00  0.00     0.029 C 
ENDBRANCH  12  15
ENDBRANCH   8  11
ENDBRANCH   6   7
BRANCH   1  24
HETATM   24  C   UNL     1      -4.397   0.930 -32.661  1.00  0.00     0.732 A 
HETATM   25  N   UNL     1      -3.463   0.100 -32.121  1.00  0.00    -0.152 N 
HETATM   26  C   UNL     1      -3.491  -1.238 -32.341  1.00  0.00     0.268 A 
HETATM   27  H   UNL     1      -2.732   0.477 -31.524  1.00  0.00     0.188 HD
HETATM   28  C   UNL     1      -4.596  -1.716 -33.222  1.00  0.00     0.035 A 
HETATM   29  O   UNL     1      -2.665  -1.993 -31.844  1.00  0.00    -0.267 OA
HETATM   30  C   UNL     1      -5.454  -0.789 -33.708  1.00  0.00     0.061 A 
HETATM   31  N   UNL     1      -5.373   0.565 -33.428  1.00  0.00    -0.067 NA
HETATM   32  C   UNL     1      -6.622  -1.144 -34.595  1.00  0.00     0.072 C 
BRANCH  28  33
HETATM   33  C   UNL     1      -4.603  -3.195 -33.509  1.00  0.00     0.042 C 
HETATM   34  C   UNL     1      -4.089  -3.507 -34.908  1.00  0.00     0.010 C 
ENDBRANCH  28  33
ENDBRANCH   1  24
TORSDOF 5
ENDMDL
MODEL 9
REMARK VINA RESULT:      -8.1      2.526      5.437
REMARK  5 active torsions:
REMARK  status: ('A' for Active; 'I' for Inactive)
REMARK    1  A    between atoms: C_2  and  C_3 
REMARK    2  A    between atoms: C_7  and  N_8 
REMARK    3  A    between atoms: C_13  and  N_14 
REMARK       I    between atoms: N_14  and  C_15 
REMARK    4  A    between atoms: C_15  and  C_16 
REMARK       I    between atoms: C_16  and  N_17 
REMARK    5  A    between atoms: N_17  and  C_18 
ROOT
HETATM    1  N   UNL     1      -7.340   2.320 -32.730  1.00  0.00    -0.045 N 
HETATM    2  N   UNL     1      -8.635   1.906 -32.840  1.00  0.00    -0.156 NA
HETATM    3  C   UNL     1      -9.348   3.037 -32.792  1.00  0.00     0.055 A 
HETATM    4  C   UNL     1     -10.830   3.004 -32.874  1.00  0.00     0.072 C 
HETATM    5  C   UNL     1      -8.521   4.175 -32.662  1.00  0.00     0.079 A 
HETATM    6  C   UNL     1      -7.231   3.697 -32.620  1.00  0.00     0.152 A 
ENDROOT
BRANCH   6   7
HETATM    7  N   UNL     1      -6.042   4.412 -32.484  1.00  0.00    -0.303 N 
HETATM    8  C   UNL     1      -5.245   4.859 -33.585  1.00  0.00     0.315 C 
HETATM    9  O   UNL     1      -5.504   4.600 -34.749  1.00  0.00    -0.262 OA
HETATM   10  H   UNL     1      -5.714   4.633 -31.537  1.00  0.00     0.171 HD
BRANCH   8  11
HETATM   11  C   UNL     1      -4.014   5.706 -33.211  1.00  0.00     0.310 C 
HETATM   12  N   UNL     1      -3.633   5.583 -31.891  1.00  0.00    -0.348 N 
HETATM   13  H   UNL     1      -4.234   5.031 -31.284  1.00  0.00     0.163 HD
HETATM   14  O   UNL     1      -3.480   6.386 -34.075  1.00  0.00    -0.262 OA
BRANCH  12  15
HETATM   15  C   UNL     1      -2.500   6.282 -31.295  1.00  0.00     0.085 C 
HETATM   16  C   UNL     1      -1.366   5.275 -31.047  1.00  0.00     0.034 C 
HETATM   17  C   UNL     1      -0.141   5.869 -30.320  1.00  0.00    -0.045 C 
HETATM   18  C   UNL     1       0.633   6.820 -31.252  1.00  0.00     0.015 C 
HETATM   19  C   UNL     1       0.806   4.721 -29.922  1.00  0.00     0.015 C 
HETATM   20  C   UNL     1      -0.598   6.607 -29.040  1.00  0.00     0.013 C 
HETATM   21  C   UNL     1      -1.714   7.632 -29.289  1.00  0.00    -0.016 C 
HETATM   22  C   UNL     1      -2.151   8.272 -27.971  1.00  0.00     0.010 C 
HETATM   23  C   UNL     1      -2.912   6.980 -29.995  1.00  0.00     0.029 C 
ENDBRANCH  12  15
ENDBRANCH   8  11
ENDBRANCH   6   7
BRANCH   1  24
HETATM   24  C   UNL     1      -6.299   1.382 -32.746  1.00  0.00     0.732 A 
HETATM   25  N   UNL     1      -6.525   0.393 -33.654  1.00  0.00    -0.152 N 
HETATM   26  C   UNL     1      -5.631  -0.609 -33.848  1.00  0.00     0.268 A 
HETATM   27  H   UNL     1      -7.371   0.403 -34.216  1.00  0.00     0.188 HD
HETATM   28  C   UNL     1      -4.413  -0.551 -32.990  1.00  0.00     0.035 A 
HETATM   29  O   UNL     1      -5.819  -1.492 -34.675  1.00  0.00    -0.267 OA
HETATM   30  C   UNL     1      -4.310   0.477 -32.116  1.00  0.00     0.061 A 
HETATM   31  N   UNL     1      -5.259   1.477 -31.981  1.00  0.00    -0.067 NA
HETATM   32  C   UNL     1      -3.122   0.659 -31.205  1.00  0.00     0.072 C 
BRANCH  28  33
HETATM   33  C   UNL     1      -3.440  -1.687 -33.169  1.00  0.00     0.042 C 
HETATM   34  C   UNL     1      -3.551  -2.715 -32.050  1.00  0.00     0.010 C 
ENDBRANCH  28  33
ENDBRANCH   1  24
TORSDOF 5
ENDMDL
MODEL 10
REMARK VINA RESULT:      -8.0      2.066      7.496
REMARK  5 active torsions:
REMARK  status: ('A' for Active; 'I' for Inactive)
REMARK    1  A    between atoms: C_2  and  C_3 
REMARK    2  A    between atoms: C_7  and  N_8 
REMARK    3  A    between atoms: C_13  and  N_14 
REMARK       I    between atoms: N_14  and  C_15 
REMARK    4  A    between atoms: C_15  and  C_16 
REMARK       I    between atoms: C_16  and  N_17 
REMARK    5  A    between atoms: N_17  and  C_18 
ROOT
HETATM    1  N   UNL     1      -4.556   0.669 -32.378  1.00  0.00    -0.045 N 
HETATM    2  N   UNL     1      -3.464  -0.137 -32.250  1.00  0.00    -0.156 NA
HETATM    3  C   UNL     1      -3.973  -1.369 -32.147  1.00  0.00     0.055 A 
HETATM    4  C   UNL     1      -3.084  -2.547 -31.981  1.00  0.00     0.072 C 
HETATM    5  C   UNL     1      -5.385  -1.363 -32.218  1.00  0.00     0.079 A 
HETATM    6  C   UNL     1      -5.746  -0.043 -32.364  1.00  0.00     0.152 A 
ENDROOT
BRANCH   6   7
HETATM    7  N   UNL     1      -7.023   0.504 -32.466  1.00  0.00    -0.303 N 
HETATM    8  C   UNL     1      -7.879   0.336 -33.600  1.00  0.00     0.315 C 
HETATM    9  O   UNL     1      -7.542  -0.255 -34.614  1.00  0.00    -0.262 OA
HETATM   10  H   UNL     1      -7.376   1.063 -31.681  1.00  0.00     0.171 HD
BRANCH   8  11
HETATM   11  C   UNL     1      -9.284   0.954 -33.468  1.00  0.00     0.310 C 
HETATM   12  N   UNL     1      -9.754   1.522 -34.634  1.00  0.00    -0.348 N 
HETATM   13  H   UNL     1      -9.115   1.557 -35.425  1.00  0.00     0.163 HD
HETATM   14  O   UNL     1      -9.860   0.889 -32.392  1.00  0.00    -0.262 OA
BRANCH  12  15
HETATM   15  C   UNL     1     -11.055   2.169 -34.766  1.00  0.00     0.085 C 
HETATM   16  C   UNL     1     -11.129   3.345 -33.780  1.00  0.00     0.034 C 
HETATM   17  C   UNL     1     -12.499   4.055 -33.745  1.00  0.00    -0.045 C 
HETATM   18  C   UNL     1     -12.726   4.860 -35.038  1.00  0.00     0.015 C 
HETATM   19  C   UNL     1     -12.517   5.043 -32.563  1.00  0.00     0.015 C 
HETATM   20  C   UNL     1     -13.624   3.013 -33.543  1.00  0.00     0.013 C 
HETATM   21  C   UNL     1     -13.567   1.848 -34.542  1.00  0.00    -0.016 C 
HETATM   22  C   UNL     1     -14.670   0.834 -34.239  1.00  0.00     0.010 C 
HETATM   23  C   UNL     1     -12.190   1.170 -34.518  1.00  0.00     0.029 C 
ENDBRANCH  12  15
ENDBRANCH   8  11
ENDBRANCH   6   7
BRANCH   1  24
HETATM   24  C   UNL     1      -4.396   2.055 -32.515  1.00  0.00     0.732 A 
HETATM   25  N   UNL     1      -3.216   2.480 -31.984  1.00  0.00    -0.152 N 
HETATM   26  C   UNL     1      -2.849   3.785 -32.027  1.00  0.00     0.268 A 
HETATM   27  H   UNL     1      -2.581   1.812 -31.557  1.00  0.00     0.188 HD
HETATM   28  C   UNL     1      -3.831   4.702 -32.674  1.00  0.00     0.035 A 
HETATM   29  O   UNL     1      -1.783   4.172 -31.568  1.00  0.00    -0.267 OA
HETATM   30  C   UNL     1      -4.974   4.159 -33.153  1.00  0.00     0.061 A 
HETATM   31  N   UNL     1      -5.278   2.809 -33.087  1.00  0.00    -0.067 NA
HETATM   32  C   UNL     1      -6.040   4.974 -33.843  1.00  0.00     0.072 C 
BRANCH  28  33
HETATM   33  C   UNL     1      -3.450   6.160 -32.682  1.00  0.00     0.042 C 
HETATM   34  C   UNL     1      -2.591   6.518 -33.888  1.00  0.00     0.010 C 
ENDBRANCH  28  33
ENDBRANCH   1  24
TORSDOF 5
ENDMDL
