MODEL 1
REMARK VINA RESULT:      -8.1      0.000      0.000
REMARK  4 active torsions:
REMARK  status: ('A' for Active; 'I' for Inactive)
REMARK    1  A    between atoms: C_2  and  O_3 
REMARK    2  A    between atoms: O_3  and  C_4 
REMARK    3  A    between atoms: C_10  and  N_11 
REMARK       I    between atoms: N_11  and  C_12 
REMARK    4  A    between atoms: C_12  and  C_13 
ROOT
HETATM    1  N   UNL     1      -4.049  -0.998 -33.150  1.00  0.00    -0.320 N 
HETATM    2  C   UNL     1      -4.764  -0.281 -32.211  1.00  0.00     0.257 C 
HETATM    3  O   UNL     1      -5.554  -0.739 -31.395  1.00  0.00    -0.267 OA
HETATM    4  H   UNL     1      -3.326  -0.526 -33.680  1.00  0.00     0.169 HD
ENDROOT
BRANCH   2   5
HETATM    5  C   UNL     1      -4.499   1.180 -32.181  1.00  0.00     0.052 A 
HETATM    6  C   UNL     1      -5.365   2.017 -32.889  1.00  0.00     0.136 A 
HETATM    7  N   UNL     1      -5.272   3.366 -32.975  1.00  0.00    -0.238 NA
HETATM    8  C   UNL     1      -4.212   3.892 -32.325  1.00  0.00     0.177 A 
HETATM    9  C   UNL     1      -3.294   3.126 -31.617  1.00  0.00     0.083 A 
HETATM   10  N   UNL     1      -3.892   5.218 -32.276  1.00  0.00    -0.214 NA
HETATM   11  N   UNL     1      -2.388   4.042 -31.148  1.00  0.00    -0.342 N 
HETATM   12  C   UNL     1      -3.401   1.737 -31.515  1.00  0.00     0.052 A 
HETATM   13  H   UNL     1      -1.565   3.842 -30.596  1.00  0.00     0.167 HD
HETATM   14  C   UNL     1      -2.786   5.289 -31.564  1.00  0.00     0.103 A 
HETATM   15  C   UNL     1      -2.025   6.519 -31.242  1.00  0.00     0.091 C 
ENDBRANCH   2   5
BRANCH   1  16
HETATM   16  C   UNL     1      -4.158  -2.378 -33.443  1.00  0.00     0.070 A 
HETATM   17  C   UNL     1      -5.103  -2.765 -34.412  1.00  0.00     0.117 A 
HETATM   18  C   UNL     1      -5.323  -4.123 -34.689  1.00  0.00     0.069 A 
HETATM   19 CL   UNL     1      -6.536  -4.639 -35.805  1.00  0.00    -0.081 Cl
HETATM   20  C   UNL     1      -4.559  -5.097 -34.047  1.00  0.00     0.027 A 
HETATM   21  C   UNL     1      -3.595  -4.717 -33.115  1.00  0.00     0.004 A 
HETATM   22  C   UNL     1      -3.400  -3.366 -32.809  1.00  0.00     0.032 A 
BRANCH  17  23
HETATM   23  O   UNL     1      -5.847  -1.783 -35.028  1.00  0.00    -0.347 OA
BRANCH  23  24
HETATM   24  C   UNL     1      -7.142  -1.669 -34.414  1.00  0.00     0.171 C 
HETATM   25  C   UNL     1      -7.695  -0.292 -34.733  1.00  0.00     0.034 C 
ENDBRANCH  23  24
ENDBRANCH  17  23
ENDBRANCH   1  16
TORSDOF 4
ENDMDL
MODEL 2
REMARK VINA RESULT:      -7.8      3.940      6.527
REMARK  4 active torsions:
REMARK  status: ('A' for Active; 'I' for Inactive)
REMARK    1  A    between atoms: C_2  and  O_3 
REMARK    2  A    between atoms: O_3  and  C_4 
REMARK    3  A    between atoms: C_10  and  N_11 
REMARK       I    between atoms: N_11  and  C_12 
REMARK    4  A    between atoms: C_12  and  C_13 
ROOT
HETATM    1  N   UNL     1      -6.773   0.154 -33.280  1.00  0.00    -0.320 N 
HETATM    2  C   UNL     1      -7.785   0.472 -32.396  1.00  0.00     0.257 C 
HETATM    3  O   UNL     1      -7.684   0.567 -31.179  1.00  0.00    -0.267 OA
HETATM    4  H   UNL     1      -6.948   0.237 -34.275  1.00  0.00     0.169 HD
ENDROOT
BRANCH   2   5
HETATM    5  C   UNL     1      -9.106   0.764 -33.011  1.00  0.00     0.052 A 
HETATM    6  C   UNL     1      -9.207   1.878 -33.847  1.00  0.00     0.136 A 
HETATM    7  N   UNL     1     -10.329   2.294 -34.484  1.00  0.00    -0.238 NA
HETATM    8  C   UNL     1     -11.422   1.544 -34.228  1.00  0.00     0.177 A 
HETATM    9  C   UNL     1     -11.408   0.434 -33.392  1.00  0.00     0.083 A 
HETATM   10  N   UNL     1     -12.670   1.767 -34.735  1.00  0.00    -0.214 NA
HETATM   11  N   UNL     1     -12.709  -0.000 -33.395  1.00  0.00    -0.342 N 
HETATM   12  C   UNL     1     -10.248  -0.002 -32.750  1.00  0.00     0.052 A 
HETATM   13  H   UNL     1     -13.078  -0.788 -32.881  1.00  0.00     0.167 HD
HETATM   14  C   UNL     1     -13.434   0.826 -34.219  1.00  0.00     0.103 A 
HETATM   15  C   UNL     1     -14.888   0.650 -34.447  1.00  0.00     0.091 C 
ENDBRANCH   2   5
BRANCH   1  16
HETATM   16  C   UNL     1      -5.450  -0.237 -32.967  1.00  0.00     0.070 A 
HETATM   17  C   UNL     1      -5.117  -1.595 -33.125  1.00  0.00     0.117 A 
HETATM   18  C   UNL     1      -3.849  -2.066 -32.752  1.00  0.00     0.069 A 
HETATM   19 CL   UNL     1      -3.435  -3.740 -32.848  1.00  0.00    -0.081 Cl
HETATM   20  C   UNL     1      -2.888  -1.174 -32.277  1.00  0.00     0.027 A 
HETATM   21  C   UNL     1      -3.200   0.179 -32.154  1.00  0.00     0.004 A 
HETATM   22  C   UNL     1      -4.475   0.644 -32.490  1.00  0.00     0.032 A 
BRANCH  17  23
HETATM   23  O   UNL     1      -6.087  -2.455 -33.592  1.00  0.00    -0.347 OA
BRANCH  23  24
HETATM   24  C   UNL     1      -5.820  -2.827 -34.955  1.00  0.00     0.171 C 
HETATM   25  C   UNL     1      -6.359  -4.227 -35.176  1.00  0.00     0.034 C 
ENDBRANCH  23  24
ENDBRANCH  17  23
ENDBRANCH   1  16
TORSDOF 4
ENDMDL
MODEL 3
REMARK VINA RESULT:      -7.8      1.724      2.629
REMARK  4 active torsions:
REMARK  status: ('A' for Active; 'I' for Inactive)
REMARK    1  A    between atoms: C_2  and  O_3 
REMARK    2  A    between atoms: O_3  and  C_4 
REMARK    3  A    between atoms: C_10  and  N_11 
REMARK       I    between atoms: N_11  and  C_12 
REMARK    4  A    between atoms: C_12  and  C_13 
ROOT
HETATM    1  N   UNL     1      -5.405  -0.154 -33.943  1.00  0.00    -0.320 N 
HETATM    2  C   UNL     1      -6.119   0.669 -33.095  1.00  0.00     0.257 C 
HETATM    3  O   UNL     1      -6.986   0.319 -32.303  1.00  0.00    -0.267 OA
HETATM    4  H   UNL     1      -4.621   0.234 -34.455  1.00  0.00     0.169 HD
ENDROOT
BRANCH   2   5
HETATM    5  C   UNL     1      -5.754   2.108 -33.138  1.00  0.00     0.052 A 
HETATM    6  C   UNL     1      -6.427   2.928 -34.046  1.00  0.00     0.136 A 
HETATM    7  N   UNL     1      -6.221   4.255 -34.223  1.00  0.00    -0.238 NA
HETATM    8  C   UNL     1      -5.245   4.773 -33.447  1.00  0.00     0.177 A 
HETATM    9  C   UNL     1      -4.515   4.021 -32.535  1.00  0.00     0.083 A 
HETATM   10  N   UNL     1      -4.839   6.077 -33.451  1.00  0.00    -0.214 NA
HETATM   11  N   UNL     1      -3.631   4.919 -31.995  1.00  0.00    -0.342 N 
HETATM   12  C   UNL     1      -4.741   2.657 -32.342  1.00  0.00     0.052 A 
HETATM   13  H   UNL     1      -2.927   4.721 -31.297  1.00  0.00     0.167 HD
HETATM   14  C   UNL     1      -3.862   6.145 -32.570  1.00  0.00     0.103 A 
HETATM   15  C   UNL     1      -3.073   7.351 -32.223  1.00  0.00     0.091 C 
ENDBRANCH   2   5
BRANCH   1  16
HETATM   16  C   UNL     1      -5.594  -1.539 -34.158  1.00  0.00     0.070 A 
HETATM   17  C   UNL     1      -4.514  -2.396 -33.874  1.00  0.00     0.117 A 
HETATM   18  C   UNL     1      -4.604  -3.769 -34.146  1.00  0.00     0.069 A 
HETATM   19 CL   UNL     1      -3.270  -4.836 -33.895  1.00  0.00    -0.081 Cl
HETATM   20  C   UNL     1      -5.792  -4.303 -34.644  1.00  0.00     0.027 A 
HETATM   21  C   UNL     1      -6.878  -3.465 -34.891  1.00  0.00     0.004 A 
HETATM   22  C   UNL     1      -6.777  -2.090 -34.656  1.00  0.00     0.032 A 
BRANCH  17  23
HETATM   23  O   UNL     1      -3.350  -1.841 -33.387  1.00  0.00    -0.347 OA
BRANCH  23  24
HETATM   24  C   UNL     1      -3.317  -1.917 -31.952  1.00  0.00     0.171 C 
HETATM   25  C   UNL     1      -2.947  -0.546 -31.417  1.00  0.00     0.034 C 
ENDBRANCH  23  24
ENDBRANCH  17  23
ENDBRANCH   1  16
TORSDOF 4
ENDMDL
MODEL 4
REMARK VINA RESULT:      -7.7      4.499      6.853
REMARK  4 active torsions:
REMARK  status: ('A' for Active; 'I' for Inactive)
REMARK    1  A    between atoms: C_2  and  O_3 
REMARK    2  A    between atoms: O_3  and  C_4 
REMARK    3  A    between atoms: C_10  and  N_11 
REMARK       I    between atoms: N_11  and  C_12 
REMARK    4  A    between atoms: C_12  and  C_13 
ROOT
HETATM    1  N   UNL     1      -8.108  -0.433 -33.674  1.00  0.00    -0.320 N 
HETATM    2  C   UNL     1      -8.382   0.751 -34.329  1.00  0.00     0.257 C 
HETATM    3  O   UNL     1      -7.646   1.332 -35.118  1.00  0.00    -0.267 OA
HETATM    4  H   UNL     1      -8.849  -0.885 -33.149  1.00  0.00     0.169 HD
ENDROOT
BRANCH   2   5
HETATM    5  C   UNL     1      -9.722   1.335 -34.066  1.00  0.00     0.052 A 
HETATM    6  C   UNL     1      -9.864   2.721 -34.168  1.00  0.00     0.136 A 
HETATM    7  N   UNL     1     -11.006   3.420 -33.958  1.00  0.00    -0.238 NA
HETATM    8  C   UNL     1     -12.062   2.662 -33.592  1.00  0.00     0.177 A 
HETATM    9  C   UNL     1     -11.996   1.281 -33.448  1.00  0.00     0.083 A 
HETATM   10  N   UNL     1     -13.312   3.131 -33.310  1.00  0.00    -0.214 NA
HETATM   11  N   UNL     1     -13.259   0.929 -33.047  1.00  0.00    -0.342 N 
HETATM   12  C   UNL     1     -10.823   0.561 -33.681  1.00  0.00     0.052 A 
HETATM   13  H   UNL     1     -13.581  -0.004 -32.832  1.00  0.00     0.167 HD
HETATM   14  C   UNL     1     -14.021   2.071 -32.980  1.00  0.00     0.103 A 
HETATM   15  C   UNL     1     -15.444   2.058 -32.566  1.00  0.00     0.091 C 
ENDBRANCH   2   5
BRANCH   1  16
HETATM   16  C   UNL     1      -6.894  -1.161 -33.684  1.00  0.00     0.070 A 
HETATM   17  C   UNL     1      -5.883  -0.750 -32.795  1.00  0.00     0.117 A 
HETATM   18  C   UNL     1      -4.625  -1.372 -32.813  1.00  0.00     0.069 A 
HETATM   19 CL   UNL     1      -3.332  -0.839 -31.801  1.00  0.00    -0.081 Cl
HETATM   20  C   UNL     1      -4.391  -2.445 -33.673  1.00  0.00     0.027 A 
HETATM   21  C   UNL     1      -5.402  -2.880 -34.528  1.00  0.00     0.004 A 
HETATM   22  C   UNL     1      -6.644  -2.237 -34.539  1.00  0.00     0.032 A 
BRANCH  17  23
HETATM   23  O   UNL     1      -6.139   0.314 -31.959  1.00  0.00    -0.347 OA
BRANCH  23  24
HETATM   24  C   UNL     1      -6.547  -0.149 -30.662  1.00  0.00     0.171 C 
HETATM   25  C   UNL     1      -5.839   0.692 -29.617  1.00  0.00     0.034 C 
ENDBRANCH  23  24
ENDBRANCH  17  23
ENDBRANCH   1  16
TORSDOF 4
ENDMDL
MODEL 5
REMARK VINA RESULT:      -7.3      1.986      3.387
REMARK  4 active torsions:
REMARK  status: ('A' for Active; 'I' for Inactive)
REMARK    1  A    between atoms: C_2  and  O_3 
REMARK    2  A    between atoms: O_3  and  C_4 
REMARK    3  A    between atoms: C_10  and  N_11 
REMARK       I    between atoms: N_11  and  C_12 
REMARK    4  A    between atoms: C_12  and  C_13 
ROOT
HETATM    1  N   UNL     1      -4.932   1.569 -32.945  1.00  0.00    -0.320 N 
HETATM    2  C   UNL     1      -5.259   2.349 -31.854  1.00  0.00     0.257 C 
HETATM    3  O   UNL     1      -6.212   2.183 -31.102  1.00  0.00    -0.267 OA
HETATM    4  H   UNL     1      -4.045   1.726 -33.411  1.00  0.00     0.169 HD
ENDROOT
BRANCH   2   5
HETATM    5  C   UNL     1      -4.326   3.467 -31.561  1.00  0.00     0.052 A 
HETATM    6  C   UNL     1      -4.849   4.619 -30.970  1.00  0.00     0.136 A 
HETATM    7  N   UNL     1      -4.149   5.731 -30.639  1.00  0.00    -0.238 NA
HETATM    8  C   UNL     1      -2.838   5.676 -30.959  1.00  0.00     0.177 A 
HETATM    9  C   UNL     1      -2.246   4.576 -31.568  1.00  0.00     0.083 A 
HETATM   10  N   UNL     1      -1.929   6.672 -30.744  1.00  0.00    -0.214 NA
HETATM   11  N   UNL     1      -0.938   4.951 -31.732  1.00  0.00    -0.342 N 
HETATM   12  C   UNL     1      -2.966   3.425 -31.892  1.00  0.00     0.052 A 
HETATM   13  H   UNL     1      -0.205   4.400 -32.158  1.00  0.00     0.167 HD
HETATM   14  C   UNL     1      -0.788   6.218 -31.220  1.00  0.00     0.103 A 
HETATM   15  C   UNL     1       0.506   6.940 -31.242  1.00  0.00     0.091 C 
ENDBRANCH   2   5
BRANCH   1  16
HETATM   16  C   UNL     1      -5.676   0.496 -33.489  1.00  0.00     0.070 A 
HETATM   17  C   UNL     1      -5.001  -0.719 -33.710  1.00  0.00     0.117 A 
HETATM   18  C   UNL     1      -5.656  -1.796 -34.326  1.00  0.00     0.069 A 
HETATM   19 CL   UNL     1      -4.836  -3.270 -34.695  1.00  0.00    -0.081 Cl
HETATM   20  C   UNL     1      -7.004  -1.687 -34.669  1.00  0.00     0.027 A 
HETATM   21  C   UNL     1      -7.687  -0.499 -34.417  1.00  0.00     0.004 A 
HETATM   22  C   UNL     1      -7.026   0.589 -33.838  1.00  0.00     0.032 A 
BRANCH  17  23
HETATM   23  O   UNL     1      -3.669  -0.798 -33.367  1.00  0.00    -0.347 OA
BRANCH  23  24
HETATM   24  C   UNL     1      -3.519  -1.348 -32.048  1.00  0.00     0.171 C 
HETATM   25  C   UNL     1      -2.782  -0.333 -31.195  1.00  0.00     0.034 C 
ENDBRANCH  23  24
ENDBRANCH  17  23
ENDBRANCH   1  16
TORSDOF 4
ENDMDL
MODEL 6
REMARK VINA RESULT:      -7.2      3.629      8.036
REMARK  4 active torsions:
REMARK  status: ('A' for Active; 'I' for Inactive)
REMARK    1  A    between atoms: C_2  and  O_3 
REMARK    2  A    between atoms: O_3  and  C_4 
REMARK    3  A    between atoms: C_10  and  N_11 
REMARK       I    between atoms: N_11  and  C_12 
REMARK    4  A    between atoms: C_12  and  C_13 
ROOT
HETATM    1  N   UNL     1      -4.555   2.636 -31.801  1.00  0.00    -0.320 N 
HETATM    2  C   UNL     1      -5.445   2.217 -32.769  1.00  0.00     0.257 C 
HETATM    3  O   UNL     1      -6.272   2.912 -33.346  1.00  0.00    -0.267 OA
HETATM    4  H   UNL     1      -3.828   1.999 -31.494  1.00  0.00     0.169 HD
ENDROOT
BRANCH   2   5
HETATM    5  C   UNL     1      -5.341   0.787 -33.161  1.00  0.00     0.052 A 
HETATM    6  C   UNL     1      -4.136   0.126 -32.913  1.00  0.00     0.136 A 
HETATM    7  N   UNL     1      -3.865  -1.168 -33.207  1.00  0.00    -0.238 NA
HETATM    8  C   UNL     1      -4.875  -1.821 -33.820  1.00  0.00     0.177 A 
HETATM    9  C   UNL     1      -6.096  -1.228 -34.121  1.00  0.00     0.083 A 
HETATM   10  N   UNL     1      -4.842  -3.123 -34.231  1.00  0.00    -0.214 NA
HETATM   11  N   UNL     1      -6.801  -2.222 -34.751  1.00  0.00    -0.342 N 
HETATM   12  C   UNL     1      -6.379   0.101 -33.802  1.00  0.00     0.052 A 
HETATM   13  H   UNL     1      -7.737  -2.146 -35.125  1.00  0.00     0.167 HD
HETATM   14  C   UNL     1      -6.012  -3.346 -34.793  1.00  0.00     0.103 A 
HETATM   15  C   UNL     1      -6.461  -4.612 -35.418  1.00  0.00     0.091 C 
ENDBRANCH   2   5
BRANCH   1  16
HETATM   16  C   UNL     1      -4.483   3.913 -31.194  1.00  0.00     0.070 A 
HETATM   17  C   UNL     1      -3.480   4.792 -31.644  1.00  0.00     0.117 A 
HETATM   18  C   UNL     1      -3.298   6.039 -31.027  1.00  0.00     0.069 A 
HETATM   19 CL   UNL     1      -2.022   7.106 -31.492  1.00  0.00    -0.081 Cl
HETATM   20  C   UNL     1      -4.153   6.439 -30.001  1.00  0.00     0.027 A 
HETATM   21  C   UNL     1      -5.172   5.588 -29.578  1.00  0.00     0.004 A 
HETATM   22  C   UNL     1      -5.332   4.329 -30.166  1.00  0.00     0.032 A 
BRANCH  17  23
HETATM   23  O   UNL     1      -2.646   4.370 -32.656  1.00  0.00    -0.347 OA
BRANCH  23  24
HETATM   24  C   UNL     1      -3.057   4.926 -33.915  1.00  0.00     0.171 C 
HETATM   25  C   UNL     1      -1.822   5.104 -34.778  1.00  0.00     0.034 C 
ENDBRANCH  23  24
ENDBRANCH  17  23
ENDBRANCH   1  16
TORSDOF 4
ENDMDL
MODEL 7
REMARK VINA RESULT:      -7.0      3.035      4.938
REMARK  4 active torsions:
REMARK  status: ('A' for Active; 'I' for Inactive)
REMARK    1  A    between atoms: C_2  and  O_3 
REMARK    2  A    between atoms: O_3  and  C_4 
REMARK    3  A    between atoms: C_10  and  N_11 
REMARK       I    between atoms: N_11  and  C_12 
REMARK    4  A    between atoms: C_12  and  C_13 
ROOT
HETATM    1  N   UNL     1      -3.487   2.946 -31.716  1.00  0.00    -0.320 N 
HETATM    2  C   UNL     1      -2.646   3.891 -32.270  1.00  0.00     0.257 C 
HETATM    3  O   UNL     1      -2.301   3.958 -33.443  1.00  0.00    -0.267 OA
HETATM    4  H   UNL     1      -3.805   3.072 -30.762  1.00  0.00     0.169 HD
ENDROOT
BRANCH   2   5
HETATM    5  C   UNL     1      -2.159   4.940 -31.338  1.00  0.00     0.052 A 
HETATM    6  C   UNL     1      -3.062   5.923 -30.928  1.00  0.00     0.136 A 
HETATM    7  N   UNL     1      -2.790   6.953 -30.090  1.00  0.00    -0.238 NA
HETATM    8  C   UNL     1      -1.508   7.001 -29.668  1.00  0.00     0.177 A 
HETATM    9  C   UNL     1      -0.544   6.074 -30.048  1.00  0.00     0.083 A 
HETATM   10  N   UNL     1      -0.984   7.947 -28.836  1.00  0.00    -0.214 NA
HETATM   11  N   UNL     1       0.597   6.508 -29.424  1.00  0.00    -0.342 N 
HETATM   12  C   UNL     1      -0.831   5.004 -30.898  1.00  0.00     0.052 A 
HETATM   13  H   UNL     1       1.511   6.081 -29.484  1.00  0.00     0.167 HD
HETATM   14  C   UNL     1       0.288   7.635 -28.702  1.00  0.00     0.103 A 
HETATM   15  C   UNL     1       1.297   8.376 -27.909  1.00  0.00     0.091 C 
ENDBRANCH   2   5
BRANCH   1  16
HETATM   16  C   UNL     1      -4.033   1.804 -32.350  1.00  0.00     0.070 A 
HETATM   17  C   UNL     1      -5.331   1.914 -32.883  1.00  0.00     0.117 A 
HETATM   18  C   UNL     1      -5.965   0.797 -33.447  1.00  0.00     0.069 A 
HETATM   19 CL   UNL     1      -7.589   0.870 -34.030  1.00  0.00    -0.081 Cl
HETATM   20  C   UNL     1      -5.285  -0.418 -33.538  1.00  0.00     0.027 A 
HETATM   21  C   UNL     1      -3.985  -0.521 -33.046  1.00  0.00     0.004 A 
HETATM   22  C   UNL     1      -3.365   0.581 -32.449  1.00  0.00     0.032 A 
BRANCH  17  23
HETATM   23  O   UNL     1      -5.982   3.123 -32.776  1.00  0.00    -0.347 OA
BRANCH  23  24
HETATM   24  C   UNL     1      -5.933   3.835 -34.024  1.00  0.00     0.171 C 
HETATM   25  C   UNL     1      -5.699   5.303 -33.720  1.00  0.00     0.034 C 
ENDBRANCH  23  24
ENDBRANCH  17  23
ENDBRANCH   1  16
TORSDOF 4
ENDMDL
MODEL 8
REMARK VINA RESULT:      -7.0      4.578      6.462
REMARK  4 active torsions:
REMARK  status: ('A' for Active; 'I' for Inactive)
REMARK    1  A    between atoms: C_2  and  O_3 
REMARK    2  A    between atoms: O_3  and  C_4 
REMARK    3  A    between atoms: C_10  and  N_11 
REMARK       I    between atoms: N_11  and  C_12 
REMARK    4  A    between atoms: C_12  and  C_13 
ROOT
HETATM    1  N   UNL     1      -7.995   0.447 -34.284  1.00  0.00    -0.320 N 
HETATM    2  C   UNL     1      -9.138   0.466 -33.510  1.00  0.00     0.257 C 
HETATM    3  O   UNL     1      -9.374  -0.250 -32.545  1.00  0.00    -0.267 OA
HETATM    4  H   UNL     1      -7.857   1.178 -34.973  1.00  0.00     0.169 HD
ENDROOT
BRANCH   2   5
HETATM    5  C   UNL     1     -10.147   1.491 -33.880  1.00  0.00     0.052 A 
HETATM    6  C   UNL     1     -11.497   1.157 -33.757  1.00  0.00     0.136 A 
HETATM    7  N   UNL     1     -12.545   1.962 -34.053  1.00  0.00    -0.238 NA
HETATM    8  C   UNL     1     -12.195   3.175 -34.533  1.00  0.00     0.177 A 
HETATM    9  C   UNL     1     -10.876   3.575 -34.706  1.00  0.00     0.083 A 
HETATM   10  N   UNL     1     -13.065   4.155 -34.917  1.00  0.00    -0.214 NA
HETATM   11  N   UNL     1     -10.978   4.838 -35.230  1.00  0.00    -0.342 N 
HETATM   12  C   UNL     1      -9.797   2.750 -34.385  1.00  0.00     0.052 A 
HETATM   13  H   UNL     1     -10.211   5.439 -35.498  1.00  0.00     0.167 HD
HETATM   14  C   UNL     1     -12.312   5.150 -35.338  1.00  0.00     0.103 A 
HETATM   15  C   UNL     1     -12.787   6.444 -35.881  1.00  0.00     0.091 C 
ENDBRANCH   2   5
BRANCH   1  16
HETATM   16  C   UNL     1      -6.915  -0.465 -34.201  1.00  0.00     0.070 A 
HETATM   17  C   UNL     1      -5.727  -0.013 -33.598  1.00  0.00     0.117 A 
HETATM   18  C   UNL     1      -4.591  -0.836 -33.560  1.00  0.00     0.069 A 
HETATM   19 CL   UNL     1      -3.089  -0.285 -32.909  1.00  0.00    -0.081 Cl
HETATM   20  C   UNL     1      -4.654  -2.133 -34.067  1.00  0.00     0.027 A 
HETATM   21  C   UNL     1      -5.840  -2.599 -34.631  1.00  0.00     0.004 A 
HETATM   22  C   UNL     1      -6.962  -1.767 -34.704  1.00  0.00     0.032 A 
BRANCH  17  23
HETATM   23  O   UNL     1      -5.690   1.274 -33.108  1.00  0.00    -0.347 OA
BRANCH  23  24
HETATM   24  C   UNL     1      -5.949   1.285 -31.694  1.00  0.00     0.171 C 
HETATM   25  C   UNL     1      -6.850   2.466 -31.389  1.00  0.00     0.034 C 
ENDBRANCH  23  24
ENDBRANCH  17  23
ENDBRANCH   1  16
TORSDOF 4
ENDMDL
MODEL 9
REMARK VINA RESULT:      -6.9     14.381     16.316
REMARK  4 active torsions:
REMARK  status: ('A' for Active; 'I' for Inactive)
REMARK    1  A    between atoms: C_2  and  O_3 
REMARK    2  A    between atoms: O_3  and  C_4 
REMARK    3  A    between atoms: C_10  and  N_11 
REMARK       I    between atoms: N_11  and  C_12 
REMARK    4  A    between atoms: C_12  and  C_13 
ROOT
HETATM    1  N   UNL     1      -7.135 -13.202 -39.477  1.00  0.00    -0.320 N 
HETATM    2  C   UNL     1      -6.092 -12.894 -40.328  1.00  0.00     0.257 C 
HETATM    3  O   UNL     1      -6.189 -12.520 -41.491  1.00  0.00    -0.267 OA
HETATM    4  H   UNL     1      -6.934 -13.371 -38.498  1.00  0.00     0.169 HD
ENDROOT
BRANCH   2   5
HETATM    5  C   UNL     1      -4.732 -12.995 -39.740  1.00  0.00     0.052 A 
HETATM    6  C   UNL     1      -4.422 -12.164 -38.661  1.00  0.00     0.136 A 
HETATM    7  N   UNL     1      -3.235 -12.119 -38.009  1.00  0.00    -0.238 NA
HETATM    8  C   UNL     1      -2.296 -12.952 -38.506  1.00  0.00     0.177 A 
HETATM    9  C   UNL     1      -2.519 -13.793 -39.589  1.00  0.00     0.083 A 
HETATM   10  N   UNL     1      -1.021 -13.079 -38.034  1.00  0.00    -0.214 NA
HETATM   11  N   UNL     1      -1.317 -14.427 -39.770  1.00  0.00    -0.342 N 
HETATM   12  C   UNL     1      -3.748 -13.850 -40.250  1.00  0.00     0.052 A 
HETATM   13  H   UNL     1      -1.102 -15.109 -40.484  1.00  0.00     0.167 HD
HETATM   14  C   UNL     1      -0.445 -13.972 -38.812  1.00  0.00     0.103 A 
HETATM   15  C   UNL     1       0.958 -14.442 -38.721  1.00  0.00     0.091 C 
ENDBRANCH   2   5
BRANCH   1  16
HETATM   16  C   UNL     1      -8.513 -13.261 -39.792  1.00  0.00     0.070 A 
HETATM   17  C   UNL     1      -9.059 -14.523 -40.092  1.00  0.00     0.117 A 
HETATM   18  C   UNL     1     -10.397 -14.642 -40.496  1.00  0.00     0.069 A 
HETATM   19 CL   UNL     1     -11.077 -16.161 -40.958  1.00  0.00    -0.081 Cl
HETATM   20  C   UNL     1     -11.213 -13.512 -40.543  1.00  0.00     0.027 A 
HETATM   21  C   UNL     1     -10.688 -12.265 -40.210  1.00  0.00     0.004 A 
HETATM   22  C   UNL     1      -9.344 -12.139 -39.844  1.00  0.00     0.032 A 
BRANCH  17  23
HETATM   23  O   UNL     1      -8.230 -15.622 -40.042  1.00  0.00    -0.347 OA
BRANCH  23  24
HETATM   24  C   UNL     1      -7.785 -15.981 -41.360  1.00  0.00     0.171 C 
HETATM   25  C   UNL     1      -6.348 -16.458 -41.259  1.00  0.00     0.034 C 
ENDBRANCH  23  24
ENDBRANCH  17  23
ENDBRANCH   1  16
TORSDOF 4
ENDMDL
MODEL 10
REMARK VINA RESULT:      -6.9      5.967      8.328
REMARK  4 active torsions:
REMARK  status: ('A' for Active; 'I' for Inactive)
REMARK    1  A    between atoms: C_2  and  O_3 
REMARK    2  A    between atoms: O_3  and  C_4 
REMARK    3  A    between atoms: C_10  and  N_11 
REMARK       I    between atoms: N_11  and  C_12 
REMARK    4  A    between atoms: C_12  and  C_13 
ROOT
HETATM    1  N   UNL     1      -9.760   1.000 -33.358  1.00  0.00    -0.320 N 
HETATM    2  C   UNL     1     -10.265   2.205 -33.804  1.00  0.00     0.257 C 
HETATM    3  O   UNL     1      -9.734   2.963 -34.606  1.00  0.00    -0.267 OA
HETATM    4  H   UNL     1     -10.353   0.398 -32.797  1.00  0.00     0.169 HD
ENDROOT
BRANCH   2   5
HETATM    5  C   UNL     1     -11.603   2.576 -33.276  1.00  0.00     0.052 A 
HETATM    6  C   UNL     1     -11.676   3.618 -32.350  1.00  0.00     0.136 A 
HETATM    7  N   UNL     1     -12.805   4.083 -31.764  1.00  0.00    -0.238 NA
HETATM    8  C   UNL     1     -13.928   3.424 -32.121  1.00  0.00     0.177 A 
HETATM    9  C   UNL     1     -13.936   2.363 -33.019  1.00  0.00     0.083 A 
HETATM   10  N   UNL     1     -15.184   3.691 -31.658  1.00  0.00    -0.214 NA
HETATM   11  N   UNL     1     -15.252   1.982 -33.070  1.00  0.00    -0.342 N 
HETATM   12  C   UNL     1     -12.773   1.896 -33.634  1.00  0.00     0.052 A 
HETATM   13  H   UNL     1     -15.635   1.223 -33.617  1.00  0.00     0.167 HD
HETATM   14  C   UNL     1     -15.970   2.809 -32.240  1.00  0.00     0.103 A 
HETATM   15  C   UNL     1     -17.433   2.670 -32.045  1.00  0.00     0.091 C 
ENDBRANCH   2   5
BRANCH   1  16
HETATM   16  C   UNL     1      -8.490   0.442 -33.639  1.00  0.00     0.070 A 
HETATM   17  C   UNL     1      -7.545   0.418 -32.596  1.00  0.00     0.117 A 
HETATM   18  C   UNL     1      -6.240  -0.041 -32.829  1.00  0.00     0.069 A 
HETATM   19 CL   UNL     1      -5.029  -0.003 -31.599  1.00  0.00    -0.081 Cl
HETATM   20  C   UNL     1      -5.890  -0.535 -34.085  1.00  0.00     0.027 A 
HETATM   21  C   UNL     1      -6.833  -0.548 -35.111  1.00  0.00     0.004 A 
HETATM   22  C   UNL     1      -8.124  -0.056 -34.892  1.00  0.00     0.032 A 
BRANCH  17  23
HETATM   23  O   UNL     1      -7.916   0.915 -31.366  1.00  0.00    -0.347 OA
BRANCH  23  24
HETATM   24  C   UNL     1      -7.607   2.315 -31.272  1.00  0.00     0.171 C 
HETATM   25  C   UNL     1      -6.956   2.565 -29.925  1.00  0.00     0.034 C 
ENDBRANCH  23  24
ENDBRANCH  17  23
ENDBRANCH   1  16
TORSDOF 4
ENDMDL
