MODEL 1
REMARK VINA RESULT:      -8.3      0.000      0.000
REMARK  4 active torsions:
REMARK  status: ('A' for Active; 'I' for Inactive)
REMARK    1  A    between atoms: C_2  and  O_3 
REMARK    2  A    between atoms: O_3  and  C_4 
REMARK    3  A    between atoms: C_9  and  C_10 
REMARK       I    between atoms: C_10  and  N_11 
REMARK    4  A    between atoms: N_11  and  C_12 
ROOT
HETATM    1  C   UNL     1      -4.784   4.005 -30.866  1.00  0.00     0.276 C 
HETATM    2  N   UNL     1      -3.530   4.592 -30.751  1.00  0.00    -0.350 N 
HETATM    3  O   UNL     1      -5.810   4.582 -30.523  1.00  0.00    -0.265 OA
HETATM    4  H   UNL     1      -2.828   4.026 -31.226  1.00  0.00     0.163 HD
ENDROOT
BRANCH   1   5
HETATM    5  C   UNL     1      -4.755   2.663 -31.410  1.00  0.00     0.150 A 
HETATM    6  O   UNL     1      -3.881   1.760 -30.859  1.00  0.00    -0.304 OA
HETATM    7  C   UNL     1      -3.977   0.613 -31.582  1.00  0.00     0.087 A 
HETATM    8  C   UNL     1      -4.927   0.750 -32.584  1.00  0.00     0.009 A 
HETATM    9  C   UNL     1      -3.227  -0.539 -31.367  1.00  0.00     0.041 A 
HETATM   10  C   UNL     1      -5.155  -0.343 -33.448  1.00  0.00     0.051 A 
HETATM   11  C   UNL     1      -5.448   2.076 -32.459  1.00  0.00    -0.009 A 
HETATM   12  C   UNL     1      -4.407  -1.516 -33.275  1.00  0.00     0.069 A 
HETATM   13  C   UNL     1      -3.464  -1.604 -32.243  1.00  0.00     0.039 A 
HETATM   14  C   UNL     1      -6.495   2.711 -33.302  1.00  0.00     0.052 C 
BRANCH  12  15
HETATM   15  O   UNL     1      -4.503  -2.642 -34.046  1.00  0.00    -0.351 OA
BRANCH  15  16
HETATM   16  C   UNL     1      -5.574  -2.701 -34.988  1.00  0.00     0.171 C 
HETATM   17  C   UNL     1      -6.126  -4.114 -34.985  1.00  0.00     0.034 C 
ENDBRANCH  15  16
ENDBRANCH  12  15
ENDBRANCH   1   5
BRANCH   2  18
HETATM   18  C   UNL     1      -3.290   6.029 -30.728  1.00  0.00     0.089 C 
HETATM   19  C   UNL     1      -3.206   6.592 -32.154  1.00  0.00     0.063 C 
HETATM   20  C   UNL     1      -1.861   6.366 -32.867  1.00  0.00     0.121 C 
HETATM   21  C   UNL     1      -1.672   4.938 -33.390  1.00  0.00     0.046 C 
HETATM   22  C   UNL     1      -1.767   7.318 -34.078  1.00  0.00     0.046 C 
HETATM   23  N   UNL     1      -0.714   6.745 -31.955  1.00  0.00    -0.059 N 
HETATM   24  H   UNL     1      -0.645   7.773 -31.961  1.00  0.00     0.279 HD
HETATM   25  H   UNL     1       0.171   6.432 -32.383  1.00  0.00     0.279 HD
HETATM   26  C   UNL     1      -0.719   6.313 -30.500  1.00  0.00     0.121 C 
HETATM   27  C   UNL     1       0.300   7.226 -29.784  1.00  0.00     0.046 C 
HETATM   28  C   UNL     1      -0.209   4.875 -30.377  1.00  0.00     0.046 C 
HETATM   29  C   UNL     1      -2.109   6.563 -29.907  1.00  0.00     0.063 C 
ENDBRANCH   2  18
TORSDOF 4
ENDMDL
MODEL 2
REMARK VINA RESULT:      -8.0      1.681      3.025
REMARK  4 active torsions:
REMARK  status: ('A' for Active; 'I' for Inactive)
REMARK    1  A    between atoms: C_2  and  O_3 
REMARK    2  A    between atoms: O_3  and  C_4 
REMARK    3  A    between atoms: C_9  and  C_10 
REMARK       I    between atoms: C_10  and  N_11 
REMARK    4  A    between atoms: N_11  and  C_12 
ROOT
HETATM    1  C   UNL     1      -4.541   2.245 -30.999  1.00  0.00     0.276 C 
HETATM    2  N   UNL     1      -3.586   3.168 -31.406  1.00  0.00    -0.350 N 
HETATM    3  O   UNL     1      -5.124   2.336 -29.925  1.00  0.00    -0.265 OA
HETATM    4  H   UNL     1      -3.332   3.012 -32.381  1.00  0.00     0.163 HD
ENDROOT
BRANCH   1   5
HETATM    5  C   UNL     1      -4.765   1.176 -31.952  1.00  0.00     0.150 A 
HETATM    6  O   UNL     1      -5.882   1.239 -32.745  1.00  0.00    -0.304 OA
HETATM    7  C   UNL     1      -5.917   0.101 -33.485  1.00  0.00     0.087 A 
HETATM    8  C   UNL     1      -4.816  -0.695 -33.201  1.00  0.00     0.009 A 
HETATM    9  C   UNL     1      -6.914  -0.239 -34.393  1.00  0.00     0.041 A 
HETATM   10  C   UNL     1      -4.690  -1.932 -33.870  1.00  0.00     0.051 A 
HETATM   11  C   UNL     1      -4.056   0.013 -32.219  1.00  0.00    -0.009 A 
HETATM   12  C   UNL     1      -5.684  -2.318 -34.780  1.00  0.00     0.069 A 
HETATM   13  C   UNL     1      -6.772  -1.475 -35.035  1.00  0.00     0.039 A 
HETATM   14  C   UNL     1      -2.783  -0.419 -31.587  1.00  0.00     0.052 C 
BRANCH  12  15
HETATM   15  O   UNL     1      -5.706  -3.493 -35.482  1.00  0.00    -0.351 OA
BRANCH  15  16
HETATM   16  C   UNL     1      -5.986  -4.687 -34.752  1.00  0.00     0.171 C 
HETATM   17  C   UNL     1      -4.671  -5.242 -34.235  1.00  0.00     0.034 C 
ENDBRANCH  15  16
ENDBRANCH  12  15
ENDBRANCH   1   5
BRANCH   2  18
HETATM   18  C   UNL     1      -3.518   4.546 -30.936  1.00  0.00     0.089 C 
HETATM   19  C   UNL     1      -4.856   5.265 -31.156  1.00  0.00     0.063 C 
HETATM   20  C   UNL     1      -5.108   5.754 -32.594  1.00  0.00     0.121 C 
HETATM   21  C   UNL     1      -5.517   4.639 -33.562  1.00  0.00     0.046 C 
HETATM   22  C   UNL     1      -6.247   6.795 -32.580  1.00  0.00     0.046 C 
HETATM   23  N   UNL     1      -3.890   6.483 -33.120  1.00  0.00    -0.059 N 
HETATM   24  H   UNL     1      -3.894   7.426 -32.704  1.00  0.00     0.279 HD
HETATM   25  H   UNL     1      -4.013   6.654 -34.129  1.00  0.00     0.279 HD
HETATM   26  C   UNL     1      -2.502   5.912 -32.898  1.00  0.00     0.121 C 
HETATM   27  C   UNL     1      -1.521   7.082 -33.126  1.00  0.00     0.046 C 
HETATM   28  C   UNL     1      -2.197   4.848 -33.955  1.00  0.00     0.046 C 
HETATM   29  C   UNL     1      -2.379   5.440 -31.446  1.00  0.00     0.063 C 
ENDBRANCH   2  18
TORSDOF 4
ENDMDL
MODEL 3
REMARK VINA RESULT:      -8.0      2.047      2.840
REMARK  4 active torsions:
REMARK  status: ('A' for Active; 'I' for Inactive)
REMARK    1  A    between atoms: C_2  and  O_3 
REMARK    2  A    between atoms: O_3  and  C_4 
REMARK    3  A    between atoms: C_9  and  C_10 
REMARK       I    between atoms: C_10  and  N_11 
REMARK    4  A    between atoms: N_11  and  C_12 
ROOT
HETATM    1  C   UNL     1      -6.287   2.735 -33.230  1.00  0.00     0.276 C 
HETATM    2  N   UNL     1      -5.233   3.635 -33.311  1.00  0.00    -0.350 N 
HETATM    3  O   UNL     1      -7.446   3.097 -33.060  1.00  0.00    -0.265 OA
HETATM    4  H   UNL     1      -4.380   3.160 -33.606  1.00  0.00     0.163 HD
ENDROOT
BRANCH   1   5
HETATM    5  C   UNL     1      -5.884   1.349 -33.353  1.00  0.00     0.150 A 
HETATM    6  O   UNL     1      -4.960   0.862 -32.464  1.00  0.00    -0.304 OA
HETATM    7  C   UNL     1      -4.685  -0.418 -32.828  1.00  0.00     0.087 A 
HETATM    8  C   UNL     1      -5.443  -0.781 -33.932  1.00  0.00     0.009 A 
HETATM    9  C   UNL     1      -3.767  -1.254 -32.200  1.00  0.00     0.041 A 
HETATM   10  C   UNL     1      -5.279  -2.080 -34.462  1.00  0.00     0.051 A 
HETATM   11  C   UNL     1      -6.238   0.360 -34.261  1.00  0.00    -0.009 A 
HETATM   12  C   UNL     1      -4.352  -2.946 -33.868  1.00  0.00     0.069 A 
HETATM   13  C   UNL     1      -3.616  -2.531 -32.750  1.00  0.00     0.039 A 
HETATM   14  C   UNL     1      -7.221   0.480 -35.370  1.00  0.00     0.052 C 
BRANCH  12  15
HETATM   15  O   UNL     1      -4.072  -4.219 -34.284  1.00  0.00    -0.351 OA
BRANCH  15  16
HETATM   16  C   UNL     1      -5.143  -5.162 -34.272  1.00  0.00     0.171 C 
HETATM   17  C   UNL     1      -6.086  -4.818 -35.411  1.00  0.00     0.034 C 
ENDBRANCH  15  16
ENDBRANCH  12  15
ENDBRANCH   1   5
BRANCH   2  18
HETATM   18  C   UNL     1      -5.366   5.028 -33.717  1.00  0.00     0.089 C 
HETATM   19  C   UNL     1      -4.069   5.536 -34.363  1.00  0.00     0.063 C 
HETATM   20  C   UNL     1      -2.952   5.917 -33.375  1.00  0.00     0.121 C 
HETATM   21  C   UNL     1      -2.216   4.712 -32.780  1.00  0.00     0.046 C 
HETATM   22  C   UNL     1      -1.904   6.782 -34.109  1.00  0.00     0.046 C 
HETATM   23  N   UNL     1      -3.506   6.790 -32.270  1.00  0.00    -0.059 N 
HETATM   24  H   UNL     1      -3.612   7.740 -32.654  1.00  0.00     0.279 HD
HETATM   25  H   UNL     1      -2.789   6.895 -31.536  1.00  0.00     0.279 HD
HETATM   26  C   UNL     1      -4.823   6.436 -31.604  1.00  0.00     0.121 C 
HETATM   27  C   UNL     1      -5.300   7.725 -30.899  1.00  0.00     0.046 C 
HETATM   28  C   UNL     1      -4.595   5.381 -30.519  1.00  0.00     0.046 C 
HETATM   29  C   UNL     1      -5.843   6.054 -32.680  1.00  0.00     0.063 C 
ENDBRANCH   2  18
TORSDOF 4
ENDMDL
MODEL 4
REMARK VINA RESULT:      -7.9      5.191      7.952
REMARK  4 active torsions:
REMARK  status: ('A' for Active; 'I' for Inactive)
REMARK    1  A    between atoms: C_2  and  O_3 
REMARK    2  A    between atoms: O_3  and  C_4 
REMARK    3  A    between atoms: C_9  and  C_10 
REMARK       I    between atoms: C_10  and  N_11 
REMARK    4  A    between atoms: N_11  and  C_12 
ROOT
HETATM    1  C   UNL     1      -9.460   2.582 -31.613  1.00  0.00     0.276 C 
HETATM    2  N   UNL     1     -10.212   3.137 -32.641  1.00  0.00    -0.350 N 
HETATM    3  O   UNL     1      -9.658   2.856 -30.435  1.00  0.00    -0.265 OA
HETATM    4  H   UNL     1     -10.003   2.674 -33.525  1.00  0.00     0.163 HD
ENDROOT
BRANCH   1   5
HETATM    5  C   UNL     1      -8.429   1.671 -32.068  1.00  0.00     0.150 A 
HETATM    6  O   UNL     1      -8.638   0.989 -33.240  1.00  0.00    -0.304 OA
HETATM    7  C   UNL     1      -7.586   0.148 -33.411  1.00  0.00     0.087 A 
HETATM    8  C   UNL     1      -6.675   0.294 -32.374  1.00  0.00     0.009 A 
HETATM    9  C   UNL     1      -7.434  -0.748 -34.465  1.00  0.00     0.041 A 
HETATM   10  C   UNL     1      -5.517  -0.514 -32.377  1.00  0.00     0.051 A 
HETATM   11  C   UNL     1      -7.213   1.299 -31.511  1.00  0.00    -0.009 A 
HETATM   12  C   UNL     1      -5.336  -1.441 -33.413  1.00  0.00     0.069 A 
HETATM   13  C   UNL     1      -6.283  -1.544 -34.440  1.00  0.00     0.039 A 
HETATM   14  C   UNL     1      -6.612   1.818 -30.255  1.00  0.00     0.052 C 
BRANCH  12  15
HETATM   15  O   UNL     1      -4.279  -2.302 -33.535  1.00  0.00    -0.351 OA
BRANCH  15  16
HETATM   16  C   UNL     1      -4.467  -3.457 -34.351  1.00  0.00     0.171 C 
HETATM   17  C   UNL     1      -3.703  -4.608 -33.721  1.00  0.00     0.034 C 
ENDBRANCH  15  16
ENDBRANCH  12  15
ENDBRANCH   1   5
BRANCH   2  18
HETATM   18  C   UNL     1     -11.566   3.652 -32.487  1.00  0.00     0.089 C 
HETATM   19  C   UNL     1     -12.601   2.540 -32.710  1.00  0.00     0.063 C 
HETATM   20  C   UNL     1     -12.885   2.197 -34.184  1.00  0.00     0.121 C 
HETATM   21  C   UNL     1     -11.792   1.348 -34.841  1.00  0.00     0.046 C 
HETATM   22  C   UNL     1     -14.204   1.399 -34.270  1.00  0.00     0.046 C 
HETATM   23  N   UNL     1     -13.115   3.463 -34.981  1.00  0.00    -0.059 N 
HETATM   24  H   UNL     1     -14.074   3.781 -34.779  1.00  0.00     0.279 HD
HETATM   25  H   UNL     1     -13.137   3.226 -35.984  1.00  0.00     0.279 HD
HETATM   26  C   UNL     1     -12.205   4.662 -34.793  1.00  0.00     0.121 C 
HETATM   27  C   UNL     1     -12.972   5.871 -35.371  1.00  0.00     0.046 C 
HETATM   28  C   UNL     1     -10.931   4.489 -35.624  1.00  0.00     0.046 C 
HETATM   29  C   UNL     1     -11.978   4.889 -33.296  1.00  0.00     0.063 C 
ENDBRANCH   2  18
TORSDOF 4
ENDMDL
MODEL 5
REMARK VINA RESULT:      -7.8      3.087      8.006
REMARK  4 active torsions:
REMARK  status: ('A' for Active; 'I' for Inactive)
REMARK    1  A    between atoms: C_2  and  O_3 
REMARK    2  A    between atoms: O_3  and  C_4 
REMARK    3  A    between atoms: C_9  and  C_10 
REMARK       I    between atoms: C_10  and  N_11 
REMARK    4  A    between atoms: N_11  and  C_12 
ROOT
HETATM    1  C   UNL     1      -6.371   2.148 -30.714  1.00  0.00     0.276 C 
HETATM    2  N   UNL     1      -7.445   2.168 -31.594  1.00  0.00    -0.350 N 
HETATM    3  O   UNL     1      -6.316   1.373 -29.766  1.00  0.00    -0.265 OA
HETATM    4  H   UNL     1      -7.238   2.765 -32.395  1.00  0.00     0.163 HD
ENDROOT
BRANCH   1   5
HETATM    5  C   UNL     1      -5.348   3.128 -31.017  1.00  0.00     0.150 A 
HETATM    6  O   UNL     1      -4.482   2.863 -32.047  1.00  0.00    -0.304 OA
HETATM    7  C   UNL     1      -3.575   3.873 -32.083  1.00  0.00     0.087 A 
HETATM    8  C   UNL     1      -3.857   4.812 -31.101  1.00  0.00     0.009 A 
HETATM    9  C   UNL     1      -2.503   3.962 -32.966  1.00  0.00     0.041 A 
HETATM   10  C   UNL     1      -3.008   5.934 -30.979  1.00  0.00     0.051 A 
HETATM   11  C   UNL     1      -5.022   4.338 -30.421  1.00  0.00    -0.009 A 
HETATM   12  C   UNL     1      -1.907   6.051 -31.839  1.00  0.00     0.069 A 
HETATM   13  C   UNL     1      -1.671   5.077 -32.818  1.00  0.00     0.039 A 
HETATM   14  C   UNL     1      -5.724   4.989 -29.284  1.00  0.00     0.052 C 
BRANCH  12  15
HETATM   15  O   UNL     1      -0.990   7.066 -31.823  1.00  0.00    -0.351 OA
BRANCH  15  16
HETATM   16  C   UNL     1       0.307   6.769 -31.304  1.00  0.00     0.171 C 
HETATM   17  C   UNL     1       0.320   7.136 -29.832  1.00  0.00     0.034 C 
ENDBRANCH  15  16
ENDBRANCH  12  15
ENDBRANCH   1   5
BRANCH   2  18
HETATM   18  C   UNL     1      -8.326   1.035 -31.847  1.00  0.00     0.089 C 
HETATM   19  C   UNL     1      -7.631  -0.012 -32.730  1.00  0.00     0.063 C 
HETATM   20  C   UNL     1      -7.601   0.317 -34.233  1.00  0.00     0.121 C 
HETATM   21  C   UNL     1      -6.557   1.372 -34.614  1.00  0.00     0.046 C 
HETATM   22  C   UNL     1      -7.269  -0.967 -35.023  1.00  0.00     0.046 C 
HETATM   23  N   UNL     1      -8.974   0.747 -34.703  1.00  0.00    -0.059 N 
HETATM   24  H   UNL     1      -9.542  -0.106 -34.810  1.00  0.00     0.279 HD
HETATM   25  H   UNL     1      -8.898   1.119 -35.661  1.00  0.00     0.279 HD
HETATM   26  C   UNL     1      -9.795   1.720 -33.876  1.00  0.00     0.121 C 
HETATM   27  C   UNL     1     -11.250   1.574 -34.373  1.00  0.00     0.046 C 
HETATM   28  C   UNL     1      -9.356   3.157 -34.168  1.00  0.00     0.046 C 
HETATM   29  C   UNL     1      -9.730   1.306 -32.403  1.00  0.00     0.063 C 
ENDBRANCH   2  18
TORSDOF 4
ENDMDL
MODEL 6
REMARK VINA RESULT:      -7.8      5.851      8.678
REMARK  4 active torsions:
REMARK  status: ('A' for Active; 'I' for Inactive)
REMARK    1  A    between atoms: C_2  and  O_3 
REMARK    2  A    between atoms: O_3  and  C_4 
REMARK    3  A    between atoms: C_9  and  C_10 
REMARK       I    between atoms: C_10  and  N_11 
REMARK    4  A    between atoms: N_11  and  C_12 
ROOT
HETATM    1  C   UNL     1      -8.810   2.893 -33.606  1.00  0.00     0.276 C 
HETATM    2  N   UNL     1      -7.959   1.934 -33.071  1.00  0.00    -0.350 N 
HETATM    3  O   UNL     1      -8.392   3.905 -34.157  1.00  0.00    -0.265 OA
HETATM    4  H   UNL     1      -8.485   1.104 -32.799  1.00  0.00     0.163 HD
ENDROOT
BRANCH   1   5
HETATM    5  C   UNL     1     -10.216   2.587 -33.437  1.00  0.00     0.150 A 
HETATM    6  O   UNL     1     -10.647   1.324 -33.754  1.00  0.00    -0.304 OA
HETATM    7  C   UNL     1     -11.996   1.305 -33.596  1.00  0.00     0.087 A 
HETATM    8  C   UNL     1     -12.448   2.539 -33.150  1.00  0.00     0.009 A 
HETATM    9  C   UNL     1     -12.821   0.215 -33.850  1.00  0.00     0.041 A 
HETATM   10  C   UNL     1     -13.834   2.711 -32.941  1.00  0.00     0.051 A 
HETATM   11  C   UNL     1     -11.289   3.367 -33.028  1.00  0.00    -0.009 A 
HETATM   12  C   UNL     1     -14.701   1.642 -33.203  1.00  0.00     0.069 A 
HETATM   13  C   UNL     1     -14.191   0.414 -33.645  1.00  0.00     0.039 A 
HETATM   14  C   UNL     1     -11.242   4.784 -32.584  1.00  0.00     0.052 C 
BRANCH  12  15
HETATM   15  O   UNL     1     -16.062   1.669 -33.067  1.00  0.00    -0.351 OA
BRANCH  15  16
HETATM   16  C   UNL     1     -16.602   2.513 -32.051  1.00  0.00     0.171 C 
HETATM   17  C   UNL     1     -18.004   2.916 -32.469  1.00  0.00     0.034 C 
ENDBRANCH  15  16
ENDBRANCH  12  15
ENDBRANCH   1   5
BRANCH   2  18
HETATM   18  C   UNL     1      -6.587   1.712 -33.509  1.00  0.00     0.089 C 
HETATM   19  C   UNL     1      -6.512   0.536 -34.494  1.00  0.00     0.063 C 
HETATM   20  C   UNL     1      -6.545  -0.861 -33.848  1.00  0.00     0.121 C 
HETATM   21  C   UNL     1      -7.941  -1.297 -33.392  1.00  0.00     0.046 C 
HETATM   22  C   UNL     1      -6.048  -1.902 -34.874  1.00  0.00     0.046 C 
HETATM   23  N   UNL     1      -5.573  -0.926 -32.690  1.00  0.00    -0.059 N 
HETATM   24  H   UNL     1      -4.629  -1.036 -33.088  1.00  0.00     0.279 HD
HETATM   25  H   UNL     1      -5.729  -1.803 -32.171  1.00  0.00     0.279 HD
HETATM   26  C   UNL     1      -5.498   0.213 -31.690  1.00  0.00     0.121 C 
HETATM   27  C   UNL     1      -4.146   0.049 -30.962  1.00  0.00     0.046 C 
HETATM   28  C   UNL     1      -6.602   0.064 -30.640  1.00  0.00     0.046 C 
HETATM   29  C   UNL     1      -5.494   1.545 -32.445  1.00  0.00     0.063 C 
ENDBRANCH   2  18
TORSDOF 4
ENDMDL
MODEL 7
REMARK VINA RESULT:      -7.7      2.762      8.231
REMARK  4 active torsions:
REMARK  status: ('A' for Active; 'I' for Inactive)
REMARK    1  A    between atoms: C_2  and  O_3 
REMARK    2  A    between atoms: O_3  and  C_4 
REMARK    3  A    between atoms: C_9  and  C_10 
REMARK       I    between atoms: C_10  and  N_11 
REMARK    4  A    between atoms: N_11  and  C_12 
ROOT
HETATM    1  C   UNL     1      -4.489   4.751 -33.917  1.00  0.00     0.276 C 
HETATM    2  N   UNL     1      -5.113   3.591 -33.474  1.00  0.00    -0.350 N 
HETATM    3  O   UNL     1      -4.775   5.280 -34.986  1.00  0.00    -0.265 OA
HETATM    4  H   UNL     1      -4.854   3.396 -32.507  1.00  0.00     0.163 HD
ENDROOT
BRANCH   1   5
HETATM    5  C   UNL     1      -3.478   5.255 -33.011  1.00  0.00     0.150 A 
HETATM    6  O   UNL     1      -3.857   5.578 -31.733  1.00  0.00    -0.304 OA
HETATM    7  C   UNL     1      -2.768   6.099 -31.108  1.00  0.00     0.087 A 
HETATM    8  C   UNL     1      -1.673   6.094 -31.960  1.00  0.00     0.009 A 
HETATM    9  C   UNL     1      -2.744   6.584 -29.805  1.00  0.00     0.041 A 
HETATM   10  C   UNL     1      -0.449   6.614 -31.484  1.00  0.00     0.051 A 
HETATM   11  C   UNL     1      -2.128   5.527 -33.190  1.00  0.00    -0.009 A 
HETATM   12  C   UNL     1      -0.388   7.128 -30.182  1.00  0.00     0.069 A 
HETATM   13  C   UNL     1      -1.522   7.103 -29.361  1.00  0.00     0.039 A 
HETATM   14  C   UNL     1      -1.331   5.302 -34.424  1.00  0.00     0.052 C 
BRANCH  12  15
HETATM   15  O   UNL     1       0.719   7.681 -29.596  1.00  0.00    -0.351 OA
BRANCH  15  16
HETATM   16  C   UNL     1       0.835   7.566 -28.178  1.00  0.00     0.171 C 
HETATM   17  C   UNL     1       1.645   8.747 -27.675  1.00  0.00     0.034 C 
ENDBRANCH  15  16
ENDBRANCH  12  15
ENDBRANCH   1   5
BRANCH   2  18
HETATM   18  C   UNL     1      -6.443   3.160 -33.885  1.00  0.00     0.089 C 
HETATM   19  C   UNL     1      -7.487   3.518 -32.818  1.00  0.00     0.063 C 
HETATM   20  C   UNL     1      -7.538   2.567 -31.608  1.00  0.00     0.121 C 
HETATM   21  C   UNL     1      -6.399   2.781 -30.606  1.00  0.00     0.046 C 
HETATM   22  C   UNL     1      -8.866   2.784 -30.853  1.00  0.00     0.046 C 
HETATM   23  N   UNL     1      -7.560   1.127 -32.075  1.00  0.00    -0.059 N 
HETATM   24  H   UNL     1      -8.519   0.922 -32.389  1.00  0.00     0.279 HD
HETATM   25  H   UNL     1      -7.426   0.510 -31.260  1.00  0.00     0.279 HD
HETATM   26  C   UNL     1      -6.627   0.668 -33.181  1.00  0.00     0.121 C 
HETATM   27  C   UNL     1      -7.217  -0.659 -33.708  1.00  0.00     0.046 C 
HETATM   28  C   UNL     1      -5.244   0.355 -32.605  1.00  0.00     0.046 C 
HETATM   29  C   UNL     1      -6.642   1.700 -34.312  1.00  0.00     0.063 C 
ENDBRANCH   2  18
TORSDOF 4
ENDMDL
MODEL 8
REMARK VINA RESULT:      -7.6      3.298      4.818
REMARK  4 active torsions:
REMARK  status: ('A' for Active; 'I' for Inactive)
REMARK    1  A    between atoms: C_2  and  O_3 
REMARK    2  A    between atoms: O_3  and  C_4 
REMARK    3  A    between atoms: C_9  and  C_10 
REMARK       I    between atoms: C_10  and  N_11 
REMARK    4  A    between atoms: N_11  and  C_12 
ROOT
HETATM    1  C   UNL     1      -4.707   2.057 -31.798  1.00  0.00     0.276 C 
HETATM    2  N   UNL     1      -4.194   3.184 -32.429  1.00  0.00    -0.350 N 
HETATM    3  O   UNL     1      -4.054   1.403 -30.993  1.00  0.00    -0.265 OA
HETATM    4  H   UNL     1      -4.931   3.674 -32.936  1.00  0.00     0.163 HD
ENDROOT
BRANCH   1   5
HETATM    5  C   UNL     1      -6.064   1.733 -32.190  1.00  0.00     0.150 A 
HETATM    6  O   UNL     1      -6.986   2.748 -32.231  1.00  0.00    -0.304 OA
HETATM    7  C   UNL     1      -8.186   2.191 -32.539  1.00  0.00     0.087 A 
HETATM    8  C   UNL     1      -8.051   0.823 -32.727  1.00  0.00     0.009 A 
HETATM    9  C   UNL     1      -9.390   2.880 -32.644  1.00  0.00     0.041 A 
HETATM   10  C   UNL     1      -9.204   0.071 -33.044  1.00  0.00     0.051 A 
HETATM   11  C   UNL     1      -6.668   0.528 -32.520  1.00  0.00    -0.009 A 
HETATM   12  C   UNL     1     -10.439   0.726 -33.141  1.00  0.00     0.069 A 
HETATM   13  C   UNL     1     -10.519   2.110 -32.948  1.00  0.00     0.039 A 
HETATM   14  C   UNL     1      -6.011  -0.803 -32.607  1.00  0.00     0.052 C 
BRANCH  12  15
HETATM   15  O   UNL     1     -11.638   0.126 -33.417  1.00  0.00    -0.351 OA
BRANCH  15  16
HETATM   16  C   UNL     1     -12.684   0.956 -33.921  1.00  0.00     0.171 C 
HETATM   17  C   UNL     1     -13.988   0.188 -33.810  1.00  0.00     0.034 C 
ENDBRANCH  15  16
ENDBRANCH  12  15
ENDBRANCH   1   5
BRANCH   2  18
HETATM   18  C   UNL     1      -3.120   4.011 -31.896  1.00  0.00     0.089 C 
HETATM   19  C   UNL     1      -3.686   5.205 -31.114  1.00  0.00     0.063 C 
HETATM   20  C   UNL     1      -4.178   6.379 -31.979  1.00  0.00     0.121 C 
HETATM   21  C   UNL     1      -5.538   6.131 -32.639  1.00  0.00     0.046 C 
HETATM   22  C   UNL     1      -4.316   7.635 -31.092  1.00  0.00     0.046 C 
HETATM   23  N   UNL     1      -3.143   6.727 -33.027  1.00  0.00    -0.059 N 
HETATM   24  H   UNL     1      -2.402   7.267 -32.558  1.00  0.00     0.279 HD
HETATM   25  H   UNL     1      -3.556   7.395 -33.695  1.00  0.00     0.279 HD
HETATM   26  C   UNL     1      -2.454   5.628 -33.815  1.00  0.00     0.121 C 
HETATM   27  C   UNL     1      -1.186   6.272 -34.419  1.00  0.00     0.046 C 
HETATM   28  C   UNL     1      -3.340   5.184 -34.981  1.00  0.00     0.046 C 
HETATM   29  C   UNL     1      -2.032   4.511 -32.856  1.00  0.00     0.063 C 
ENDBRANCH   2  18
TORSDOF 4
ENDMDL
MODEL 9
REMARK VINA RESULT:      -7.5      2.850      8.060
REMARK  4 active torsions:
REMARK  status: ('A' for Active; 'I' for Inactive)
REMARK    1  A    between atoms: C_2  and  O_3 
REMARK    2  A    between atoms: O_3  and  C_4 
REMARK    3  A    between atoms: C_9  and  C_10 
REMARK       I    between atoms: C_10  and  N_11 
REMARK    4  A    between atoms: N_11  and  C_12 
ROOT
HETATM    1  C   UNL     1      -4.502   4.592 -33.877  1.00  0.00     0.276 C 
HETATM    2  N   UNL     1      -5.186   3.494 -33.369  1.00  0.00    -0.350 N 
HETATM    3  O   UNL     1      -4.676   4.999 -35.020  1.00  0.00    -0.265 OA
HETATM    4  H   UNL     1      -5.024   3.407 -32.366  1.00  0.00     0.163 HD
ENDROOT
BRANCH   1   5
HETATM    5  C   UNL     1      -3.572   5.187 -32.939  1.00  0.00     0.150 A 
HETATM    6  O   UNL     1      -2.252   4.822 -33.017  1.00  0.00    -0.304 OA
HETATM    7  C   UNL     1      -1.602   5.440 -31.996  1.00  0.00     0.087 A 
HETATM    8  C   UNL     1      -2.482   6.228 -31.268  1.00  0.00     0.009 A 
HETATM    9  C   UNL     1      -0.249   5.302 -31.703  1.00  0.00     0.041 A 
HETATM   10  C   UNL     1      -1.983   6.940 -30.155  1.00  0.00     0.051 A 
HETATM   11  C   UNL     1      -3.759   6.080 -31.894  1.00  0.00    -0.009 A 
HETATM   12  C   UNL     1      -0.629   6.813 -29.817  1.00  0.00     0.069 A 
HETATM   13  C   UNL     1       0.218   6.009 -30.589  1.00  0.00     0.039 A 
HETATM   14  C   UNL     1      -5.035   6.724 -31.489  1.00  0.00     0.052 C 
BRANCH  12  15
HETATM   15  O   UNL     1      -0.013   7.422 -28.757  1.00  0.00    -0.351 OA
BRANCH  15  16
HETATM   16  C   UNL     1       0.687   6.585 -27.837  1.00  0.00     0.171 C 
HETATM   17  C   UNL     1       1.410   7.478 -26.845  1.00  0.00     0.034 C 
ENDBRANCH  15  16
ENDBRANCH  12  15
ENDBRANCH   1   5
BRANCH   2  18
HETATM   18  C   UNL     1      -6.479   3.030 -33.855  1.00  0.00     0.089 C 
HETATM   19  C   UNL     1      -7.589   3.350 -32.845  1.00  0.00     0.063 C 
HETATM   20  C   UNL     1      -7.680   2.389 -31.646  1.00  0.00     0.121 C 
HETATM   21  C   UNL     1      -6.605   2.628 -30.581  1.00  0.00     0.046 C 
HETATM   22  C   UNL     1      -9.054   2.564 -30.964  1.00  0.00     0.046 C 
HETATM   23  N   UNL     1      -7.636   0.953 -32.122  1.00  0.00    -0.059 N 
HETATM   24  H   UNL     1      -8.571   0.724 -32.490  1.00  0.00     0.279 HD
HETATM   25  H   UNL     1      -7.530   0.334 -31.304  1.00  0.00     0.279 HD
HETATM   26  C   UNL     1      -6.632   0.528 -33.177  1.00  0.00     0.121 C 
HETATM   27  C   UNL     1      -7.155  -0.811 -33.743  1.00  0.00     0.046 C 
HETATM   28  C   UNL     1      -5.274   0.249 -32.527  1.00  0.00     0.046 C 
HETATM   29  C   UNL     1      -6.614   1.567 -34.301  1.00  0.00     0.063 C 
ENDBRANCH   2  18
TORSDOF 4
ENDMDL
MODEL 10
REMARK VINA RESULT:      -7.5      1.268      2.093
REMARK  4 active torsions:
REMARK  status: ('A' for Active; 'I' for Inactive)
REMARK    1  A    between atoms: C_2  and  O_3 
REMARK    2  A    between atoms: O_3  and  C_4 
REMARK    3  A    between atoms: C_9  and  C_10 
REMARK       I    between atoms: C_10  and  N_11 
REMARK    4  A    between atoms: N_11  and  C_12 
ROOT
HETATM    1  C   UNL     1      -4.666   3.351 -31.139  1.00  0.00     0.276 C 
HETATM    2  N   UNL     1      -3.719   4.228 -31.654  1.00  0.00    -0.350 N 
HETATM    3  O   UNL     1      -5.163   3.503 -30.029  1.00  0.00    -0.265 OA
HETATM    4  H   UNL     1      -3.544   4.025 -32.638  1.00  0.00     0.163 HD
ENDROOT
BRANCH   1   5
HETATM    5  C   UNL     1      -4.991   2.253 -32.027  1.00  0.00     0.150 A 
HETATM    6  O   UNL     1      -5.916   2.472 -33.015  1.00  0.00    -0.304 OA
HETATM    7  C   UNL     1      -6.112   1.289 -33.654  1.00  0.00     0.087 A 
HETATM    8  C   UNL     1      -5.301   0.304 -33.108  1.00  0.00     0.009 A 
HETATM    9  C   UNL     1      -7.004   1.077 -34.700  1.00  0.00     0.041 A 
HETATM   10  C   UNL     1      -5.378  -1.002 -33.640  1.00  0.00     0.051 A 
HETATM   11  C   UNL     1      -4.557   0.935 -32.064  1.00  0.00    -0.009 A 
HETATM   12  C   UNL     1      -6.277  -1.260 -34.684  1.00  0.00     0.069 A 
HETATM   13  C   UNL     1      -7.069  -0.228 -35.203  1.00  0.00     0.039 A 
HETATM   14  C   UNL     1      -3.547   0.305 -31.174  1.00  0.00     0.052 C 
BRANCH  12  15
HETATM   15  O   UNL     1      -6.476  -2.475 -35.281  1.00  0.00    -0.351 OA
BRANCH  15  16
HETATM   16  C   UNL     1      -6.814  -3.573 -34.433  1.00  0.00     0.171 C 
HETATM   17  C   UNL     1      -6.008  -4.779 -34.881  1.00  0.00     0.034 C 
ENDBRANCH  15  16
ENDBRANCH  12  15
ENDBRANCH   1   5
BRANCH   2  18
HETATM   18  C   UNL     1      -3.576   5.620 -31.249  1.00  0.00     0.089 C 
HETATM   19  C   UNL     1      -3.324   6.520 -32.467  1.00  0.00     0.063 C 
HETATM   20  C   UNL     1      -1.879   6.514 -32.997  1.00  0.00     0.121 C 
HETATM   21  C   UNL     1      -1.527   5.265 -33.813  1.00  0.00     0.046 C 
HETATM   22  C   UNL     1      -1.674   7.738 -33.914  1.00  0.00     0.046 C 
HETATM   23  N   UNL     1      -0.901   6.685 -31.855  1.00  0.00    -0.059 N 
HETATM   24  H   UNL     1      -0.898   7.684 -31.603  1.00  0.00     0.279 HD
HETATM   25  H   UNL     1       0.053   6.512 -32.204  1.00  0.00     0.279 HD
HETATM   26  C   UNL     1      -1.087   5.907 -30.566  1.00  0.00     0.121 C 
HETATM   27  C   UNL     1      -0.241   6.640 -29.503  1.00  0.00     0.046 C 
HETATM   28  C   UNL     1      -0.510   4.497 -30.716  1.00  0.00     0.046 C 
HETATM   29  C   UNL     1      -2.561   5.966 -30.152  1.00  0.00     0.063 C 
ENDBRANCH   2  18
TORSDOF 4
ENDMDL
