MODEL 1
REMARK VINA RESULT:      -8.8      0.000      0.000
REMARK  5 active torsions:
REMARK  status: ('A' for Active; 'I' for Inactive)
REMARK    1  A    between atoms: C_7  and  C_8 
REMARK    2  A    between atoms: N_9  and  N_10 
REMARK       I    between atoms: N_10  and  C_11 
REMARK    3  A    between atoms: C_11  and  C_12 
REMARK    4  A    between atoms: C_12  and  N_13 
REMARK       I    between atoms: N_13  and  C_14 
REMARK    5  A    between atoms: C_14  and  C_15 
ROOT
HETATM    1  N   UNL     1      -5.087   1.056 -30.845  1.00  0.00    -0.246 N 
HETATM    2  C   UNL     1      -5.791   2.251 -30.834  1.00  0.00     0.255 C 
HETATM    3  O   UNL     1      -6.836   2.469 -31.445  1.00  0.00    -0.270 OA
HETATM    4  H   UNL     1      -4.159   1.027 -30.417  1.00  0.00     0.192 HD
ENDROOT
BRANCH   1   5
HETATM    5  N   UNL     1      -5.548  -0.014 -31.554  1.00  0.00    -0.184 NA
HETATM    6  C   UNL     1      -5.026  -0.162 -32.729  1.00  0.00     0.153 C 
BRANCH   6   7
HETATM    7  C   UNL     1      -5.456  -1.248 -33.592  1.00  0.00     0.018 A 
HETATM    8  C   UNL     1      -6.488  -1.219 -34.520  1.00  0.00     0.018 A 
HETATM    9  C   UNL     1      -7.433  -0.133 -34.901  1.00  0.00     0.069 C 
HETATM   10  N   UNL     1      -6.540  -2.450 -35.126  1.00  0.00    -0.358 N 
HETATM   11  H   UNL     1      -7.196  -2.712 -35.848  1.00  0.00     0.166 HD
HETATM   12  C   UNL     1      -5.574  -3.283 -34.618  1.00  0.00     0.043 A 
HETATM   13  C   UNL     1      -4.877  -2.560 -33.650  1.00  0.00     0.004 A 
HETATM   14  C   UNL     1      -5.269  -4.610 -34.942  1.00  0.00     0.030 A 
HETATM   15  C   UNL     1      -3.824  -3.205 -32.966  1.00  0.00     0.014 A 
HETATM   16  C   UNL     1      -3.508  -4.533 -33.273  1.00  0.00     0.001 A 
HETATM   17  C   UNL     1      -4.222  -5.222 -34.251  1.00  0.00     0.002 A 
ENDBRANCH   6   7
ENDBRANCH   1   5
BRANCH   2  18
HETATM   18  C   UNL     1      -5.070   3.365 -30.072  1.00  0.00     0.227 C 
BRANCH  18  19
HETATM   19  N   UNL     1      -4.285   4.265 -30.910  1.00  0.00    -0.348 N 
HETATM   20  C   UNL     1      -3.121   3.858 -31.522  1.00  0.00     0.252 C 
HETATM   21  O   UNL     1      -2.612   2.772 -31.258  1.00  0.00    -0.268 OA
HETATM   22  H   UNL     1      -4.583   5.229 -30.945  1.00  0.00     0.163 HD
BRANCH  20  23
HETATM   23  C   UNL     1      -2.450   4.797 -32.469  1.00  0.00     0.035 A 
HETATM   24  C   UNL     1      -2.083   6.057 -31.979  1.00  0.00     0.059 A 
HETATM   25  C   UNL     1      -1.443   6.964 -32.815  1.00  0.00     0.117 A 
HETATM   26  F   UNL     1      -1.093   8.166 -32.337  1.00  0.00    -0.206 F 
HETATM   27  C   UNL     1      -1.157   6.646 -34.136  1.00  0.00     0.042 A 
HETATM   28  C   UNL     1      -1.511   5.393 -34.631  1.00  0.00     0.004 A 
HETATM   29  C   UNL     1      -2.151   4.466 -33.800  1.00  0.00     0.017 A 
ENDBRANCH  20  23
ENDBRANCH  18  19
ENDBRANCH   2  18
TORSDOF 5
ENDMDL
MODEL 2
REMARK VINA RESULT:      -8.7      5.204      7.786
REMARK  5 active torsions:
REMARK  status: ('A' for Active; 'I' for Inactive)
REMARK    1  A    between atoms: C_7  and  C_8 
REMARK    2  A    between atoms: N_9  and  N_10 
REMARK       I    between atoms: N_10  and  C_11 
REMARK    3  A    between atoms: C_11  and  C_12 
REMARK    4  A    between atoms: C_12  and  N_13 
REMARK       I    between atoms: N_13  and  C_14 
REMARK    5  A    between atoms: C_14  and  C_15 
ROOT
HETATM    1  N   UNL     1      -8.320   1.374 -32.538  1.00  0.00    -0.246 N 
HETATM    2  C   UNL     1      -8.287   2.345 -31.549  1.00  0.00     0.255 C 
HETATM    3  O   UNL     1      -7.531   2.350 -30.578  1.00  0.00    -0.270 OA
HETATM    4  H   UNL     1      -9.080   1.392 -33.221  1.00  0.00     0.192 HD
ENDROOT
BRANCH   1   5
HETATM    5  N   UNL     1      -7.455   0.321 -32.504  1.00  0.00    -0.184 NA
HETATM    6  C   UNL     1      -6.521   0.345 -33.399  1.00  0.00     0.153 C 
BRANCH   6   7
HETATM    7  C   UNL     1      -5.555  -0.736 -33.484  1.00  0.00     0.018 A 
HETATM    8  C   UNL     1      -4.230  -0.706 -33.072  1.00  0.00     0.018 A 
HETATM    9  C   UNL     1      -3.420   0.379 -32.453  1.00  0.00     0.069 C 
HETATM   10  N   UNL     1      -3.687  -1.943 -33.320  1.00  0.00    -0.358 N 
HETATM   11  H   UNL     1      -2.734  -2.208 -33.116  1.00  0.00     0.166 HD
HETATM   12  C   UNL     1      -4.619  -2.778 -33.886  1.00  0.00     0.043 A 
HETATM   13  C   UNL     1      -5.803  -2.050 -34.006  1.00  0.00     0.004 A 
HETATM   14  C   UNL     1      -4.501  -4.111 -34.296  1.00  0.00     0.030 A 
HETATM   15  C   UNL     1      -6.925  -2.691 -34.573  1.00  0.00     0.014 A 
HETATM   16  C   UNL     1      -6.824  -4.022 -34.993  1.00  0.00     0.001 A 
HETATM   17  C   UNL     1      -5.628  -4.720 -34.852  1.00  0.00     0.002 A 
ENDBRANCH   6   7
ENDBRANCH   1   5
BRANCH   2  18
HETATM   18  C   UNL     1      -9.396   3.390 -31.696  1.00  0.00     0.227 C 
BRANCH  18  19
HETATM   19  N   UNL     1     -10.724   2.836 -31.939  1.00  0.00    -0.348 N 
HETATM   20  C   UNL     1     -11.382   3.024 -33.133  1.00  0.00     0.252 C 
HETATM   21  O   UNL     1     -10.948   3.799 -33.981  1.00  0.00    -0.268 OA
HETATM   22  H   UNL     1     -11.179   2.388 -31.157  1.00  0.00     0.163 HD
BRANCH  20  23
HETATM   23  C   UNL     1     -12.676   2.313 -33.350  1.00  0.00     0.035 A 
HETATM   24  C   UNL     1     -13.734   2.616 -32.483  1.00  0.00     0.059 A 
HETATM   25  C   UNL     1     -14.966   1.994 -32.650  1.00  0.00     0.117 A 
HETATM   26  F   UNL     1     -15.972   2.292 -31.818  1.00  0.00    -0.206 F 
HETATM   27  C   UNL     1     -15.172   1.070 -33.666  1.00  0.00     0.042 A 
HETATM   28  C   UNL     1     -14.128   0.767 -34.539  1.00  0.00     0.004 A 
HETATM   29  C   UNL     1     -12.884   1.390 -34.387  1.00  0.00     0.017 A 
ENDBRANCH  20  23
ENDBRANCH  18  19
ENDBRANCH   2  18
TORSDOF 5
ENDMDL
MODEL 3
REMARK VINA RESULT:      -8.7      3.262      8.624
REMARK  5 active torsions:
REMARK  status: ('A' for Active; 'I' for Inactive)
REMARK    1  A    between atoms: C_7  and  C_8 
REMARK    2  A    between atoms: N_9  and  N_10 
REMARK       I    between atoms: N_10  and  C_11 
REMARK    3  A    between atoms: C_11  and  C_12 
REMARK    4  A    between atoms: C_12  and  N_13 
REMARK       I    between atoms: N_13  and  C_14 
REMARK    5  A    between atoms: C_14  and  C_15 
ROOT
HETATM    1  N   UNL     1      -5.455   2.372 -32.125  1.00  0.00    -0.246 N 
HETATM    2  C   UNL     1      -6.594   1.963 -32.801  1.00  0.00     0.255 C 
HETATM    3  O   UNL     1      -7.126   2.564 -33.733  1.00  0.00    -0.270 OA
HETATM    4  H   UNL     1      -5.179   1.874 -31.276  1.00  0.00     0.192 HD
ENDROOT
BRANCH   1   5
HETATM    5  N   UNL     1      -4.808   3.517 -32.487  1.00  0.00    -0.184 NA
HETATM    6  C   UNL     1      -3.524   3.412 -32.603  1.00  0.00     0.153 C 
BRANCH   6   7
HETATM    7  C   UNL     1      -2.721   4.569 -32.955  1.00  0.00     0.018 A 
HETATM    8  C   UNL     1      -2.815   5.331 -34.111  1.00  0.00     0.018 A 
HETATM    9  C   UNL     1      -3.712   5.212 -35.293  1.00  0.00     0.069 C 
HETATM   10  N   UNL     1      -1.882   6.335 -34.028  1.00  0.00    -0.358 N 
HETATM   11  H   UNL     1      -1.730   7.044 -34.732  1.00  0.00     0.166 HD
HETATM   12  C   UNL     1      -1.178   6.248 -32.852  1.00  0.00     0.043 A 
HETATM   13  C   UNL     1      -1.678   5.147 -32.155  1.00  0.00     0.004 A 
HETATM   14  C   UNL     1      -0.146   7.055 -32.359  1.00  0.00     0.030 A 
HETATM   15  C   UNL     1      -1.108   4.836 -30.902  1.00  0.00     0.014 A 
HETATM   16  C   UNL     1      -0.072   5.630 -30.396  1.00  0.00     0.001 A 
HETATM   17  C   UNL     1       0.398   6.725 -31.116  1.00  0.00     0.002 A 
ENDBRANCH   6   7
ENDBRANCH   1   5
BRANCH   2  18
HETATM   18  C   UNL     1      -7.239   0.716 -32.190  1.00  0.00     0.227 C 
BRANCH  18  19
HETATM   19  N   UNL     1      -7.051  -0.506 -32.964  1.00  0.00    -0.348 N 
HETATM   20  C   UNL     1      -5.801  -1.033 -33.199  1.00  0.00     0.252 C 
HETATM   21  O   UNL     1      -4.785  -0.410 -32.905  1.00  0.00    -0.268 OA
HETATM   22  H   UNL     1      -7.873  -0.898 -33.401  1.00  0.00     0.163 HD
BRANCH  20  23
HETATM   23  C   UNL     1      -5.706  -2.355 -33.884  1.00  0.00     0.035 A 
HETATM   24  C   UNL     1      -4.497  -3.056 -33.773  1.00  0.00     0.059 A 
HETATM   25  C   UNL     1      -4.360  -4.299 -34.380  1.00  0.00     0.117 A 
HETATM   26  F   UNL     1      -3.201  -4.962 -34.266  1.00  0.00    -0.206 F 
HETATM   27  C   UNL     1      -5.403  -4.866 -35.100  1.00  0.00     0.042 A 
HETATM   28  C   UNL     1      -6.612  -4.181 -35.209  1.00  0.00     0.004 A 
HETATM   29  C   UNL     1      -6.767  -2.932 -34.599  1.00  0.00     0.017 A 
ENDBRANCH  20  23
ENDBRANCH  18  19
ENDBRANCH   2  18
TORSDOF 5
ENDMDL
MODEL 4
REMARK VINA RESULT:      -8.6      1.887      2.215
REMARK  5 active torsions:
REMARK  status: ('A' for Active; 'I' for Inactive)
REMARK    1  A    between atoms: C_7  and  C_8 
REMARK    2  A    between atoms: N_9  and  N_10 
REMARK       I    between atoms: N_10  and  C_11 
REMARK    3  A    between atoms: C_11  and  C_12 
REMARK    4  A    between atoms: C_12  and  N_13 
REMARK       I    between atoms: N_13  and  C_14 
REMARK    5  A    between atoms: C_14  and  C_15 
ROOT
HETATM    1  N   UNL     1      -5.965   2.548 -31.990  1.00  0.00    -0.246 N 
HETATM    2  C   UNL     1      -5.721   2.732 -30.639  1.00  0.00     0.255 C 
HETATM    3  O   UNL     1      -5.705   1.843 -29.788  1.00  0.00    -0.270 OA
HETATM    4  H   UNL     1      -6.094   3.370 -32.585  1.00  0.00     0.192 HD
ENDROOT
BRANCH   1   5
HETATM    5  N   UNL     1      -6.194   1.300 -32.490  1.00  0.00    -0.184 NA
HETATM    6  C   UNL     1      -5.167   0.724 -33.027  1.00  0.00     0.153 C 
BRANCH   6   7
HETATM    7  C   UNL     1      -5.291  -0.595 -33.620  1.00  0.00     0.018 A 
HETATM    8  C   UNL     1      -6.138  -0.971 -34.654  1.00  0.00     0.018 A 
HETATM    9  C   UNL     1      -7.135  -0.190 -35.437  1.00  0.00     0.069 C 
HETATM   10  N   UNL     1      -5.919  -2.302 -34.911  1.00  0.00    -0.358 N 
HETATM   11  H   UNL     1      -6.397  -2.841 -35.620  1.00  0.00     0.166 HD
HETATM   12  C   UNL     1      -4.957  -2.807 -34.072  1.00  0.00     0.043 A 
HETATM   13  C   UNL     1      -4.543  -1.762 -33.245  1.00  0.00     0.004 A 
HETATM   14  C   UNL     1      -4.428  -4.101 -33.985  1.00  0.00     0.030 A 
HETATM   15  C   UNL     1      -3.553  -2.030 -32.277  1.00  0.00     0.014 A 
HETATM   16  C   UNL     1      -3.016  -3.319 -32.173  1.00  0.00     0.001 A 
HETATM   17  C   UNL     1      -3.448  -4.337 -33.019  1.00  0.00     0.002 A 
ENDBRANCH   6   7
ENDBRANCH   1   5
BRANCH   2  18
HETATM   18  C   UNL     1      -5.590   4.207 -30.248  1.00  0.00     0.227 C 
BRANCH  18  19
HETATM   19  N   UNL     1      -4.217   4.689 -30.146  1.00  0.00    -0.348 N 
HETATM   20  C   UNL     1      -3.568   5.266 -31.214  1.00  0.00     0.252 C 
HETATM   21  O   UNL     1      -4.062   5.253 -32.339  1.00  0.00    -0.268 OA
HETATM   22  H   UNL     1      -3.730   4.494 -29.283  1.00  0.00     0.163 HD
BRANCH  20  23
HETATM   23  C   UNL     1      -2.215   5.854 -30.990  1.00  0.00     0.035 A 
HETATM   24  C   UNL     1      -1.106   5.024 -31.201  1.00  0.00     0.059 A 
HETATM   25  C   UNL     1       0.178   5.525 -31.021  1.00  0.00     0.117 A 
HETATM   26  F   UNL     1       1.232   4.724 -31.228  1.00  0.00    -0.206 F 
HETATM   27  C   UNL     1       0.387   6.841 -30.632  1.00  0.00     0.042 A 
HETATM   28  C   UNL     1      -0.709   7.677 -30.426  1.00  0.00     0.004 A 
HETATM   29  C   UNL     1      -2.008   7.189 -30.610  1.00  0.00     0.017 A 
ENDBRANCH  20  23
ENDBRANCH  18  19
ENDBRANCH   2  18
TORSDOF 5
ENDMDL
MODEL 5
REMARK VINA RESULT:      -8.5      5.800      9.188
REMARK  5 active torsions:
REMARK  status: ('A' for Active; 'I' for Inactive)
REMARK    1  A    between atoms: C_7  and  C_8 
REMARK    2  A    between atoms: N_9  and  N_10 
REMARK       I    between atoms: N_10  and  C_11 
REMARK    3  A    between atoms: C_11  and  C_12 
REMARK    4  A    between atoms: C_12  and  N_13 
REMARK       I    between atoms: N_13  and  C_14 
REMARK    5  A    between atoms: C_14  and  C_15 
ROOT
HETATM    1  N   UNL     1      -9.040   1.171 -33.855  1.00  0.00    -0.246 N 
HETATM    2  C   UNL     1      -7.933   1.935 -33.522  1.00  0.00     0.255 C 
HETATM    3  O   UNL     1      -7.918   2.852 -32.702  1.00  0.00    -0.270 OA
HETATM    4  H   UNL     1      -8.977   0.530 -34.649  1.00  0.00     0.192 HD
ENDROOT
BRANCH   1   5
HETATM    5  N   UNL     1     -10.241   1.388 -33.245  1.00  0.00    -0.184 NA
HETATM    6  C   UNL     1     -11.258   1.463 -34.041  1.00  0.00     0.153 C 
BRANCH   6   7
HETATM    7  C   UNL     1     -12.586   1.720 -33.514  1.00  0.00     0.018 A 
HETATM    8  C   UNL     1     -13.615   0.801 -33.358  1.00  0.00     0.018 A 
HETATM    9  C   UNL     1     -13.686  -0.653 -33.667  1.00  0.00     0.069 C 
HETATM   10  N   UNL     1     -14.687   1.463 -32.812  1.00  0.00    -0.358 N 
HETATM   11  H   UNL     1     -15.576   1.038 -32.586  1.00  0.00     0.166 HD
HETATM   12  C   UNL     1     -14.389   2.788 -32.610  1.00  0.00     0.043 A 
HETATM   13  C   UNL     1     -13.077   2.984 -33.044  1.00  0.00     0.004 A 
HETATM   14  C   UNL     1     -15.177   3.817 -32.081  1.00  0.00     0.030 A 
HETATM   15  C   UNL     1     -12.530   4.281 -32.948  1.00  0.00     0.014 A 
HETATM   16  C   UNL     1     -13.305   5.323 -32.426  1.00  0.00     0.001 A 
HETATM   17  C   UNL     1     -14.608   5.090 -31.997  1.00  0.00     0.002 A 
ENDBRANCH   6   7
ENDBRANCH   1   5
BRANCH   2  18
HETATM   18  C   UNL     1      -6.705   1.619 -34.381  1.00  0.00     0.227 C 
BRANCH  18  19
HETATM   19  N   UNL     1      -6.520   0.202 -34.677  1.00  0.00    -0.348 N 
HETATM   20  C   UNL     1      -5.641  -0.580 -33.963  1.00  0.00     0.252 C 
HETATM   21  O   UNL     1      -4.860  -0.083 -33.155  1.00  0.00    -0.268 OA
HETATM   22  H   UNL     1      -6.995  -0.157 -35.492  1.00  0.00     0.163 HD
BRANCH  20  23
HETATM   23  C   UNL     1      -5.608  -2.046 -34.241  1.00  0.00     0.035 A 
HETATM   24  C   UNL     1      -4.402  -2.721 -34.016  1.00  0.00     0.059 A 
HETATM   25  C   UNL     1      -4.321  -4.090 -34.244  1.00  0.00     0.117 A 
HETATM   26  F   UNL     1      -3.163  -4.727 -34.024  1.00  0.00    -0.206 F 
HETATM   27  C   UNL     1      -5.420  -4.808 -34.695  1.00  0.00     0.042 A 
HETATM   28  C   UNL     1      -6.627  -4.148 -34.915  1.00  0.00     0.004 A 
HETATM   29  C   UNL     1      -6.726  -2.771 -34.683  1.00  0.00     0.017 A 
ENDBRANCH  20  23
ENDBRANCH  18  19
ENDBRANCH   2  18
TORSDOF 5
ENDMDL
MODEL 6
REMARK VINA RESULT:      -8.4      4.721      7.781
REMARK  5 active torsions:
REMARK  status: ('A' for Active; 'I' for Inactive)
REMARK    1  A    between atoms: C_7  and  C_8 
REMARK    2  A    between atoms: N_9  and  N_10 
REMARK       I    between atoms: N_10  and  C_11 
REMARK    3  A    between atoms: C_11  and  C_12 
REMARK    4  A    between atoms: C_12  and  N_13 
REMARK       I    between atoms: N_13  and  C_14 
REMARK    5  A    between atoms: C_14  and  C_15 
ROOT
HETATM    1  N   UNL     1      -7.330   2.468 -33.078  1.00  0.00    -0.246 N 
HETATM    2  C   UNL     1      -6.863   1.887 -31.910  1.00  0.00     0.255 C 
HETATM    3  O   UNL     1      -7.543   1.636 -30.916  1.00  0.00    -0.270 OA
HETATM    4  H   UNL     1      -6.655   2.762 -33.787  1.00  0.00     0.192 HD
ENDROOT
BRANCH   1   5
HETATM    5  N   UNL     1      -8.648   2.794 -33.211  1.00  0.00    -0.184 NA
HETATM    6  C   UNL     1      -9.290   2.133 -34.119  1.00  0.00     0.153 C 
BRANCH   6   7
HETATM    7  C   UNL     1     -10.692   2.409 -34.375  1.00  0.00     0.018 A 
HETATM    8  C   UNL     1     -11.230   3.571 -34.913  1.00  0.00     0.018 A 
HETATM    9  C   UNL     1     -10.582   4.832 -35.367  1.00  0.00     0.069 C 
HETATM   10  N   UNL     1     -12.590   3.401 -34.999  1.00  0.00    -0.358 N 
HETATM   11  H   UNL     1     -13.237   4.089 -35.358  1.00  0.00     0.166 HD
HETATM   12  C   UNL     1     -12.956   2.164 -34.529  1.00  0.00     0.043 A 
HETATM   13  C   UNL     1     -11.788   1.516 -34.126  1.00  0.00     0.004 A 
HETATM   14  C   UNL     1     -14.224   1.578 -34.431  1.00  0.00     0.030 A 
HETATM   15  C   UNL     1     -11.898   0.215 -33.592  1.00  0.00     0.014 A 
HETATM   16  C   UNL     1     -13.158  -0.386 -33.483  1.00  0.00     0.001 A 
HETATM   17  C   UNL     1     -14.302   0.288 -33.900  1.00  0.00     0.002 A 
ENDBRANCH   6   7
ENDBRANCH   1   5
BRANCH   2  18
HETATM   18  C   UNL     1      -5.345   1.688 -31.904  1.00  0.00     0.227 C 
BRANCH  18  19
HETATM   19  N   UNL     1      -4.914   0.297 -31.992  1.00  0.00    -0.348 N 
HETATM   20  C   UNL     1      -5.050  -0.434 -33.150  1.00  0.00     0.252 C 
HETATM   21  O   UNL     1      -5.687   0.004 -34.106  1.00  0.00    -0.268 OA
HETATM   22  H   UNL     1      -4.597  -0.135 -31.136  1.00  0.00     0.163 HD
BRANCH  20  23
HETATM   23  C   UNL     1      -4.464  -1.805 -33.198  1.00  0.00     0.035 A 
HETATM   24  C   UNL     1      -3.669  -2.207 -32.116  1.00  0.00     0.059 A 
HETATM   25  C   UNL     1      -3.111  -3.480 -32.103  1.00  0.00     0.117 A 
HETATM   26  F   UNL     1      -2.354  -3.856 -31.063  1.00  0.00    -0.206 F 
HETATM   27  C   UNL     1      -3.324  -4.369 -33.148  1.00  0.00     0.042 A 
HETATM   28  C   UNL     1      -4.119  -3.982 -34.225  1.00  0.00     0.004 A 
HETATM   29  C   UNL     1      -4.693  -2.706 -34.250  1.00  0.00     0.017 A 
ENDBRANCH  20  23
ENDBRANCH  18  19
ENDBRANCH   2  18
TORSDOF 5
ENDMDL
MODEL 7
REMARK VINA RESULT:      -8.4      5.094      8.688
REMARK  5 active torsions:
REMARK  status: ('A' for Active; 'I' for Inactive)
REMARK    1  A    between atoms: C_7  and  C_8 
REMARK    2  A    between atoms: N_9  and  N_10 
REMARK       I    between atoms: N_10  and  C_11 
REMARK    3  A    between atoms: C_11  and  C_12 
REMARK    4  A    between atoms: C_12  and  N_13 
REMARK       I    between atoms: N_13  and  C_14 
REMARK    5  A    between atoms: C_14  and  C_15 
ROOT
HETATM    1  N   UNL     1      -8.288   1.070 -32.423  1.00  0.00    -0.246 N 
HETATM    2  C   UNL     1      -7.453   1.477 -31.394  1.00  0.00     0.255 C 
HETATM    3  O   UNL     1      -7.670   2.412 -30.625  1.00  0.00    -0.270 OA
HETATM    4  H   UNL     1      -7.947   0.374 -33.089  1.00  0.00     0.192 HD
ENDROOT
BRANCH   1   5
HETATM    5  N   UNL     1      -9.476   1.703 -32.642  1.00  0.00    -0.184 NA
HETATM    6  C   UNL     1      -9.896   1.678 -33.866  1.00  0.00     0.153 C 
BRANCH   6   7
HETATM    7  C   UNL     1     -11.134   2.342 -34.232  1.00  0.00     0.018 A 
HETATM    8  C   UNL     1     -12.412   1.798 -34.212  1.00  0.00     0.018 A 
HETATM    9  C   UNL     1     -12.893   0.440 -33.837  1.00  0.00     0.069 C 
HETATM   10  N   UNL     1     -13.288   2.775 -34.616  1.00  0.00    -0.358 N 
HETATM   11  H   UNL     1     -14.289   2.659 -34.693  1.00  0.00     0.166 HD
HETATM   12  C   UNL     1     -12.619   3.939 -34.903  1.00  0.00     0.043 A 
HETATM   13  C   UNL     1     -11.264   3.701 -34.675  1.00  0.00     0.004 A 
HETATM   14  C   UNL     1     -13.111   5.174 -35.344  1.00  0.00     0.030 A 
HETATM   15  C   UNL     1     -10.353   4.754 -34.908  1.00  0.00     0.014 A 
HETATM   16  C   UNL     1     -10.826   5.994 -35.353  1.00  0.00     0.001 A 
HETATM   17  C   UNL     1     -12.187   6.198 -35.565  1.00  0.00     0.002 A 
ENDBRANCH   6   7
ENDBRANCH   1   5
BRANCH   2  18
HETATM   18  C   UNL     1      -6.123   0.719 -31.366  1.00  0.00     0.227 C 
BRANCH  18  19
HETATM   19  N   UNL     1      -6.150  -0.581 -32.027  1.00  0.00    -0.348 N 
HETATM   20  C   UNL     1      -5.819  -0.728 -33.355  1.00  0.00     0.252 C 
HETATM   21  O   UNL     1      -5.644   0.250 -34.077  1.00  0.00    -0.268 OA
HETATM   22  H   UNL     1      -6.514  -1.355 -31.491  1.00  0.00     0.163 HD
BRANCH  20  23
HETATM   23  C   UNL     1      -5.743  -2.108 -33.919  1.00  0.00     0.035 A 
HETATM   24  C   UNL     1      -4.533  -2.800 -33.776  1.00  0.00     0.059 A 
HETATM   25  C   UNL     1      -4.413  -4.093 -34.270  1.00  0.00     0.117 A 
HETATM   26  F   UNL     1      -3.252  -4.748 -34.126  1.00  0.00    -0.206 F 
HETATM   27  C   UNL     1      -5.475  -4.720 -34.908  1.00  0.00     0.042 A 
HETATM   28  C   UNL     1      -6.685  -4.043 -35.049  1.00  0.00     0.004 A 
HETATM   29  C   UNL     1      -6.823  -2.743 -34.552  1.00  0.00     0.017 A 
ENDBRANCH  20  23
ENDBRANCH  18  19
ENDBRANCH   2  18
TORSDOF 5
ENDMDL
MODEL 8
REMARK VINA RESULT:      -8.1      3.464      8.672
REMARK  5 active torsions:
REMARK  status: ('A' for Active; 'I' for Inactive)
REMARK    1  A    between atoms: C_7  and  C_8 
REMARK    2  A    between atoms: N_9  and  N_10 
REMARK       I    between atoms: N_10  and  C_11 
REMARK    3  A    between atoms: C_11  and  C_12 
REMARK    4  A    between atoms: C_12  and  N_13 
REMARK       I    between atoms: N_13  and  C_14 
REMARK    5  A    between atoms: C_14  and  C_15 
ROOT
HETATM    1  N   UNL     1      -6.688   2.724 -31.870  1.00  0.00    -0.246 N 
HETATM    2  C   UNL     1      -7.791   2.489 -32.675  1.00  0.00     0.255 C 
HETATM    3  O   UNL     1      -8.264   3.282 -33.488  1.00  0.00    -0.270 OA
HETATM    4  H   UNL     1      -6.465   2.054 -31.131  1.00  0.00     0.192 HD
ENDROOT
BRANCH   1   5
HETATM    5  N   UNL     1      -6.010   3.906 -31.951  1.00  0.00    -0.184 NA
HETATM    6  C   UNL     1      -4.787   3.869 -31.531  1.00  0.00     0.153 C 
BRANCH   6   7
HETATM    7  C   UNL     1      -3.972   5.070 -31.539  1.00  0.00     0.018 A 
HETATM    8  C   UNL     1      -3.979   6.092 -30.598  1.00  0.00     0.018 A 
HETATM    9  C   UNL     1      -4.781   6.276 -29.357  1.00  0.00     0.069 C 
HETATM   10  N   UNL     1      -3.044   7.020 -30.982  1.00  0.00    -0.358 N 
HETATM   11  H   UNL     1      -2.832   7.871 -30.479  1.00  0.00     0.166 HD
HETATM   12  C   UNL     1      -2.428   6.637 -32.148  1.00  0.00     0.043 A 
HETATM   13  C   UNL     1      -2.990   5.418 -32.527  1.00  0.00     0.004 A 
HETATM   14  C   UNL     1      -1.426   7.275 -32.888  1.00  0.00     0.030 A 
HETATM   15  C   UNL     1      -2.527   4.810 -33.713  1.00  0.00     0.014 A 
HETATM   16  C   UNL     1      -1.528   5.435 -34.468  1.00  0.00     0.001 A 
HETATM   17  C   UNL     1      -0.985   6.650 -34.057  1.00  0.00     0.002 A 
ENDBRANCH   6   7
ENDBRANCH   1   5
BRANCH   2  18
HETATM   18  C   UNL     1      -8.482   1.157 -32.373  1.00  0.00     0.227 C 
BRANCH  18  19
HETATM   19  N   UNL     1      -7.665  -0.024 -32.633  1.00  0.00    -0.348 N 
HETATM   20  C   UNL     1      -7.446  -0.488 -33.911  1.00  0.00     0.252 C 
HETATM   21  O   UNL     1      -8.059  -0.024 -34.868  1.00  0.00    -0.268 OA
HETATM   22  H   UNL     1      -7.345  -0.541 -31.827  1.00  0.00     0.163 HD
BRANCH  20  23
HETATM   23  C   UNL     1      -6.491  -1.619 -34.101  1.00  0.00     0.035 A 
HETATM   24  C   UNL     1      -6.987  -2.793 -34.683  1.00  0.00     0.059 A 
HETATM   25  C   UNL     1      -6.137  -3.872 -34.896  1.00  0.00     0.117 A 
HETATM   26  F   UNL     1      -6.619  -4.990 -35.457  1.00  0.00    -0.206 F 
HETATM   27  C   UNL     1      -4.796  -3.811 -34.541  1.00  0.00     0.042 A 
HETATM   28  C   UNL     1      -4.291  -2.646 -33.968  1.00  0.00     0.004 A 
HETATM   29  C   UNL     1      -5.133  -1.549 -33.753  1.00  0.00     0.017 A 
ENDBRANCH  20  23
ENDBRANCH  18  19
ENDBRANCH   2  18
TORSDOF 5
ENDMDL
MODEL 9
REMARK VINA RESULT:      -8.1      3.558      9.133
REMARK  5 active torsions:
REMARK  status: ('A' for Active; 'I' for Inactive)
REMARK    1  A    between atoms: C_7  and  C_8 
REMARK    2  A    between atoms: N_9  and  N_10 
REMARK       I    between atoms: N_10  and  C_11 
REMARK    3  A    between atoms: C_11  and  C_12 
REMARK    4  A    between atoms: C_12  and  N_13 
REMARK       I    between atoms: N_13  and  C_14 
REMARK    5  A    between atoms: C_14  and  C_15 
ROOT
HETATM    1  N   UNL     1      -4.858   3.056 -32.947  1.00  0.00    -0.246 N 
HETATM    2  C   UNL     1      -6.196   2.703 -32.866  1.00  0.00     0.255 C 
HETATM    3  O   UNL     1      -6.922   2.874 -31.888  1.00  0.00    -0.270 OA
HETATM    4  H   UNL     1      -4.312   2.741 -33.752  1.00  0.00     0.192 HD
ENDROOT
BRANCH   1   5
HETATM    5  N   UNL     1      -4.238   3.668 -31.897  1.00  0.00    -0.184 NA
HETATM    6  C   UNL     1      -4.188   4.959 -31.963  1.00  0.00     0.153 C 
BRANCH   6   7
HETATM    7  C   UNL     1      -3.529   5.723 -30.920  1.00  0.00     0.018 A 
HETATM    8  C   UNL     1      -4.114   6.259 -29.780  1.00  0.00     0.018 A 
HETATM    9  C   UNL     1      -5.520   6.230 -29.294  1.00  0.00     0.069 C 
HETATM   10  N   UNL     1      -3.127   6.887 -29.060  1.00  0.00    -0.358 N 
HETATM   11  H   UNL     1      -3.267   7.364 -28.180  1.00  0.00     0.166 HD
HETATM   12  C   UNL     1      -1.916   6.780 -29.699  1.00  0.00     0.043 A 
HETATM   13  C   UNL     1      -2.133   6.057 -30.872  1.00  0.00     0.004 A 
HETATM   14  C   UNL     1      -0.657   7.266 -29.327  1.00  0.00     0.030 A 
HETATM   15  C   UNL     1      -1.031   5.815 -31.719  1.00  0.00     0.014 A 
HETATM   16  C   UNL     1       0.234   6.297 -31.365  1.00  0.00     0.001 A 
HETATM   17  C   UNL     1       0.416   7.010 -30.183  1.00  0.00     0.002 A 
ENDBRANCH   6   7
ENDBRANCH   1   5
BRANCH   2  18
HETATM   18  C   UNL     1      -6.689   1.935 -34.096  1.00  0.00     0.227 C 
BRANCH  18  19
HETATM   19  N   UNL     1      -6.088   0.617 -34.271  1.00  0.00    -0.348 N 
HETATM   20  C   UNL     1      -6.580  -0.496 -33.627  1.00  0.00     0.252 C 
HETATM   21  O   UNL     1      -7.440  -0.397 -32.757  1.00  0.00    -0.268 OA
HETATM   22  H   UNL     1      -5.237   0.575 -34.812  1.00  0.00     0.163 HD
BRANCH  20  23
HETATM   23  C   UNL     1      -5.994  -1.827 -33.963  1.00  0.00     0.035 A 
HETATM   24  C   UNL     1      -6.807  -2.738 -34.650  1.00  0.00     0.059 A 
HETATM   25  C   UNL     1      -6.306  -3.986 -35.000  1.00  0.00     0.117 A 
HETATM   26  F   UNL     1      -7.091  -4.849 -35.658  1.00  0.00    -0.206 F 
HETATM   27  C   UNL     1      -5.005  -4.352 -34.681  1.00  0.00     0.042 A 
HETATM   28  C   UNL     1      -4.185  -3.451 -34.006  1.00  0.00     0.004 A 
HETATM   29  C   UNL     1      -4.673  -2.188 -33.652  1.00  0.00     0.017 A 
ENDBRANCH  20  23
ENDBRANCH  18  19
ENDBRANCH   2  18
TORSDOF 5
ENDMDL
MODEL 10
REMARK VINA RESULT:      -8.1      1.885      2.551
REMARK  5 active torsions:
REMARK  status: ('A' for Active; 'I' for Inactive)
REMARK    1  A    between atoms: C_7  and  C_8 
REMARK    2  A    between atoms: N_9  and  N_10 
REMARK       I    between atoms: N_10  and  C_11 
REMARK    3  A    between atoms: C_11  and  C_12 
REMARK    4  A    between atoms: C_12  and  N_13 
REMARK       I    between atoms: N_13  and  C_14 
REMARK    5  A    between atoms: C_14  and  C_15 
ROOT
HETATM    1  N   UNL     1      -5.384   1.854 -32.119  1.00  0.00    -0.246 N 
HETATM    2  C   UNL     1      -6.663   2.369 -32.262  1.00  0.00     0.255 C 
HETATM    3  O   UNL     1      -7.692   1.705 -32.376  1.00  0.00    -0.270 OA
HETATM    4  H   UNL     1      -4.587   2.491 -32.175  1.00  0.00     0.192 HD
ENDROOT
BRANCH   1   5
HETATM    5  N   UNL     1      -5.182   0.506 -32.072  1.00  0.00    -0.184 NA
HETATM    6  C   UNL     1      -4.612  -0.002 -33.116  1.00  0.00     0.153 C 
BRANCH   6   7
HETATM    7  C   UNL     1      -4.368  -1.431 -33.198  1.00  0.00     0.018 A 
HETATM    8  C   UNL     1      -3.361  -2.145 -32.562  1.00  0.00     0.018 A 
HETATM    9  C   UNL     1      -2.270  -1.701 -31.651  1.00  0.00     0.069 C 
HETATM   10  N   UNL     1      -3.508  -3.467 -32.900  1.00  0.00    -0.358 N 
HETATM   11  H   UNL     1      -2.913  -4.217 -32.577  1.00  0.00     0.166 HD
HETATM   12  C   UNL     1      -4.579  -3.637 -33.742  1.00  0.00     0.043 A 
HETATM   13  C   UNL     1      -5.140  -2.378 -33.952  1.00  0.00     0.004 A 
HETATM   14  C   UNL     1      -5.087  -4.803 -34.327  1.00  0.00     0.030 A 
HETATM   15  C   UNL     1      -6.265  -2.281 -34.798  1.00  0.00     0.014 A 
HETATM   16  C   UNL     1      -6.784  -3.436 -35.396  1.00  0.00     0.001 A 
HETATM   17  C   UNL     1      -6.203  -4.678 -35.159  1.00  0.00     0.002 A 
ENDBRANCH   6   7
ENDBRANCH   1   5
BRANCH   2  18
HETATM   18  C   UNL     1      -6.684   3.894 -32.399  1.00  0.00     0.227 C 
BRANCH  18  19
HETATM   19  N   UNL     1      -5.366   4.514 -32.485  1.00  0.00    -0.348 N 
HETATM   20  C   UNL     1      -4.845   4.952 -33.681  1.00  0.00     0.252 C 
HETATM   21  O   UNL     1      -5.399   4.693 -34.747  1.00  0.00    -0.268 OA
HETATM   22  H   UNL     1      -4.813   4.523 -31.640  1.00  0.00     0.163 HD
BRANCH  20  23
HETATM   23  C   UNL     1      -3.551   5.695 -33.663  1.00  0.00     0.035 A 
HETATM   24  C   UNL     1      -3.441   6.781 -32.784  1.00  0.00     0.059 A 
HETATM   25  C   UNL     1      -2.252   7.498 -32.717  1.00  0.00     0.117 A 
HETATM   26  F   UNL     1      -2.155   8.534 -31.872  1.00  0.00    -0.206 F 
HETATM   27  C   UNL     1      -1.163   7.159 -33.509  1.00  0.00     0.042 A 
HETATM   28  C   UNL     1      -1.260   6.077 -34.380  1.00  0.00     0.004 A 
HETATM   29  C   UNL     1      -2.448   5.341 -34.455  1.00  0.00     0.017 A 
ENDBRANCH  20  23
ENDBRANCH  18  19
ENDBRANCH   2  18
TORSDOF 5
ENDMDL
