MODEL 1
REMARK VINA RESULT:      -9.7      0.000      0.000
REMARK  4 active torsions:
REMARK  status: ('A' for Active; 'I' for Inactive)
REMARK    1  A    between atoms: C_6  and  C_7 
REMARK    2  A    between atoms: C_15  and  C_16 
REMARK       I    between atoms: C_16  and  N_17 
REMARK    3  A    between atoms: N_17  and  N_18 
REMARK       I    between atoms: N_18  and  C_19 
REMARK       I    between atoms: C_19  and  N_20 
REMARK    4  A    between atoms: N_20  and  C_21 
ROOT
HETATM    1  C   UNL     1      -5.617   3.753 -32.220  1.00  0.00     0.001 A 
HETATM    2  C   UNL     1      -6.647   2.859 -32.506  1.00  0.00     0.015 A 
HETATM    3  C   UNL     1      -6.376   1.506 -32.839  1.00  0.00     0.009 A 
HETATM    4  C   UNL     1      -5.038   1.071 -32.864  1.00  0.00     0.068 A 
HETATM    5  N   UNL     1      -4.684  -0.194 -33.143  1.00  0.00    -0.248 NA
HETATM    6  C   UNL     1      -5.635  -1.116 -33.423  1.00  0.00     0.070 A 
HETATM    7  C   UNL     1      -6.977  -0.781 -33.465  1.00  0.00     0.050 A 
HETATM    8  C   UNL     1      -7.351   0.526 -33.139  1.00  0.00     0.048 A 
HETATM    9  C   UNL     1      -4.030   1.981 -32.574  1.00  0.00     0.032 A 
HETATM   10  C   UNL     1      -4.303   3.313 -32.256  1.00  0.00     0.002 A 
ENDROOT
BRANCH   8  11
HETATM   11  C   UNL     1      -8.802   0.839 -33.092  1.00  0.00     0.271 C 
HETATM   12  N   UNL     1      -9.379   1.068 -34.325  1.00  0.00    -0.262 N 
HETATM   13  H   UNL     1      -8.852   1.146 -35.191  1.00  0.00     0.190 HD
HETATM   14  O   UNL     1      -9.417   0.865 -32.032  1.00  0.00    -0.266 OA
BRANCH  12  15
HETATM   15  N   UNL     1     -10.719   1.461 -34.382  1.00  0.00    -0.249 N 
HETATM   16  C   UNL     1     -10.998   2.777 -34.640  1.00  0.00     0.341 C 
HETATM   17  N   UNL     1     -12.299   3.173 -34.582  1.00  0.00    -0.286 N 
HETATM   18  O   UNL     1     -10.126   3.587 -34.965  1.00  0.00    -0.245 OA
HETATM   19  H   UNL     1     -12.481   4.136 -34.816  1.00  0.00     0.172 HD
HETATM   20  H   UNL     1     -11.381   0.920 -33.820  1.00  0.00     0.192 HD
BRANCH  17  21
HETATM   21  C   UNL     1     -13.359   2.369 -34.288  1.00  0.00     0.174 A 
HETATM   22  S   UNL     1     -14.166   2.747 -32.835  1.00  0.00    -0.062 SA
HETATM   23  C   UNL     1     -15.267   1.467 -33.143  1.00  0.00     0.072 A 
HETATM   24  C   UNL     1     -14.927   0.840 -34.324  1.00  0.00     0.126 A 
HETATM   25  N   UNL     1     -13.826   1.358 -34.979  1.00  0.00    -0.236 NA
ENDBRANCH  17  21
ENDBRANCH  12  15
ENDBRANCH   8  11
BRANCH   6  26
HETATM   26  C   UNL     1      -5.130  -2.473 -33.703  1.00  0.00     0.014 A 
HETATM   27  C   UNL     1      -3.995  -3.037 -33.087  1.00  0.00     0.046 A 
HETATM   28 CL   UNL     1      -3.010  -2.160 -31.960  1.00  0.00    -0.083 Cl
HETATM   29  C   UNL     1      -3.575  -4.337 -33.399  1.00  0.00     0.025 A 
HETATM   30  C   UNL     1      -4.266  -5.096 -34.342  1.00  0.00     0.002 A 
HETATM   31  C   UNL     1      -5.375  -4.554 -34.981  1.00  0.00     0.001 A 
HETATM   32  C   UNL     1      -5.799  -3.261 -34.664  1.00  0.00     0.015 A 
ENDBRANCH   6  26
TORSDOF 4
ENDMDL
MODEL 2
REMARK VINA RESULT:      -9.6      4.358      7.716
REMARK  4 active torsions:
REMARK  status: ('A' for Active; 'I' for Inactive)
REMARK    1  A    between atoms: C_6  and  C_7 
REMARK    2  A    between atoms: C_15  and  C_16 
REMARK       I    between atoms: C_16  and  N_17 
REMARK    3  A    between atoms: N_17  and  N_18 
REMARK       I    between atoms: N_18  and  C_19 
REMARK       I    between atoms: C_19  and  N_20 
REMARK    4  A    between atoms: N_20  and  C_21 
ROOT
HETATM    1  C   UNL     1      -8.208   3.337 -33.546  1.00  0.00     0.001 A 
HETATM    2  C   UNL     1      -6.948   3.052 -33.026  1.00  0.00     0.015 A 
HETATM    3  C   UNL     1      -6.389   1.750 -33.121  1.00  0.00     0.009 A 
HETATM    4  C   UNL     1      -7.128   0.743 -33.769  1.00  0.00     0.068 A 
HETATM    5  N   UNL     1      -6.674  -0.510 -33.932  1.00  0.00    -0.248 NA
HETATM    6  C   UNL     1      -5.454  -0.853 -33.455  1.00  0.00     0.070 A 
HETATM    7  C   UNL     1      -4.665   0.052 -32.767  1.00  0.00     0.050 A 
HETATM    8  C   UNL     1      -5.120   1.366 -32.629  1.00  0.00     0.048 A 
HETATM    9  C   UNL     1      -8.381   1.054 -34.281  1.00  0.00     0.032 A 
HETATM   10  C   UNL     1      -8.928   2.334 -34.176  1.00  0.00     0.002 A 
ENDROOT
BRANCH   8  11
HETATM   11  C   UNL     1      -4.215   2.346 -31.975  1.00  0.00     0.271 C 
HETATM   12  N   UNL     1      -3.379   3.021 -32.842  1.00  0.00    -0.262 N 
HETATM   13  H   UNL     1      -3.284   2.794 -33.829  1.00  0.00     0.190 HD
HETATM   14  O   UNL     1      -4.244   2.535 -30.764  1.00  0.00    -0.266 OA
BRANCH  12  15
HETATM   15  N   UNL     1      -2.425   3.897 -32.318  1.00  0.00    -0.249 N 
HETATM   16  C   UNL     1      -1.867   4.826 -33.157  1.00  0.00     0.341 C 
HETATM   17  N   UNL     1      -0.859   5.598 -32.668  1.00  0.00    -0.286 N 
HETATM   18  O   UNL     1      -2.278   5.011 -34.305  1.00  0.00    -0.245 OA
HETATM   19  H   UNL     1      -0.495   6.300 -33.292  1.00  0.00     0.172 HD
HETATM   20  H   UNL     1      -1.872   3.556 -31.528  1.00  0.00     0.192 HD
BRANCH  17  21
HETATM   21  C   UNL     1      -0.350   5.529 -31.406  1.00  0.00     0.174 A 
HETATM   22  S   UNL     1      -0.867   6.765 -30.354  1.00  0.00    -0.062 SA
HETATM   23  C   UNL     1       0.066   6.055 -29.100  1.00  0.00     0.072 A 
HETATM   24  C   UNL     1       0.712   4.936 -29.584  1.00  0.00     0.126 A 
HETATM   25  N   UNL     1       0.475   4.638 -30.913  1.00  0.00    -0.236 NA
ENDBRANCH  17  21
ENDBRANCH  12  15
ENDBRANCH   8  11
BRANCH   6  26
HETATM   26  C   UNL     1      -5.055  -2.252 -33.701  1.00  0.00     0.014 A 
HETATM   27  C   UNL     1      -3.965  -2.885 -33.071  1.00  0.00     0.046 A 
HETATM   28 CL   UNL     1      -2.914  -2.059 -31.967  1.00  0.00    -0.083 Cl
HETATM   29  C   UNL     1      -3.647  -4.222 -33.351  1.00  0.00     0.025 A 
HETATM   30  C   UNL     1      -4.395  -4.948 -34.275  1.00  0.00     0.002 A 
HETATM   31  C   UNL     1      -5.462  -4.339 -34.926  1.00  0.00     0.001 A 
HETATM   32  C   UNL     1      -5.784  -3.009 -34.642  1.00  0.00     0.015 A 
ENDBRANCH   6  26
TORSDOF 4
ENDMDL
MODEL 3
REMARK VINA RESULT:      -9.6      1.664      4.618
REMARK  4 active torsions:
REMARK  status: ('A' for Active; 'I' for Inactive)
REMARK    1  A    between atoms: C_6  and  C_7 
REMARK    2  A    between atoms: C_15  and  C_16 
REMARK       I    between atoms: C_16  and  N_17 
REMARK    3  A    between atoms: N_17  and  N_18 
REMARK       I    between atoms: N_18  and  C_19 
REMARK       I    between atoms: C_19  and  N_20 
REMARK    4  A    between atoms: N_20  and  C_21 
ROOT
HETATM    1  C   UNL     1      -6.723  -3.106 -34.621  1.00  0.00     0.001 A 
HETATM    2  C   UNL     1      -7.447  -1.979 -34.235  1.00  0.00     0.015 A 
HETATM    3  C   UNL     1      -6.793  -0.800 -33.789  1.00  0.00     0.009 A 
HETATM    4  C   UNL     1      -5.387  -0.780 -33.755  1.00  0.00     0.068 A 
HETATM    5  N   UNL     1      -4.679   0.295 -33.373  1.00  0.00    -0.248 NA
HETATM    6  C   UNL     1      -5.319   1.425 -32.992  1.00  0.00     0.070 A 
HETATM    7  C   UNL     1      -6.701   1.495 -32.951  1.00  0.00     0.050 A 
HETATM    8  C   UNL     1      -7.439   0.390 -33.383  1.00  0.00     0.048 A 
HETATM    9  C   UNL     1      -4.688  -1.915 -34.146  1.00  0.00     0.032 A 
HETATM   10  C   UNL     1      -5.338  -3.074 -34.575  1.00  0.00     0.002 A 
ENDROOT
BRANCH   8  11
HETATM   11  C   UNL     1      -8.918   0.521 -33.427  1.00  0.00     0.271 C 
HETATM   12  N   UNL     1      -9.389   1.381 -34.398  1.00  0.00    -0.262 N 
HETATM   13  H   UNL     1      -8.791   1.981 -34.961  1.00  0.00     0.190 HD
HETATM   14  O   UNL     1      -9.639  -0.112 -32.663  1.00  0.00    -0.266 OA
BRANCH  12  15
HETATM   15  N   UNL     1     -10.760   1.646 -34.461  1.00  0.00    -0.249 N 
HETATM   16  C   UNL     1     -11.161   2.901 -34.837  1.00  0.00     0.341 C 
HETATM   17  N   UNL     1     -12.491   3.183 -34.786  1.00  0.00    -0.286 N 
HETATM   18  O   UNL     1     -10.371   3.749 -35.258  1.00  0.00    -0.245 OA
HETATM   19  H   UNL     1     -12.764   4.098 -35.106  1.00  0.00     0.172 HD
HETATM   20  H   UNL     1     -11.362   1.105 -33.835  1.00  0.00     0.192 HD
BRANCH  17  21
HETATM   21  C   UNL     1     -13.469   2.320 -34.392  1.00  0.00     0.174 A 
HETATM   22  S   UNL     1     -14.183   2.681 -32.887  1.00  0.00    -0.062 SA
HETATM   23  C   UNL     1     -15.218   1.326 -33.080  1.00  0.00     0.072 A 
HETATM   24  C   UNL     1     -14.931   0.693 -34.272  1.00  0.00     0.126 A 
HETATM   25  N   UNL     1     -13.922   1.264 -35.023  1.00  0.00    -0.236 NA
ENDBRANCH  17  21
ENDBRANCH  12  15
ENDBRANCH   8  11
BRANCH   6  26
HETATM   26  C   UNL     1      -4.440   2.544 -32.604  1.00  0.00     0.014 A 
HETATM   27  C   UNL     1      -4.522   3.840 -33.152  1.00  0.00     0.046 A 
HETATM   28 CL   UNL     1      -5.642   4.255 -34.409  1.00  0.00    -0.083 Cl
HETATM   29  C   UNL     1      -3.655   4.858 -32.731  1.00  0.00     0.025 A 
HETATM   30  C   UNL     1      -2.678   4.602 -31.771  1.00  0.00     0.002 A 
HETATM   31  C   UNL     1      -2.561   3.326 -31.232  1.00  0.00     0.001 A 
HETATM   32  C   UNL     1      -3.431   2.313 -31.645  1.00  0.00     0.015 A 
ENDBRANCH   6  26
TORSDOF 4
ENDMDL
MODEL 4
REMARK VINA RESULT:      -9.1      1.828      2.273
REMARK  4 active torsions:
REMARK  status: ('A' for Active; 'I' for Inactive)
REMARK    1  A    between atoms: C_6  and  C_7 
REMARK    2  A    between atoms: C_15  and  C_16 
REMARK       I    between atoms: C_16  and  N_17 
REMARK    3  A    between atoms: N_17  and  N_18 
REMARK       I    between atoms: N_18  and  C_19 
REMARK       I    between atoms: C_19  and  N_20 
REMARK    4  A    between atoms: N_20  and  C_21 
ROOT
HETATM    1  C   UNL     1      -4.650   4.451 -31.430  1.00  0.00     0.001 A 
HETATM    2  C   UNL     1      -5.716   3.585 -31.664  1.00  0.00     0.015 A 
HETATM    3  C   UNL     1      -5.499   2.222 -32.000  1.00  0.00     0.009 A 
HETATM    4  C   UNL     1      -4.176   1.749 -32.080  1.00  0.00     0.068 A 
HETATM    5  N   UNL     1      -3.870   0.474 -32.365  1.00  0.00    -0.248 NA
HETATM    6  C   UNL     1      -4.859  -0.423 -32.597  1.00  0.00     0.070 A 
HETATM    7  C   UNL     1      -6.191  -0.050 -32.583  1.00  0.00     0.050 A 
HETATM    8  C   UNL     1      -6.513   1.270 -32.250  1.00  0.00     0.048 A 
HETATM    9  C   UNL     1      -3.131   2.632 -31.840  1.00  0.00     0.032 A 
HETATM   10  C   UNL     1      -3.352   3.973 -31.519  1.00  0.00     0.002 A 
ENDROOT
BRANCH   8  11
HETATM   11  C   UNL     1      -7.952   1.624 -32.142  1.00  0.00     0.271 C 
HETATM   12  N   UNL     1      -8.632   1.629 -33.343  1.00  0.00    -0.262 N 
HETATM   13  H   UNL     1      -8.182   1.527 -34.249  1.00  0.00     0.190 HD
HETATM   14  O   UNL     1      -8.471   1.867 -31.059  1.00  0.00    -0.266 OA
BRANCH  12  15
HETATM   15  N   UNL     1      -9.967   2.039 -33.362  1.00  0.00    -0.249 N 
HETATM   16  C   UNL     1     -10.942   1.080 -33.270  1.00  0.00     0.341 C 
HETATM   17  N   UNL     1     -12.236   1.476 -33.404  1.00  0.00    -0.286 N 
HETATM   18  O   UNL     1     -10.686  -0.101 -33.024  1.00  0.00    -0.245 OA
HETATM   19  H   UNL     1     -12.934   0.759 -33.291  1.00  0.00     0.172 HD
HETATM   20  H   UNL     1     -10.176   2.902 -33.871  1.00  0.00     0.192 HD
BRANCH  17  21
HETATM   21  C   UNL     1     -12.655   2.754 -33.624  1.00  0.00     0.174 A 
HETATM   22  S   UNL     1     -13.362   3.522 -32.277  1.00  0.00    -0.062 SA
HETATM   23  C   UNL     1     -13.573   4.937 -33.226  1.00  0.00     0.072 A 
HETATM   24  C   UNL     1     -13.101   4.711 -34.502  1.00  0.00     0.126 A 
HETATM   25  N   UNL     1     -12.576   3.453 -34.730  1.00  0.00    -0.236 NA
ENDBRANCH  17  21
ENDBRANCH  12  15
ENDBRANCH   8  11
BRANCH   6  26
HETATM   26  C   UNL     1      -4.405  -1.795 -32.889  1.00  0.00     0.014 A 
HETATM   27  C   UNL     1      -4.851  -2.558 -33.987  1.00  0.00     0.046 A 
HETATM   28 CL   UNL     1      -6.050  -1.984 -35.100  1.00  0.00    -0.083 Cl
HETATM   29  C   UNL     1      -4.372  -3.858 -34.205  1.00  0.00     0.025 A 
HETATM   30  C   UNL     1      -3.455  -4.430 -33.326  1.00  0.00     0.002 A 
HETATM   31  C   UNL     1      -3.017  -3.706 -32.222  1.00  0.00     0.001 A 
HETATM   32  C   UNL     1      -3.488  -2.408 -32.009  1.00  0.00     0.015 A 
ENDBRANCH   6  26
TORSDOF 4
ENDMDL
MODEL 5
REMARK VINA RESULT:      -9.1      4.313      8.510
REMARK  4 active torsions:
REMARK  status: ('A' for Active; 'I' for Inactive)
REMARK    1  A    between atoms: C_6  and  C_7 
REMARK    2  A    between atoms: C_15  and  C_16 
REMARK       I    between atoms: C_16  and  N_17 
REMARK    3  A    between atoms: N_17  and  N_18 
REMARK       I    between atoms: N_18  and  C_19 
REMARK       I    between atoms: C_19  and  N_20 
REMARK    4  A    between atoms: N_20  and  C_21 
ROOT
HETATM    1  C   UNL     1      -4.409  -1.726 -33.781  1.00  0.00     0.001 A 
HETATM    2  C   UNL     1      -4.594  -0.392 -33.423  1.00  0.00     0.015 A 
HETATM    3  C   UNL     1      -5.862   0.234 -33.546  1.00  0.00     0.009 A 
HETATM    4  C   UNL     1      -6.946  -0.523 -34.028  1.00  0.00     0.068 A 
HETATM    5  N   UNL     1      -8.187  -0.027 -34.155  1.00  0.00    -0.248 NA
HETATM    6  C   UNL     1      -8.438   1.260 -33.819  1.00  0.00     0.070 A 
HETATM    7  C   UNL     1      -7.433   2.101 -33.374  1.00  0.00     0.050 A 
HETATM    8  C   UNL     1      -6.148   1.576 -33.205  1.00  0.00     0.048 A 
HETATM    9  C   UNL     1      -6.735  -1.851 -34.377  1.00  0.00     0.032 A 
HETATM   10  C   UNL     1      -5.484  -2.458 -34.261  1.00  0.00     0.002 A 
ENDROOT
BRANCH   8  11
HETATM   11  C   UNL     1      -5.107   2.468 -32.632  1.00  0.00     0.271 C 
HETATM   12  N   UNL     1      -4.745   3.523 -33.444  1.00  0.00    -0.262 N 
HETATM   13  H   UNL     1      -5.058   3.630 -34.406  1.00  0.00     0.190 HD
HETATM   14  O   UNL     1      -4.639   2.269 -31.516  1.00  0.00    -0.266 OA
BRANCH  12  15
HETATM   15  N   UNL     1      -3.709   4.367 -33.036  1.00  0.00    -0.249 N 
HETATM   16  C   UNL     1      -3.254   5.309 -33.921  1.00  0.00     0.341 C 
HETATM   17  N   UNL     1      -2.171   6.049 -33.559  1.00  0.00    -0.286 N 
HETATM   18  O   UNL     1      -3.818   5.535 -34.994  1.00  0.00    -0.245 OA
HETATM   19  H   UNL     1      -1.883   6.762 -34.209  1.00  0.00     0.172 HD
HETATM   20  H   UNL     1      -3.058   3.993 -32.341  1.00  0.00     0.192 HD
BRANCH  17  21
HETATM   21  C   UNL     1      -1.491   5.935 -32.383  1.00  0.00     0.174 A 
HETATM   22  S   UNL     1      -1.432   7.356 -31.446  1.00  0.00    -0.062 SA
HETATM   23  C   UNL     1      -0.543   6.503 -30.252  1.00  0.00     0.072 A 
HETATM   24  C   UNL     1      -0.347   5.201 -30.665  1.00  0.00     0.126 A 
HETATM   25  N   UNL     1      -0.891   4.878 -31.894  1.00  0.00    -0.236 NA
ENDBRANCH  17  21
ENDBRANCH  12  15
ENDBRANCH   8  11
BRANCH   6  26
HETATM   26  C   UNL     1      -9.838   1.692 -33.989  1.00  0.00     0.014 A 
HETATM   27  C   UNL     1     -10.953   0.951 -33.549  1.00  0.00     0.046 A 
HETATM   28 CL   UNL     1     -10.805  -0.606 -32.802  1.00  0.00    -0.083 Cl
HETATM   29  C   UNL     1     -12.257   1.427 -33.742  1.00  0.00     0.025 A 
HETATM   30  C   UNL     1     -12.479   2.639 -34.392  1.00  0.00     0.002 A 
HETATM   31  C   UNL     1     -11.396   3.378 -34.857  1.00  0.00     0.001 A 
HETATM   32  C   UNL     1     -10.095   2.908 -34.657  1.00  0.00     0.015 A 
ENDBRANCH   6  26
TORSDOF 4
ENDMDL
MODEL 6
REMARK VINA RESULT:      -8.9      2.827      5.625
REMARK  4 active torsions:
REMARK  status: ('A' for Active; 'I' for Inactive)
REMARK    1  A    between atoms: C_6  and  C_7 
REMARK    2  A    between atoms: C_15  and  C_16 
REMARK       I    between atoms: C_16  and  N_17 
REMARK    3  A    between atoms: N_17  and  N_18 
REMARK       I    between atoms: N_18  and  C_19 
REMARK       I    between atoms: C_19  and  N_20 
REMARK    4  A    between atoms: N_20  and  C_21 
ROOT
HETATM    1  C   UNL     1      -5.194  -1.147 -31.990  1.00  0.00     0.001 A 
HETATM    2  C   UNL     1      -5.864   0.064 -32.150  1.00  0.00     0.015 A 
HETATM    3  C   UNL     1      -5.153   1.283 -32.308  1.00  0.00     0.009 A 
HETATM    4  C   UNL     1      -3.746   1.249 -32.314  1.00  0.00     0.068 A 
HETATM    5  N   UNL     1      -2.988   2.344 -32.482  1.00  0.00    -0.248 NA
HETATM    6  C   UNL     1      -3.574   3.553 -32.650  1.00  0.00     0.070 A 
HETATM    7  C   UNL     1      -4.950   3.700 -32.619  1.00  0.00     0.050 A 
HETATM    8  C   UNL     1      -5.742   2.557 -32.480  1.00  0.00     0.048 A 
HETATM    9  C   UNL     1      -3.103   0.029 -32.154  1.00  0.00     0.032 A 
HETATM   10  C   UNL     1      -3.808  -1.165 -31.991  1.00  0.00     0.002 A 
ENDROOT
BRANCH   8  11
HETATM   11  C   UNL     1      -7.216   2.725 -32.550  1.00  0.00     0.271 C 
HETATM   12  N   UNL     1      -7.725   2.804 -33.830  1.00  0.00    -0.262 N 
HETATM   13  H   UNL     1      -7.147   2.871 -34.665  1.00  0.00     0.190 HD
HETATM   14  O   UNL     1      -7.904   2.766 -31.535  1.00  0.00    -0.266 OA
BRANCH  12  15
HETATM   15  N   UNL     1      -9.088   3.055 -34.004  1.00  0.00    -0.249 N 
HETATM   16  C   UNL     1      -9.482   4.339 -34.275  1.00  0.00     0.341 C 
HETATM   17  N   UNL     1     -10.817   4.595 -34.329  1.00  0.00    -0.286 N 
HETATM   18  O   UNL     1      -8.676   5.241 -34.516  1.00  0.00    -0.245 OA
HETATM   19  H   UNL     1     -11.079   5.537 -34.571  1.00  0.00     0.172 HD
HETATM   20  H   UNL     1      -9.736   2.439 -33.506  1.00  0.00     0.192 HD
BRANCH  17  21
HETATM   21  C   UNL     1     -11.807   3.679 -34.136  1.00  0.00     0.174 A 
HETATM   22  S   UNL     1     -12.466   3.020 -35.562  1.00  0.00    -0.062 SA
HETATM   23  C   UNL     1     -13.502   2.044 -34.603  1.00  0.00     0.072 A 
HETATM   24  C   UNL     1     -13.276   2.305 -33.267  1.00  0.00     0.126 A 
HETATM   25  N   UNL     1     -12.303   3.250 -33.001  1.00  0.00    -0.236 NA
ENDBRANCH  17  21
ENDBRANCH  12  15
ENDBRANCH   8  11
BRANCH   6  26
HETATM   26  C   UNL     1      -2.643   4.682 -32.836  1.00  0.00     0.014 A 
HETATM   27  C   UNL     1      -2.634   5.520 -33.970  1.00  0.00     0.046 A 
HETATM   28 CL   UNL     1      -3.691   5.275 -35.322  1.00  0.00    -0.083 Cl
HETATM   29  C   UNL     1      -1.721   6.579 -34.077  1.00  0.00     0.025 A 
HETATM   30  C   UNL     1      -0.789   6.813 -33.068  1.00  0.00     0.002 A 
HETATM   31  C   UNL     1      -0.762   5.986 -31.951  1.00  0.00     0.001 A 
HETATM   32  C   UNL     1      -1.677   4.936 -31.840  1.00  0.00     0.015 A 
ENDBRANCH   6  26
TORSDOF 4
ENDMDL
MODEL 7
REMARK VINA RESULT:      -8.8      4.807      8.035
REMARK  4 active torsions:
REMARK  status: ('A' for Active; 'I' for Inactive)
REMARK    1  A    between atoms: C_6  and  C_7 
REMARK    2  A    between atoms: C_15  and  C_16 
REMARK       I    between atoms: C_16  and  N_17 
REMARK    3  A    between atoms: N_17  and  N_18 
REMARK       I    between atoms: N_18  and  C_19 
REMARK       I    between atoms: C_19  and  N_20 
REMARK    4  A    between atoms: N_20  and  C_21 
ROOT
HETATM    1  C   UNL     1      -7.709   3.241 -29.836  1.00  0.00     0.001 A 
HETATM    2  C   UNL     1      -6.705   2.563 -30.525  1.00  0.00     0.015 A 
HETATM    3  C   UNL     1      -5.456   3.179 -30.801  1.00  0.00     0.009 A 
HETATM    4  C   UNL     1      -5.238   4.495 -30.352  1.00  0.00     0.068 A 
HETATM    5  N   UNL     1      -4.082   5.152 -30.542  1.00  0.00    -0.248 NA
HETATM    6  C   UNL     1      -3.063   4.549 -31.199  1.00  0.00     0.070 A 
HETATM    7  C   UNL     1      -3.190   3.272 -31.716  1.00  0.00     0.050 A 
HETATM    8  C   UNL     1      -4.379   2.573 -31.487  1.00  0.00     0.048 A 
HETATM    9  C   UNL     1      -6.253   5.148 -29.666  1.00  0.00     0.032 A 
HETATM   10  C   UNL     1      -7.482   4.539 -29.405  1.00  0.00     0.002 A 
ENDROOT
BRANCH   8  11
HETATM   11  C   UNL     1      -4.458   1.168 -31.964  1.00  0.00     0.271 C 
HETATM   12  N   UNL     1      -4.920   1.026 -33.256  1.00  0.00    -0.262 N 
HETATM   13  H   UNL     1      -5.300   1.791 -33.809  1.00  0.00     0.190 HD
HETATM   14  O   UNL     1      -4.113   0.231 -31.252  1.00  0.00    -0.266 OA
BRANCH  12  15
HETATM   15  N   UNL     1      -5.119  -0.259 -33.767  1.00  0.00    -0.249 N 
HETATM   16  C   UNL     1      -6.237  -0.490 -34.524  1.00  0.00     0.341 C 
HETATM   17  N   UNL     1      -6.481  -1.768 -34.922  1.00  0.00    -0.286 N 
HETATM   18  O   UNL     1      -6.988   0.418 -34.890  1.00  0.00    -0.245 OA
HETATM   19  H   UNL     1      -7.287  -1.904 -35.511  1.00  0.00     0.172 HD
HETATM   20  H   UNL     1      -4.722  -1.034 -33.230  1.00  0.00     0.192 HD
BRANCH  17  21
HETATM   21  C   UNL     1      -5.705  -2.850 -34.631  1.00  0.00     0.174 A 
HETATM   22  S   UNL     1      -6.423  -4.360 -34.960  1.00  0.00    -0.062 SA
HETATM   23  C   UNL     1      -4.986  -5.132 -34.426  1.00  0.00     0.072 A 
HETATM   24  C   UNL     1      -4.072  -4.179 -34.025  1.00  0.00     0.126 A 
HETATM   25  N   UNL     1      -4.490  -2.866 -34.140  1.00  0.00    -0.236 NA
ENDBRANCH  17  21
ENDBRANCH  12  15
ENDBRANCH   8  11
BRANCH   6  26
HETATM   26  C   UNL     1      -1.840   5.361 -31.339  1.00  0.00     0.014 A 
HETATM   27  C   UNL     1      -1.643   6.326 -32.348  1.00  0.00     0.046 A 
HETATM   28 CL   UNL     1      -2.809   6.627 -33.595  1.00  0.00    -0.083 Cl
HETATM   29  C   UNL     1      -0.454   7.065 -32.417  1.00  0.00     0.025 A 
HETATM   30  C   UNL     1       0.569   6.847 -31.496  1.00  0.00     0.002 A 
HETATM   31  C   UNL     1       0.409   5.884 -30.506  1.00  0.00     0.001 A 
HETATM   32  C   UNL     1      -0.780   5.153 -30.431  1.00  0.00     0.015 A 
ENDBRANCH   6  26
TORSDOF 4
ENDMDL
MODEL 8
REMARK VINA RESULT:      -8.4      2.863      5.667
REMARK  4 active torsions:
REMARK  status: ('A' for Active; 'I' for Inactive)
REMARK    1  A    between atoms: C_6  and  C_7 
REMARK    2  A    between atoms: C_15  and  C_16 
REMARK       I    between atoms: C_16  and  N_17 
REMARK    3  A    between atoms: N_17  and  N_18 
REMARK       I    between atoms: N_18  and  C_19 
REMARK       I    between atoms: C_19  and  N_20 
REMARK    4  A    between atoms: N_20  and  C_21 
ROOT
HETATM    1  C   UNL     1      -5.065  -1.109 -31.933  1.00  0.00     0.001 A 
HETATM    2  C   UNL     1      -5.784   0.069 -32.125  1.00  0.00     0.015 A 
HETATM    3  C   UNL     1      -5.123   1.312 -32.314  1.00  0.00     0.009 A 
HETATM    4  C   UNL     1      -3.716   1.335 -32.318  1.00  0.00     0.068 A 
HETATM    5  N   UNL     1      -3.003   2.456 -32.514  1.00  0.00    -0.248 NA
HETATM    6  C   UNL     1      -3.638   3.635 -32.714  1.00  0.00     0.070 A 
HETATM    7  C   UNL     1      -5.018   3.726 -32.688  1.00  0.00     0.050 A 
HETATM    8  C   UNL     1      -5.763   2.555 -32.520  1.00  0.00     0.048 A 
HETATM    9  C   UNL     1      -3.024   0.147 -32.126  1.00  0.00     0.032 A 
HETATM   10  C   UNL     1      -3.680  -1.070 -31.932  1.00  0.00     0.002 A 
ENDROOT
BRANCH   8  11
HETATM   11  C   UNL     1      -7.243   2.661 -32.596  1.00  0.00     0.271 C 
HETATM   12  N   UNL     1      -7.768   2.471 -33.858  1.00  0.00    -0.262 N 
HETATM   13  H   UNL     1      -7.203   2.391 -34.700  1.00  0.00     0.190 HD
HETATM   14  O   UNL     1      -7.920   2.879 -31.597  1.00  0.00    -0.266 OA
BRANCH  12  15
HETATM   15  N   UNL     1      -9.141   2.641 -34.053  1.00  0.00    -0.249 N 
HETATM   16  C   UNL     1      -9.932   1.523 -34.107  1.00  0.00     0.341 C 
HETATM   17  N   UNL     1     -11.247   1.691 -34.410  1.00  0.00    -0.286 N 
HETATM   18  O   UNL     1      -9.503   0.397 -33.845  1.00  0.00    -0.245 OA
HETATM   19  H   UNL     1     -11.814   0.858 -34.403  1.00  0.00     0.172 HD
HETATM   20  H   UNL     1      -9.432   3.472 -34.573  1.00  0.00     0.192 HD
BRANCH  17  21
HETATM   21  C   UNL     1     -11.855   2.883 -34.668  1.00  0.00     0.174 A 
HETATM   22  S   UNL     1     -12.788   3.506 -33.386  1.00  0.00    -0.062 SA
HETATM   23  C   UNL     1     -13.156   4.876 -34.352  1.00  0.00     0.072 A 
HETATM   24  C   UNL     1     -12.550   4.747 -35.585  1.00  0.00     0.126 A 
HETATM   25  N   UNL     1     -11.805   3.597 -35.765  1.00  0.00    -0.236 NA
ENDBRANCH  17  21
ENDBRANCH  12  15
ENDBRANCH   8  11
BRANCH   6  26
HETATM   26  C   UNL     1      -2.754   4.795 -32.929  1.00  0.00     0.014 A 
HETATM   27  C   UNL     1      -2.597   5.851 -32.008  1.00  0.00     0.046 A 
HETATM   28 CL   UNL     1      -3.487   5.937 -30.523  1.00  0.00    -0.083 Cl
HETATM   29  C   UNL     1      -1.733   6.922 -32.278  1.00  0.00     0.025 A 
HETATM   30  C   UNL     1      -1.023   6.973 -33.476  1.00  0.00     0.002 A 
HETATM   31  C   UNL     1      -1.179   5.956 -34.411  1.00  0.00     0.001 A 
HETATM   32  C   UNL     1      -2.033   4.884 -34.139  1.00  0.00     0.015 A 
ENDBRANCH   6  26
TORSDOF 4
ENDMDL
MODEL 9
REMARK VINA RESULT:      -8.3      4.222      8.586
REMARK  4 active torsions:
REMARK  status: ('A' for Active; 'I' for Inactive)
REMARK    1  A    between atoms: C_6  and  C_7 
REMARK    2  A    between atoms: C_15  and  C_16 
REMARK       I    between atoms: C_16  and  N_17 
REMARK    3  A    between atoms: N_17  and  N_18 
REMARK       I    between atoms: N_18  and  C_19 
REMARK       I    between atoms: C_19  and  N_20 
REMARK    4  A    between atoms: N_20  and  C_21 
ROOT
HETATM    1  C   UNL     1      -5.111  -1.281 -33.863  1.00  0.00     0.001 A 
HETATM    2  C   UNL     1      -5.279   0.092 -33.689  1.00  0.00     0.015 A 
HETATM    3  C   UNL     1      -6.569   0.685 -33.718  1.00  0.00     0.009 A 
HETATM    4  C   UNL     1      -7.689  -0.144 -33.912  1.00  0.00     0.068 A 
HETATM    5  N   UNL     1      -8.949   0.319 -33.928  1.00  0.00    -0.248 NA
HETATM    6  C   UNL     1      -9.185   1.642 -33.759  1.00  0.00     0.070 A 
HETATM    7  C   UNL     1      -8.150   2.547 -33.601  1.00  0.00     0.050 A 
HETATM    8  C   UNL     1      -6.840   2.062 -33.547  1.00  0.00     0.048 A 
HETATM    9  C   UNL     1      -7.495  -1.509 -34.081  1.00  0.00     0.032 A 
HETATM   10  C   UNL     1      -6.223  -2.084 -34.061  1.00  0.00     0.002 A 
ENDROOT
BRANCH   8  11
HETATM   11  C   UNL     1      -5.752   3.037 -33.277  1.00  0.00     0.271 C 
HETATM   12  N   UNL     1      -5.171   2.917 -32.031  1.00  0.00    -0.262 N 
HETATM   13  H   UNL     1      -5.525   2.306 -31.298  1.00  0.00     0.190 HD
HETATM   14  O   UNL     1      -5.406   3.857 -34.119  1.00  0.00    -0.266 OA
BRANCH  12  15
HETATM   15  N   UNL     1      -4.202   3.846 -31.644  1.00  0.00    -0.249 N 
HETATM   16  C   UNL     1      -4.537   4.775 -30.694  1.00  0.00     0.341 C 
HETATM   17  N   UNL     1      -3.627   5.744 -30.406  1.00  0.00    -0.286 N 
HETATM   18  O   UNL     1      -5.600   4.729 -30.070  1.00  0.00    -0.245 OA
HETATM   19  H   UNL     1      -3.881   6.389 -29.675  1.00  0.00     0.172 HD
HETATM   20  H   UNL     1      -3.496   4.092 -32.341  1.00  0.00     0.192 HD
BRANCH  17  21
HETATM   21  C   UNL     1      -2.400   5.875 -30.983  1.00  0.00     0.174 A 
HETATM   22  S   UNL     1      -2.072   7.415 -31.635  1.00  0.00    -0.062 SA
HETATM   23  C   UNL     1      -0.514   6.861 -32.095  1.00  0.00     0.072 A 
HETATM   24  C   UNL     1      -0.367   5.539 -31.728  1.00  0.00     0.126 A 
HETATM   25  N   UNL     1      -1.456   4.973 -31.092  1.00  0.00    -0.236 NA
ENDBRANCH  17  21
ENDBRANCH  12  15
ENDBRANCH   8  11
BRANCH   6  26
HETATM   26  C   UNL     1     -10.606   2.035 -33.785  1.00  0.00     0.014 A 
HETATM   27  C   UNL     1     -11.217   2.857 -32.817  1.00  0.00     0.046 A 
HETATM   28 CL   UNL     1     -10.367   3.458 -31.430  1.00  0.00    -0.083 Cl
HETATM   29  C   UNL     1     -12.575   3.194 -32.908  1.00  0.00     0.025 A 
HETATM   30  C   UNL     1     -13.356   2.704 -33.953  1.00  0.00     0.002 A 
HETATM   31  C   UNL     1     -12.783   1.871 -34.907  1.00  0.00     0.001 A 
HETATM   32  C   UNL     1     -11.427   1.543 -34.822  1.00  0.00     0.015 A 
ENDBRANCH   6  26
TORSDOF 4
ENDMDL
MODEL 10
REMARK VINA RESULT:      -8.3      2.337      5.102
REMARK  4 active torsions:
REMARK  status: ('A' for Active; 'I' for Inactive)
REMARK    1  A    between atoms: C_6  and  C_7 
REMARK    2  A    between atoms: C_15  and  C_16 
REMARK       I    between atoms: C_16  and  N_17 
REMARK    3  A    between atoms: N_17  and  N_18 
REMARK       I    between atoms: N_18  and  C_19 
REMARK       I    between atoms: C_19  and  N_20 
REMARK    4  A    between atoms: N_20  and  C_21 
ROOT
HETATM    1  C   UNL     1      -7.067  -1.908 -33.890  1.00  0.00     0.001 A 
HETATM    2  C   UNL     1      -7.581  -0.723 -33.368  1.00  0.00     0.015 A 
HETATM    3  C   UNL     1      -6.742   0.392 -33.105  1.00  0.00     0.009 A 
HETATM    4  C   UNL     1      -5.370   0.287 -33.395  1.00  0.00     0.068 A 
HETATM    5  N   UNL     1      -4.502   1.294 -33.206  1.00  0.00    -0.248 NA
HETATM    6  C   UNL     1      -4.936   2.476 -32.707  1.00  0.00     0.070 A 
HETATM    7  C   UNL     1      -6.260   2.668 -32.351  1.00  0.00     0.050 A 
HETATM    8  C   UNL     1      -7.172   1.633 -32.582  1.00  0.00     0.048 A 
HETATM    9  C   UNL     1      -4.882  -0.904 -33.917  1.00  0.00     0.032 A 
HETATM   10  C   UNL     1      -5.711  -1.999 -34.165  1.00  0.00     0.002 A 
ENDROOT
BRANCH   8  11
HETATM   11  C   UNL     1      -8.604   1.895 -32.286  1.00  0.00     0.271 C 
HETATM   12  N   UNL     1      -9.383   2.143 -33.398  1.00  0.00    -0.262 N 
HETATM   13  H   UNL     1      -9.008   2.266 -34.336  1.00  0.00     0.190 HD
HETATM   14  O   UNL     1      -9.035   1.867 -31.139  1.00  0.00    -0.266 OA
BRANCH  12  15
HETATM   15  N   UNL     1     -10.724   2.491 -33.221  1.00  0.00    -0.249 N 
HETATM   16  C   UNL     1     -11.670   1.507 -33.333  1.00  0.00     0.341 C 
HETATM   17  N   UNL     1     -12.979   1.875 -33.273  1.00  0.00    -0.286 N 
HETATM   18  O   UNL     1     -11.375   0.314 -33.436  1.00  0.00    -0.245 OA
HETATM   19  H   UNL     1     -13.653   1.128 -33.316  1.00  0.00     0.172 HD
HETATM   20  H   UNL     1     -10.985   3.451 -33.460  1.00  0.00     0.192 HD
BRANCH  17  21
HETATM   21  C   UNL     1     -13.436   3.148 -33.109  1.00  0.00     0.174 A 
HETATM   22  S   UNL     1     -14.593   3.343 -31.873  1.00  0.00    -0.062 SA
HETATM   23  C   UNL     1     -14.647   5.023 -32.222  1.00  0.00     0.072 A 
HETATM   24  C   UNL     1     -13.788   5.305 -33.265  1.00  0.00     0.126 A 
HETATM   25  N   UNL     1     -13.096   4.223 -33.776  1.00  0.00    -0.236 NA
ENDBRANCH  17  21
ENDBRANCH  12  15
ENDBRANCH   8  11
BRANCH   6  26
HETATM   26  C   UNL     1      -3.898   3.511 -32.552  1.00  0.00     0.014 A 
HETATM   27  C   UNL     1      -3.758   4.625 -33.404  1.00  0.00     0.046 A 
HETATM   28 CL   UNL     1      -4.769   4.873 -34.791  1.00  0.00    -0.083 Cl
HETATM   29  C   UNL     1      -2.748   5.574 -33.192  1.00  0.00     0.025 A 
HETATM   30  C   UNL     1      -1.847   5.424 -32.141  1.00  0.00     0.002 A 
HETATM   31  C   UNL     1      -1.949   4.322 -31.299  1.00  0.00     0.001 A 
HETATM   32  C   UNL     1      -2.961   3.380 -31.505  1.00  0.00     0.015 A 
ENDBRANCH   6  26
TORSDOF 4
ENDMDL
