MODEL 1
REMARK VINA RESULT:      -9.5      0.000      0.000
REMARK  8 active torsions:
REMARK  status: ('A' for Active; 'I' for Inactive)
REMARK    1  A    between atoms: C_7  and  C_8 
REMARK       I    between atoms: C_8  and  N_9 
REMARK    2  A    between atoms: N_9  and  N_10 
REMARK    3  A    between atoms: N_10  and  C_11 
REMARK    4  A    between atoms: C_11  and  N_12 
REMARK    5  A    between atoms: N_12  and  C_13 
REMARK    6  A    between atoms: N_15  and  C_16 
REMARK    7  A    between atoms: C_16  and  C_17 
REMARK    8  A    between atoms: C_29  and  C_30 
ROOT
HETATM    1  C   UNL     1      -7.011   5.126 -32.490  1.00  0.00     0.290 C 
HETATM    2  N   UNL     1      -7.078   3.767 -32.726  1.00  0.00    -0.262 N 
HETATM    3  O   UNL     1      -7.983   5.865 -32.368  1.00  0.00    -0.264 OA
HETATM    4  H   UNL     1      -6.211   3.230 -32.696  1.00  0.00     0.190 HD
ENDROOT
BRANCH   2   5
HETATM    5  N   UNL     1      -8.289   3.079 -32.669  1.00  0.00    -0.273 N 
HETATM    6  H   UNL     1      -8.696   2.748 -33.550  1.00  0.00     0.189 HD
BRANCH   5   7
HETATM    7  C   UNL     1      -8.770   2.572 -31.491  1.00  0.00     0.192 C 
HETATM    8  S   UNL     1      -9.720   3.426 -30.403  1.00  0.00    -0.039 SA
BRANCH   7   9
HETATM    9  N   UNL     1      -8.443   1.284 -31.176  1.00  0.00    -0.315 N 
HETATM   10  H   UNL     1      -9.097   0.807 -30.572  1.00  0.00     0.170 HD
BRANCH   9  11
HETATM   11  C   UNL     1      -7.297   0.596 -31.514  1.00  0.00     0.151 A 
HETATM   12  N   UNL     1      -6.839   0.452 -32.761  1.00  0.00    -0.154 NA
HETATM   13  N   UNL     1      -5.700  -0.259 -32.618  1.00  0.00    -0.275 N 
HETATM   14  C   UNL     1      -5.429  -0.580 -31.318  1.00  0.00     0.116 A 
HETATM   15  C   UNL     1      -6.453  -0.042 -30.577  1.00  0.00     0.071 A 
BRANCH  13  16
HETATM   16  C   UNL     1      -4.944  -0.677 -33.791  1.00  0.00     0.192 C 
BRANCH  16  17
HETATM   17  C   UNL     1      -5.191  -2.118 -34.129  1.00  0.00     0.000 A 
HETATM   18  C   UNL     1      -6.383  -2.505 -34.746  1.00  0.00     0.124 A 
HETATM   19  F   UNL     1      -7.307  -1.581 -35.045  1.00  0.00    -0.205 F 
HETATM   20  C   UNL     1      -6.635  -3.836 -35.067  1.00  0.00     0.043 A 
HETATM   21  C   UNL     1      -5.681  -4.808 -34.768  1.00  0.00     0.003 A 
HETATM   22  C   UNL     1      -4.488  -4.444 -34.143  1.00  0.00     0.001 A 
HETATM   23  C   UNL     1      -4.244  -3.106 -33.820  1.00  0.00     0.012 A 
ENDBRANCH  16  17
ENDBRANCH  13  16
ENDBRANCH   9  11
ENDBRANCH   7   9
ENDBRANCH   5   7
ENDBRANCH   2   5
BRANCH   1  24
HETATM   24  C   UNL     1      -5.619   5.599 -32.403  1.00  0.00     0.150 A 
HETATM   25  N   UNL     1      -4.862   5.777 -33.509  1.00  0.00    -0.165 NA
HETATM   26  N   UNL     1      -3.678   6.190 -33.027  1.00  0.00    -0.240 N 
HETATM   27  C   UNL     1      -3.652   6.323 -31.666  1.00  0.00     0.123 A 
HETATM   28  C   UNL     1      -2.591   6.552 -33.913  1.00  0.00     0.221 C 
HETATM   29  N   UNL     1      -2.562   6.788 -31.018  1.00  0.00    -0.371 N 
HETATM   30  C   UNL     1      -4.891   5.933 -31.227  1.00  0.00     0.089 A 
HETATM   31  C   UNL     1      -1.288   6.960 -31.705  1.00  0.00     0.081 C 
HETATM   32  H   UNL     1      -2.513   6.732 -30.001  1.00  0.00     0.161 HD
HETATM   33  C   UNL     1      -0.419   5.722 -31.515  1.00  0.00     0.032 C 
HETATM   34  C   UNL     1      -1.520   7.371 -33.168  1.00  0.00     0.061 C 
BRANCH  28  35
HETATM   35  C   UNL     1      -2.035   5.334 -34.617  1.00  0.00     0.409 C 
HETATM   36  F   UNL     1      -2.765   4.976 -35.696  1.00  0.00    -0.169 F 
HETATM   37  F   UNL     1      -0.785   5.604 -35.081  1.00  0.00    -0.169 F 
HETATM   38  F   UNL     1      -1.923   4.252 -33.822  1.00  0.00    -0.169 F 
ENDBRANCH  28  35
ENDBRANCH   1  24
TORSDOF 8
ENDMDL
MODEL 2
REMARK VINA RESULT:      -9.3      3.178      6.318
REMARK  8 active torsions:
REMARK  status: ('A' for Active; 'I' for Inactive)
REMARK    1  A    between atoms: C_7  and  C_8 
REMARK       I    between atoms: C_8  and  N_9 
REMARK    2  A    between atoms: N_9  and  N_10 
REMARK    3  A    between atoms: N_10  and  C_11 
REMARK    4  A    between atoms: C_11  and  N_12 
REMARK    5  A    between atoms: N_12  and  C_13 
REMARK    6  A    between atoms: N_15  and  C_16 
REMARK    7  A    between atoms: C_16  and  C_17 
REMARK    8  A    between atoms: C_29  and  C_30 
ROOT
HETATM    1  C   UNL     1      -6.733   4.781 -33.302  1.00  0.00     0.290 C 
HETATM    2  N   UNL     1      -6.388   4.808 -31.966  1.00  0.00    -0.262 N 
HETATM    3  O   UNL     1      -5.991   5.108 -34.225  1.00  0.00    -0.264 OA
HETATM    4  H   UNL     1      -7.040   4.407 -31.292  1.00  0.00     0.190 HD
ENDROOT
BRANCH   2   5
HETATM    5  N   UNL     1      -5.077   5.049 -31.559  1.00  0.00    -0.273 N 
HETATM    6  H   UNL     1      -4.844   5.987 -31.216  1.00  0.00     0.189 HD
BRANCH   5   7
HETATM    7  C   UNL     1      -4.204   4.024 -31.310  1.00  0.00     0.192 C 
HETATM    8  S   UNL     1      -2.576   4.038 -31.720  1.00  0.00    -0.039 SA
BRANCH   7   9
HETATM    9  N   UNL     1      -4.696   2.908 -30.696  1.00  0.00    -0.315 N 
HETATM   10  H   UNL     1      -4.546   2.861 -29.698  1.00  0.00     0.170 HD
BRANCH   9  11
HETATM   11  C   UNL     1      -5.292   1.812 -31.284  1.00  0.00     0.151 A 
HETATM   12  N   UNL     1      -5.479   1.666 -32.599  1.00  0.00    -0.154 NA
HETATM   13  N   UNL     1      -6.064   0.454 -32.719  1.00  0.00    -0.275 N 
HETATM   14  C   UNL     1      -6.262  -0.166 -31.519  1.00  0.00     0.116 A 
HETATM   15  C   UNL     1      -5.775   0.696 -30.566  1.00  0.00     0.071 A 
BRANCH  13  16
HETATM   16  C   UNL     1      -6.488  -0.028 -34.026  1.00  0.00     0.192 C 
BRANCH  16  17
HETATM   17  C   UNL     1      -6.113  -1.466 -34.238  1.00  0.00     0.000 A 
HETATM   18  C   UNL     1      -4.777  -1.865 -34.169  1.00  0.00     0.124 A 
HETATM   19  F   UNL     1      -3.826  -0.959 -33.902  1.00  0.00    -0.205 F 
HETATM   20  C   UNL     1      -4.405  -3.192 -34.364  1.00  0.00     0.043 A 
HETATM   21  C   UNL     1      -5.383  -4.147 -34.637  1.00  0.00     0.003 A 
HETATM   22  C   UNL     1      -6.723  -3.767 -34.720  1.00  0.00     0.001 A 
HETATM   23  C   UNL     1      -7.088  -2.433 -34.527  1.00  0.00     0.012 A 
ENDBRANCH  16  17
ENDBRANCH  13  16
ENDBRANCH   9  11
ENDBRANCH   7   9
ENDBRANCH   5   7
ENDBRANCH   2   5
BRANCH   1  24
HETATM   24  C   UNL     1      -8.114   4.311 -33.503  1.00  0.00     0.150 A 
HETATM   25  N   UNL     1      -8.601   3.243 -32.832  1.00  0.00    -0.165 NA
HETATM   26  N   UNL     1      -9.859   3.121 -33.288  1.00  0.00    -0.240 N 
HETATM   27  C   UNL     1     -10.214   4.085 -34.192  1.00  0.00     0.123 A 
HETATM   28  C   UNL     1     -10.754   2.111 -32.764  1.00  0.00     0.221 C 
HETATM   29  N   UNL     1     -11.461   4.151 -34.707  1.00  0.00    -0.371 N 
HETATM   30  C   UNL     1      -9.100   4.865 -34.366  1.00  0.00     0.089 A 
HETATM   31  C   UNL     1     -12.424   3.076 -34.502  1.00  0.00     0.081 C 
HETATM   32  H   UNL     1     -11.655   4.778 -35.488  1.00  0.00     0.161 HD
HETATM   33  C   UNL     1     -12.387   2.108 -35.678  1.00  0.00     0.032 C 
HETATM   34  C   UNL     1     -12.218   2.430 -33.123  1.00  0.00     0.061 C 
BRANCH  28  35
HETATM   35  C   UNL     1     -10.320   0.725 -33.189  1.00  0.00     0.409 C 
HETATM   36  F   UNL     1     -11.357  -0.131 -33.313  1.00  0.00    -0.169 F 
HETATM   37  F   UNL     1      -9.733   0.785 -34.415  1.00  0.00    -0.169 F 
HETATM   38  F   UNL     1      -9.420   0.161 -32.360  1.00  0.00    -0.169 F 
ENDBRANCH  28  35
ENDBRANCH   1  24
TORSDOF 8
ENDMDL
MODEL 3
REMARK VINA RESULT:      -9.1      2.439      7.615
REMARK  8 active torsions:
REMARK  status: ('A' for Active; 'I' for Inactive)
REMARK    1  A    between atoms: C_7  and  C_8 
REMARK       I    between atoms: C_8  and  N_9 
REMARK    2  A    between atoms: N_9  and  N_10 
REMARK    3  A    between atoms: N_10  and  C_11 
REMARK    4  A    between atoms: C_11  and  N_12 
REMARK    5  A    between atoms: N_12  and  C_13 
REMARK    6  A    between atoms: N_15  and  C_16 
REMARK    7  A    between atoms: C_16  and  C_17 
REMARK    8  A    between atoms: C_29  and  C_30 
ROOT
HETATM    1  C   UNL     1      -8.773   0.245 -32.475  1.00  0.00     0.290 C 
HETATM    2  N   UNL     1      -8.661   0.820 -31.226  1.00  0.00    -0.262 N 
HETATM    3  O   UNL     1      -9.753   0.345 -33.208  1.00  0.00    -0.264 OA
HETATM    4  H   UNL     1      -7.759   0.770 -30.751  1.00  0.00     0.190 HD
ENDROOT
BRANCH   2   5
HETATM    5  N   UNL     1      -9.608   1.728 -30.756  1.00  0.00    -0.273 N 
HETATM    6  H   UNL     1     -10.318   1.387 -30.099  1.00  0.00     0.189 HD
BRANCH   5   7
HETATM    7  C   UNL     1      -9.433   3.080 -30.889  1.00  0.00     0.192 C 
HETATM    8  S   UNL     1     -10.307   4.056 -31.938  1.00  0.00    -0.039 SA
BRANCH   7   9
HETATM    9  N   UNL     1      -8.470   3.672 -30.122  1.00  0.00    -0.315 N 
HETATM   10  H   UNL     1      -8.802   4.114 -29.276  1.00  0.00     0.170 HD
BRANCH   9  11
HETATM   11  C   UNL     1      -7.128   3.807 -30.405  1.00  0.00     0.151 A 
HETATM   12  N   UNL     1      -6.461   3.061 -31.290  1.00  0.00    -0.154 NA
HETATM   13  N   UNL     1      -5.203   3.550 -31.258  1.00  0.00    -0.275 N 
HETATM   14  C   UNL     1      -5.050   4.576 -30.370  1.00  0.00     0.116 A 
HETATM   15  C   UNL     1      -6.284   4.762 -29.795  1.00  0.00     0.071 A 
BRANCH  13  16
HETATM   16  C   UNL     1      -4.155   2.930 -32.056  1.00  0.00     0.192 C 
BRANCH  16  17
HETATM   17  C   UNL     1      -3.453   3.930 -32.930  1.00  0.00     0.000 A 
HETATM   18  C   UNL     1      -4.101   4.475 -34.040  1.00  0.00     0.124 A 
HETATM   19  F   UNL     1      -5.360   4.109 -34.322  1.00  0.00    -0.205 F 
HETATM   20  C   UNL     1      -3.470   5.402 -34.865  1.00  0.00     0.043 A 
HETATM   21  C   UNL     1      -2.164   5.797 -34.583  1.00  0.00     0.003 A 
HETATM   22  C   UNL     1      -1.496   5.258 -33.484  1.00  0.00     0.001 A 
HETATM   23  C   UNL     1      -2.134   4.324 -32.662  1.00  0.00     0.012 A 
ENDBRANCH  16  17
ENDBRANCH  13  16
ENDBRANCH   9  11
ENDBRANCH   7   9
ENDBRANCH   5   7
ENDBRANCH   2   5
BRANCH   1  24
HETATM   24  C   UNL     1      -7.566  -0.516 -32.839  1.00  0.00     0.150 A 
HETATM   25  N   UNL     1      -7.550  -1.348 -33.905  1.00  0.00    -0.165 NA
HETATM   26  N   UNL     1      -6.308  -1.858 -33.898  1.00  0.00    -0.240 N 
HETATM   27  C   UNL     1      -5.513  -1.363 -32.900  1.00  0.00     0.123 A 
HETATM   28  C   UNL     1      -5.862  -2.767 -34.934  1.00  0.00     0.221 C 
HETATM   29  N   UNL     1      -4.216  -1.720 -32.782  1.00  0.00    -0.371 N 
HETATM   30  C   UNL     1      -6.303  -0.501 -32.185  1.00  0.00     0.089 A 
HETATM   31  C   UNL     1      -3.655  -2.813 -33.567  1.00  0.00     0.081 C 
HETATM   32  H   UNL     1      -3.691  -1.459 -31.947  1.00  0.00     0.161 HD
HETATM   33  C   UNL     1      -3.703  -4.110 -32.768  1.00  0.00     0.032 C 
HETATM   34  C   UNL     1      -4.325  -2.877 -34.949  1.00  0.00     0.061 C 
BRANCH  28  35
HETATM   35  C   UNL     1      -6.560  -4.104 -34.822  1.00  0.00     0.409 C 
HETATM   36  F   UNL     1      -5.733  -5.090 -34.410  1.00  0.00    -0.169 F 
HETATM   37  F   UNL     1      -7.549  -4.029 -33.892  1.00  0.00    -0.169 F 
HETATM   38  F   UNL     1      -7.141  -4.510 -35.968  1.00  0.00    -0.169 F 
ENDBRANCH  28  35
ENDBRANCH   1  24
TORSDOF 8
ENDMDL
MODEL 4
REMARK VINA RESULT:      -8.8      3.875      6.517
REMARK  8 active torsions:
REMARK  status: ('A' for Active; 'I' for Inactive)
REMARK    1  A    between atoms: C_7  and  C_8 
REMARK       I    between atoms: C_8  and  N_9 
REMARK    2  A    between atoms: N_9  and  N_10 
REMARK    3  A    between atoms: N_10  and  C_11 
REMARK    4  A    between atoms: C_11  and  N_12 
REMARK    5  A    between atoms: N_12  and  C_13 
REMARK    6  A    between atoms: N_15  and  C_16 
REMARK    7  A    between atoms: C_16  and  C_17 
REMARK    8  A    between atoms: C_29  and  C_30 
ROOT
HETATM    1  C   UNL     1      -6.880   4.552 -33.370  1.00  0.00     0.290 C 
HETATM    2  N   UNL     1      -6.664   4.338 -32.024  1.00  0.00    -0.262 N 
HETATM    3  O   UNL     1      -6.113   5.152 -34.117  1.00  0.00    -0.264 OA
HETATM    4  H   UNL     1      -7.310   3.729 -31.522  1.00  0.00     0.190 HD
ENDROOT
BRANCH   2   5
HETATM    5  N   UNL     1      -5.442   4.645 -31.427  1.00  0.00    -0.273 N 
HETATM    6  H   UNL     1      -5.390   5.484 -30.839  1.00  0.00     0.189 HD
BRANCH   5   7
HETATM    7  C   UNL     1      -4.434   3.722 -31.343  1.00  0.00     0.192 C 
HETATM    8  S   UNL     1      -2.860   3.980 -31.865  1.00  0.00    -0.039 SA
BRANCH   7   9
HETATM    9  N   UNL     1      -4.735   2.502 -30.808  1.00  0.00    -0.315 N 
HETATM   10  H   UNL     1      -4.455   2.371 -29.846  1.00  0.00     0.170 HD
BRANCH   9  11
HETATM   11  C   UNL     1      -5.293   1.414 -31.444  1.00  0.00     0.151 A 
HETATM   12  N   UNL     1      -5.311   1.237 -32.768  1.00  0.00    -0.154 NA
HETATM   13  N   UNL     1      -5.925   0.046 -32.937  1.00  0.00    -0.275 N 
HETATM   14  C   UNL     1      -6.306  -0.531 -31.760  1.00  0.00     0.116 A 
HETATM   15  C   UNL     1      -5.914   0.338 -30.771  1.00  0.00     0.071 A 
BRANCH  13  16
HETATM   16  C   UNL     1      -6.193  -0.457 -34.277  1.00  0.00     0.192 C 
BRANCH  16  17
HETATM   17  C   UNL     1      -5.912  -1.928 -34.387  1.00  0.00     0.000 A 
HETATM   18  C   UNL     1      -4.617  -2.415 -34.199  1.00  0.00     0.124 A 
HETATM   19  F   UNL     1      -3.622  -1.564 -33.909  1.00  0.00    -0.205 F 
HETATM   20  C   UNL     1      -4.331  -3.774 -34.298  1.00  0.00     0.043 A 
HETATM   21  C   UNL     1      -5.356  -4.672 -34.593  1.00  0.00     0.003 A 
HETATM   22  C   UNL     1      -6.655  -4.204 -34.794  1.00  0.00     0.001 A 
HETATM   23  C   UNL     1      -6.933  -2.838 -34.697  1.00  0.00     0.012 A 
ENDBRANCH  16  17
ENDBRANCH  13  16
ENDBRANCH   9  11
ENDBRANCH   7   9
ENDBRANCH   5   7
ENDBRANCH   2   5
BRANCH   1  24
HETATM   24  C   UNL     1      -8.157   3.971 -33.819  1.00  0.00     0.150 A 
HETATM   25  N   UNL     1      -9.179   4.751 -34.239  1.00  0.00    -0.165 NA
HETATM   26  N   UNL     1     -10.150   3.874 -34.542  1.00  0.00    -0.240 N 
HETATM   27  C   UNL     1      -9.787   2.567 -34.373  1.00  0.00     0.123 A 
HETATM   28  C   UNL     1     -11.415   4.315 -35.094  1.00  0.00     0.221 C 
HETATM   29  N   UNL     1     -10.619   1.551 -34.689  1.00  0.00    -0.371 N 
HETATM   30  C   UNL     1      -8.504   2.594 -33.890  1.00  0.00     0.089 A 
HETATM   31  C   UNL     1     -12.020   1.792 -35.014  1.00  0.00     0.081 C 
HETATM   32  H   UNL     1     -10.386   0.598 -34.412  1.00  0.00     0.161 HD
HETATM   33  C   UNL     1     -12.882   1.624 -33.768  1.00  0.00     0.032 C 
HETATM   34  C   UNL     1     -12.178   3.140 -35.735  1.00  0.00     0.061 C 
BRANCH  28  35
HETATM   35  C   UNL     1     -12.226   5.068 -34.063  1.00  0.00     0.409 C 
HETATM   36  F   UNL     1     -11.951   4.679 -32.799  1.00  0.00    -0.169 F 
HETATM   37  F   UNL     1     -11.926   6.394 -34.123  1.00  0.00    -0.169 F 
HETATM   38  F   UNL     1     -13.557   4.967 -34.242  1.00  0.00    -0.169 F 
ENDBRANCH  28  35
ENDBRANCH   1  24
TORSDOF 8
ENDMDL
MODEL 5
REMARK VINA RESULT:      -8.8      1.795      2.627
REMARK  8 active torsions:
REMARK  status: ('A' for Active; 'I' for Inactive)
REMARK    1  A    between atoms: C_7  and  C_8 
REMARK       I    between atoms: C_8  and  N_9 
REMARK    2  A    between atoms: N_9  and  N_10 
REMARK    3  A    between atoms: N_10  and  C_11 
REMARK    4  A    between atoms: C_11  and  N_12 
REMARK    5  A    between atoms: N_12  and  C_13 
REMARK    6  A    between atoms: N_15  and  C_16 
REMARK    7  A    between atoms: C_16  and  C_17 
REMARK    8  A    between atoms: C_29  and  C_30 
ROOT
HETATM    1  C   UNL     1      -6.769   5.121 -31.518  1.00  0.00     0.290 C 
HETATM    2  N   UNL     1      -7.554   5.418 -32.613  1.00  0.00    -0.262 N 
HETATM    3  O   UNL     1      -7.168   4.558 -30.502  1.00  0.00    -0.264 OA
HETATM    4  H   UNL     1      -7.096   5.784 -33.449  1.00  0.00     0.190 HD
ENDROOT
BRANCH   2   5
HETATM    5  N   UNL     1      -8.856   4.934 -32.728  1.00  0.00    -0.273 N 
HETATM    6  H   UNL     1      -9.490   5.064 -31.932  1.00  0.00     0.189 HD
BRANCH   5   7
HETATM    7  C   UNL     1      -9.388   4.591 -33.943  1.00  0.00     0.192 C 
HETATM    8  S   UNL     1     -10.094   5.674 -35.014  1.00  0.00    -0.039 SA
BRANCH   7   9
HETATM    9  N   UNL     1      -9.352   3.274 -34.300  1.00  0.00    -0.315 N 
HETATM   10  H   UNL     1      -9.615   3.078 -35.256  1.00  0.00     0.170 HD
BRANCH   9  11
HETATM   11  C   UNL     1      -9.083   2.187 -33.497  1.00  0.00     0.151 A 
HETATM   12  N   UNL     1      -7.894   1.928 -32.944  1.00  0.00    -0.154 NA
HETATM   13  N   UNL     1      -8.096   0.798 -32.233  1.00  0.00    -0.275 N 
HETATM   14  C   UNL     1      -9.374   0.327 -32.328  1.00  0.00     0.116 A 
HETATM   15  C   UNL     1     -10.038   1.206 -33.149  1.00  0.00     0.071 A 
BRANCH  13  16
HETATM   16  C   UNL     1      -6.986   0.164 -31.535  1.00  0.00     0.192 C 
BRANCH  16  17
HETATM   17  C   UNL     1      -6.174  -0.704 -32.453  1.00  0.00     0.000 A 
HETATM   18  C   UNL     1      -4.827  -0.953 -32.181  1.00  0.00     0.124 A 
HETATM   19  F   UNL     1      -4.260  -0.420 -31.089  1.00  0.00    -0.205 F 
HETATM   20  C   UNL     1      -4.054  -1.752 -33.018  1.00  0.00     0.043 A 
HETATM   21  C   UNL     1      -4.630  -2.318 -34.154  1.00  0.00     0.003 A 
HETATM   22  C   UNL     1      -5.972  -2.074 -34.448  1.00  0.00     0.001 A 
HETATM   23  C   UNL     1      -6.741  -1.267 -33.606  1.00  0.00     0.012 A 
ENDBRANCH  16  17
ENDBRANCH  13  16
ENDBRANCH   9  11
ENDBRANCH   7   9
ENDBRANCH   5   7
ENDBRANCH   2   5
BRANCH   1  24
HETATM   24  C   UNL     1      -5.377   5.563 -31.703  1.00  0.00     0.150 A 
HETATM   25  N   UNL     1      -4.847   5.732 -32.935  1.00  0.00    -0.165 NA
HETATM   26  N   UNL     1      -3.583   6.116 -32.694  1.00  0.00    -0.240 N 
HETATM   27  C   UNL     1      -3.288   6.241 -31.364  1.00  0.00     0.123 A 
HETATM   28  C   UNL     1      -2.682   6.459 -33.775  1.00  0.00     0.221 C 
HETATM   29  N   UNL     1      -2.082   6.677 -30.941  1.00  0.00    -0.371 N 
HETATM   30  C   UNL     1      -4.426   5.874 -30.692  1.00  0.00     0.089 A 
HETATM   31  C   UNL     1      -0.964   6.826 -31.864  1.00  0.00     0.081 C 
HETATM   32  H   UNL     1      -1.837   6.615 -29.953  1.00  0.00     0.161 HD
HETATM   33  C   UNL     1      -0.103   5.568 -31.850  1.00  0.00     0.032 C 
HETATM   34  C   UNL     1      -1.468   7.250 -33.253  1.00  0.00     0.061 C 
BRANCH  28  35
HETATM   35  C   UNL     1      -2.302   5.234 -34.576  1.00  0.00     0.409 C 
HETATM   36  F   UNL     1      -2.270   4.110 -33.826  1.00  0.00    -0.169 F 
HETATM   37  F   UNL     1      -3.231   5.013 -35.545  1.00  0.00    -0.169 F 
HETATM   38  F   UNL     1      -1.114   5.342 -35.201  1.00  0.00    -0.169 F 
ENDBRANCH  28  35
ENDBRANCH   1  24
TORSDOF 8
ENDMDL
MODEL 6
REMARK VINA RESULT:      -8.8      1.807      2.220
REMARK  8 active torsions:
REMARK  status: ('A' for Active; 'I' for Inactive)
REMARK    1  A    between atoms: C_7  and  C_8 
REMARK       I    between atoms: C_8  and  N_9 
REMARK    2  A    between atoms: N_9  and  N_10 
REMARK    3  A    between atoms: N_10  and  C_11 
REMARK    4  A    between atoms: C_11  and  N_12 
REMARK    5  A    between atoms: N_12  and  C_13 
REMARK    6  A    between atoms: N_15  and  C_16 
REMARK    7  A    between atoms: C_16  and  C_17 
REMARK    8  A    between atoms: C_29  and  C_30 
ROOT
HETATM    1  C   UNL     1      -6.346   5.009 -29.684  1.00  0.00     0.290 C 
HETATM    2  N   UNL     1      -6.666   3.813 -30.293  1.00  0.00    -0.262 N 
HETATM    3  O   UNL     1      -6.997   5.534 -28.784  1.00  0.00    -0.264 OA
HETATM    4  H   UNL     1      -5.995   3.412 -30.949  1.00  0.00     0.190 HD
ENDROOT
BRANCH   2   5
HETATM    5  N   UNL     1      -7.686   2.998 -29.804  1.00  0.00    -0.273 N 
HETATM    6  H   UNL     1      -7.581   2.610 -28.860  1.00  0.00     0.189 HD
BRANCH   5   7
HETATM    7  C   UNL     1      -8.920   2.961 -30.396  1.00  0.00     0.192 C 
HETATM    8  S   UNL     1      -9.974   4.264 -30.484  1.00  0.00    -0.039 SA
BRANCH   7   9
HETATM    9  N   UNL     1      -9.325   1.777 -30.943  1.00  0.00    -0.315 N 
HETATM   10  H   UNL     1     -10.151   1.369 -30.529  1.00  0.00     0.170 HD
BRANCH   9  11
HETATM   11  C   UNL     1      -8.697   1.041 -31.925  1.00  0.00     0.151 A 
HETATM   12  N   UNL     1      -7.444   1.244 -32.341  1.00  0.00    -0.154 NA
HETATM   13  N   UNL     1      -7.245   0.294 -33.280  1.00  0.00    -0.275 N 
HETATM   14  C   UNL     1      -8.340  -0.498 -33.479  1.00  0.00     0.116 A 
HETATM   15  C   UNL     1      -9.302  -0.033 -32.616  1.00  0.00     0.071 A 
BRANCH  13  16
HETATM   16  C   UNL     1      -5.992   0.245 -34.019  1.00  0.00     0.192 C 
BRANCH  16  17
HETATM   17  C   UNL     1      -5.214  -1.003 -33.716  1.00  0.00     0.000 A 
HETATM   18  C   UNL     1      -4.338  -1.043 -32.630  1.00  0.00     0.124 A 
HETATM   19  F   UNL     1      -4.199   0.037 -31.848  1.00  0.00    -0.205 F 
HETATM   20  C   UNL     1      -3.605  -2.188 -32.330  1.00  0.00     0.043 A 
HETATM   21  C   UNL     1      -3.742  -3.322 -33.130  1.00  0.00     0.003 A 
HETATM   22  C   UNL     1      -4.606  -3.299 -34.226  1.00  0.00     0.001 A 
HETATM   23  C   UNL     1      -5.335  -2.145 -34.522  1.00  0.00     0.012 A 
ENDBRANCH  16  17
ENDBRANCH  13  16
ENDBRANCH   9  11
ENDBRANCH   7   9
ENDBRANCH   5   7
ENDBRANCH   2   5
BRANCH   1  24
HETATM   24  C   UNL     1      -5.117   5.598 -30.242  1.00  0.00     0.150 A 
HETATM   25  N   UNL     1      -4.815   5.489 -31.555  1.00  0.00    -0.165 NA
HETATM   26  N   UNL     1      -3.637   6.125 -31.669  1.00  0.00    -0.240 N 
HETATM   27  C   UNL     1      -3.188   6.670 -30.498  1.00  0.00     0.123 A 
HETATM   28  C   UNL     1      -2.991   6.285 -32.956  1.00  0.00     0.221 C 
HETATM   29  N   UNL     1      -2.052   7.398 -30.442  1.00  0.00    -0.371 N 
HETATM   30  C   UNL     1      -4.117   6.334 -29.547  1.00  0.00     0.089 A 
HETATM   31  C   UNL     1      -1.132   7.454 -31.572  1.00  0.00     0.081 C 
HETATM   32  H   UNL     1      -1.661   7.661 -29.538  1.00  0.00     0.161 HD
HETATM   33  C   UNL     1      -0.035   6.408 -31.406  1.00  0.00     0.032 C 
HETATM   34  C   UNL     1      -1.906   7.376 -32.897  1.00  0.00     0.061 C 
BRANCH  28  35
HETATM   35  C   UNL     1      -2.482   4.959 -33.477  1.00  0.00     0.409 C 
HETATM   36  F   UNL     1      -3.380   4.330 -34.268  1.00  0.00    -0.169 F 
HETATM   37  F   UNL     1      -1.379   5.162 -34.248  1.00  0.00    -0.169 F 
HETATM   38  F   UNL     1      -2.118   4.098 -32.507  1.00  0.00    -0.169 F 
ENDBRANCH  28  35
ENDBRANCH   1  24
TORSDOF 8
ENDMDL
MODEL 7
REMARK VINA RESULT:      -8.7      2.339      2.895
REMARK  8 active torsions:
REMARK  status: ('A' for Active; 'I' for Inactive)
REMARK    1  A    between atoms: C_7  and  C_8 
REMARK       I    between atoms: C_8  and  N_9 
REMARK    2  A    between atoms: N_9  and  N_10 
REMARK    3  A    between atoms: N_10  and  C_11 
REMARK    4  A    between atoms: C_11  and  N_12 
REMARK    5  A    between atoms: N_12  and  C_13 
REMARK    6  A    between atoms: N_15  and  C_16 
REMARK    7  A    between atoms: C_16  and  C_17 
REMARK    8  A    between atoms: C_29  and  C_30 
ROOT
HETATM    1  C   UNL     1      -4.844   3.258 -30.746  1.00  0.00     0.290 C 
HETATM    2  N   UNL     1      -5.904   3.272 -29.864  1.00  0.00    -0.262 N 
HETATM    3  O   UNL     1      -4.476   2.275 -31.384  1.00  0.00    -0.264 OA
HETATM    4  H   UNL     1      -6.195   4.170 -29.475  1.00  0.00     0.190 HD
ENDROOT
BRANCH   2   5
HETATM    5  N   UNL     1      -6.774   2.189 -29.753  1.00  0.00    -0.273 N 
HETATM    6  H   UNL     1      -6.654   1.555 -28.956  1.00  0.00     0.189 HD
BRANCH   5   7
HETATM    7  C   UNL     1      -7.938   2.128 -30.472  1.00  0.00     0.192 C 
HETATM    8  S   UNL     1      -9.166   3.270 -30.394  1.00  0.00    -0.039 SA
BRANCH   7   9
HETATM    9  N   UNL     1      -8.117   1.057 -31.300  1.00  0.00    -0.315 N 
HETATM   10  H   UNL     1      -8.939   0.500 -31.115  1.00  0.00     0.170 HD
BRANCH   9  11
HETATM   11  C   UNL     1      -7.273   0.607 -32.292  1.00  0.00     0.151 A 
HETATM   12  N   UNL     1      -6.315  -0.308 -32.116  1.00  0.00    -0.154 NA
HETATM   13  N   UNL     1      -5.767  -0.457 -33.341  1.00  0.00    -0.275 N 
HETATM   14  C   UNL     1      -6.341   0.345 -34.286  1.00  0.00     0.116 A 
HETATM   15  C   UNL     1      -7.320   1.053 -33.632  1.00  0.00     0.071 A 
BRANCH  13  16
HETATM   16  C   UNL     1      -4.623  -1.339 -33.530  1.00  0.00     0.192 C 
BRANCH  16  17
HETATM   17  C   UNL     1      -5.037  -2.684 -34.052  1.00  0.00     0.000 A 
HETATM   18  C   UNL     1      -4.247  -3.810 -33.809  1.00  0.00     0.124 A 
HETATM   19  F   UNL     1      -3.118  -3.688 -33.097  1.00  0.00    -0.205 F 
HETATM   20  C   UNL     1      -4.609  -5.067 -34.286  1.00  0.00     0.043 A 
HETATM   21  C   UNL     1      -5.783  -5.211 -35.023  1.00  0.00     0.003 A 
HETATM   22  C   UNL     1      -6.582  -4.097 -35.285  1.00  0.00     0.001 A 
HETATM   23  C   UNL     1      -6.210  -2.838 -34.807  1.00  0.00     0.012 A 
ENDBRANCH  16  17
ENDBRANCH  13  16
ENDBRANCH   9  11
ENDBRANCH   7   9
ENDBRANCH   5   7
ENDBRANCH   2   5
BRANCH   1  24
HETATM   24  C   UNL     1      -4.189   4.573 -30.839  1.00  0.00     0.150 A 
HETATM   25  N   UNL     1      -2.963   4.715 -31.392  1.00  0.00    -0.165 NA
HETATM   26  N   UNL     1      -2.708   6.029 -31.279  1.00  0.00    -0.240 N 
HETATM   27  C   UNL     1      -3.729   6.743 -30.716  1.00  0.00     0.123 A 
HETATM   28  C   UNL     1      -1.493   6.607 -31.816  1.00  0.00     0.221 C 
HETATM   29  N   UNL     1      -3.668   8.086 -30.583  1.00  0.00    -0.371 N 
HETATM   30  C   UNL     1      -4.701   5.827 -30.404  1.00  0.00     0.089 A 
HETATM   31  C   UNL     1      -2.430   8.816 -30.825  1.00  0.00     0.081 C 
HETATM   32  H   UNL     1      -4.369   8.574 -30.025  1.00  0.00     0.161 HD
HETATM   33  C   UNL     1      -1.678   9.021 -29.515  1.00  0.00     0.032 C 
HETATM   34  C   UNL     1      -1.617   8.138 -31.939  1.00  0.00     0.061 C 
BRANCH  28  35
HETATM   35  C   UNL     1      -0.283   6.164 -31.023  1.00  0.00     0.409 C 
HETATM   36  F   UNL     1       0.678   7.113 -30.966  1.00  0.00    -0.169 F 
HETATM   37  F   UNL     1      -0.645   5.917 -29.735  1.00  0.00    -0.169 F 
HETATM   38  F   UNL     1       0.284   5.034 -31.486  1.00  0.00    -0.169 F 
ENDBRANCH  28  35
ENDBRANCH   1  24
TORSDOF 8
ENDMDL
MODEL 8
REMARK VINA RESULT:      -8.6      2.086      2.881
REMARK  8 active torsions:
REMARK  status: ('A' for Active; 'I' for Inactive)
REMARK    1  A    between atoms: C_7  and  C_8 
REMARK       I    between atoms: C_8  and  N_9 
REMARK    2  A    between atoms: N_9  and  N_10 
REMARK    3  A    between atoms: N_10  and  C_11 
REMARK    4  A    between atoms: C_11  and  N_12 
REMARK    5  A    between atoms: N_12  and  C_13 
REMARK    6  A    between atoms: N_15  and  C_16 
REMARK    7  A    between atoms: C_16  and  C_17 
REMARK    8  A    between atoms: C_29  and  C_30 
ROOT
HETATM    1  C   UNL     1      -6.794   4.848 -30.979  1.00  0.00     0.290 C 
HETATM    2  N   UNL     1      -7.096   3.599 -30.475  1.00  0.00    -0.262 N 
HETATM    3  O   UNL     1      -7.573   5.797 -31.013  1.00  0.00    -0.264 OA
HETATM    4  H   UNL     1      -6.340   2.918 -30.391  1.00  0.00     0.190 HD
ENDROOT
BRANCH   2   5
HETATM    5  N   UNL     1      -8.284   3.360 -29.787  1.00  0.00    -0.273 N 
HETATM    6  H   UNL     1      -8.359   3.700 -28.823  1.00  0.00     0.189 HD
BRANCH   5   7
HETATM    7  C   UNL     1      -9.427   2.983 -30.441  1.00  0.00     0.192 C 
HETATM    8  S   UNL     1     -10.706   4.012 -30.794  1.00  0.00    -0.039 SA
BRANCH   7   9
HETATM    9  N   UNL     1      -9.538   1.676 -30.820  1.00  0.00    -0.315 N 
HETATM   10  H   UNL     1     -10.116   1.100 -30.225  1.00  0.00     0.170 HD
BRANCH   9  11
HETATM   11  C   UNL     1      -8.894   1.041 -31.860  1.00  0.00     0.151 A 
HETATM   12  N   UNL     1      -7.629   1.272 -32.224  1.00  0.00    -0.154 NA
HETATM   13  N   UNL     1      -7.417   0.423 -33.252  1.00  0.00    -0.275 N 
HETATM   14  C   UNL     1      -8.513  -0.331 -33.558  1.00  0.00     0.116 A 
HETATM   15  C   UNL     1      -9.492   0.052 -32.673  1.00  0.00     0.071 A 
BRANCH  13  16
HETATM   16  C   UNL     1      -6.147   0.438 -33.964  1.00  0.00     0.192 C 
BRANCH  16  17
HETATM   17  C   UNL     1      -5.206  -0.612 -33.447  1.00  0.00     0.000 A 
HETATM   18  C   UNL     1      -5.107  -1.849 -34.088  1.00  0.00     0.124 A 
HETATM   19  F   UNL     1      -5.851  -2.095 -35.176  1.00  0.00    -0.205 F 
HETATM   20  C   UNL     1      -4.243  -2.838 -33.626  1.00  0.00     0.043 A 
HETATM   21  C   UNL     1      -3.459  -2.595 -32.500  1.00  0.00     0.003 A 
HETATM   22  C   UNL     1      -3.550  -1.370 -31.840  1.00  0.00     0.001 A 
HETATM   23  C   UNL     1      -4.422  -0.383 -32.307  1.00  0.00     0.012 A 
ENDBRANCH  16  17
ENDBRANCH  13  16
ENDBRANCH   9  11
ENDBRANCH   7   9
ENDBRANCH   5   7
ENDBRANCH   2   5
BRANCH   1  24
HETATM   24  C   UNL     1      -5.412   4.917 -31.483  1.00  0.00     0.150 A 
HETATM   25  N   UNL     1      -4.404   5.392 -30.717  1.00  0.00    -0.165 NA
HETATM   26  N   UNL     1      -3.327   5.312 -31.516  1.00  0.00    -0.240 N 
HETATM   27  C   UNL     1      -3.589   4.772 -32.745  1.00  0.00     0.123 A 
HETATM   28  C   UNL     1      -2.009   5.678 -31.039  1.00  0.00     0.221 C 
HETATM   29  N   UNL     1      -2.611   4.560 -33.652  1.00  0.00    -0.371 N 
HETATM   30  C   UNL     1      -4.937   4.518 -32.763  1.00  0.00     0.089 A 
HETATM   31  C   UNL     1      -1.270   5.096 -33.459  1.00  0.00     0.081 C 
HETATM   32  H   UNL     1      -2.853   4.302 -34.608  1.00  0.00     0.161 HD
HETATM   33  C   UNL     1      -1.135   6.436 -34.172  1.00  0.00     0.032 C 
HETATM   34  C   UNL     1      -0.912   5.118 -31.964  1.00  0.00     0.061 C 
BRANCH  28  35
HETATM   35  C   UNL     1      -1.905   7.171 -30.819  1.00  0.00     0.409 C 
HETATM   36  F   UNL     1      -0.666   7.650 -31.067  1.00  0.00    -0.169 F 
HETATM   37  F   UNL     1      -2.739   7.820 -31.676  1.00  0.00    -0.169 F 
HETATM   38  F   UNL     1      -2.253   7.561 -29.577  1.00  0.00    -0.169 F 
ENDBRANCH  28  35
ENDBRANCH   1  24
TORSDOF 8
ENDMDL
MODEL 9
REMARK VINA RESULT:      -8.6      3.626      5.791
REMARK  8 active torsions:
REMARK  status: ('A' for Active; 'I' for Inactive)
REMARK    1  A    between atoms: C_7  and  C_8 
REMARK       I    between atoms: C_8  and  N_9 
REMARK    2  A    between atoms: N_9  and  N_10 
REMARK    3  A    between atoms: N_10  and  C_11 
REMARK    4  A    between atoms: C_11  and  N_12 
REMARK    5  A    between atoms: N_12  and  C_13 
REMARK    6  A    between atoms: N_15  and  C_16 
REMARK    7  A    between atoms: C_16  and  C_17 
REMARK    8  A    between atoms: C_29  and  C_30 
ROOT
HETATM    1  C   UNL     1      -3.727   2.107 -31.134  1.00  0.00     0.290 C 
HETATM    2  N   UNL     1      -5.003   2.104 -30.609  1.00  0.00    -0.262 N 
HETATM    3  O   UNL     1      -3.033   1.107 -31.296  1.00  0.00    -0.264 OA
HETATM    4  H   UNL     1      -5.533   2.977 -30.624  1.00  0.00     0.190 HD
ENDROOT
BRANCH   2   5
HETATM    5  N   UNL     1      -5.691   0.915 -30.376  1.00  0.00    -0.273 N 
HETATM    6  H   UNL     1      -5.715   0.552 -29.417  1.00  0.00     0.189 HD
BRANCH   5   7
HETATM    7  C   UNL     1      -6.571   0.405 -31.293  1.00  0.00     0.192 C 
HETATM    8  S   UNL     1      -6.143  -0.598 -32.569  1.00  0.00    -0.039 SA
BRANCH   7   9
HETATM    9  N   UNL     1      -7.887   0.746 -31.165  1.00  0.00    -0.315 N 
HETATM   10  H   UNL     1      -8.372   0.320 -30.388  1.00  0.00     0.170 HD
BRANCH   9  11
HETATM   11  C   UNL     1      -8.643   1.530 -32.011  1.00  0.00     0.151 A 
HETATM   12  N   UNL     1      -9.740   1.115 -32.651  1.00  0.00    -0.154 NA
HETATM   13  N   UNL     1     -10.159   2.202 -33.334  1.00  0.00    -0.275 N 
HETATM   14  C   UNL     1      -9.354   3.290 -33.154  1.00  0.00     0.116 A 
HETATM   15  C   UNL     1      -8.356   2.882 -32.303  1.00  0.00     0.071 A 
BRANCH  13  16
HETATM   16  C   UNL     1     -11.311   2.111 -34.220  1.00  0.00     0.192 C 
BRANCH  16  17
HETATM   17  C   UNL     1     -12.604   2.228 -33.465  1.00  0.00     0.000 A 
HETATM   18  C   UNL     1     -13.640   1.319 -33.693  1.00  0.00     0.124 A 
HETATM   19  F   UNL     1     -13.473   0.332 -34.585  1.00  0.00    -0.205 F 
HETATM   20  C   UNL     1     -14.848   1.409 -33.008  1.00  0.00     0.043 A 
HETATM   21  C   UNL     1     -15.035   2.426 -32.073  1.00  0.00     0.003 A 
HETATM   22  C   UNL     1     -14.016   3.350 -31.838  1.00  0.00     0.001 A 
HETATM   23  C   UNL     1     -12.808   3.256 -32.533  1.00  0.00     0.012 A 
ENDBRANCH  16  17
ENDBRANCH  13  16
ENDBRANCH   9  11
ENDBRANCH   7   9
ENDBRANCH   5   7
ENDBRANCH   2   5
BRANCH   1  24
HETATM   24  C   UNL     1      -3.280   3.466 -31.482  1.00  0.00     0.150 A 
HETATM   25  N   UNL     1      -1.972   3.755 -31.663  1.00  0.00    -0.165 NA
HETATM   26  N   UNL     1      -1.967   5.069 -31.945  1.00  0.00    -0.240 N 
HETATM   27  C   UNL     1      -3.214   5.628 -31.993  1.00  0.00     0.123 A 
HETATM   28  C   UNL     1      -0.738   5.764 -32.267  1.00  0.00     0.221 C 
HETATM   29  N   UNL     1      -3.400   6.924 -32.324  1.00  0.00    -0.371 N 
HETATM   30  C   UNL     1      -4.090   4.619 -31.682  1.00  0.00     0.089 A 
HETATM   31  C   UNL     1      -2.277   7.847 -32.430  1.00  0.00     0.081 C 
HETATM   32  H   UNL     1      -4.317   7.353 -32.203  1.00  0.00     0.161 HD
HETATM   33  C   UNL     1      -2.087   8.593 -31.114  1.00  0.00     0.032 C 
HETATM   34  C   UNL     1      -1.028   7.115 -32.946  1.00  0.00     0.061 C 
BRANCH  28  35
HETATM   35  C   UNL     1       0.155   5.882 -31.051  1.00  0.00     0.409 C 
HETATM   36  F   UNL     1      -0.535   5.826 -29.891  1.00  0.00    -0.169 F 
HETATM   37  F   UNL     1       1.028   4.839 -31.020  1.00  0.00    -0.169 F 
HETATM   38  F   UNL     1       0.899   7.005 -31.032  1.00  0.00    -0.169 F 
ENDBRANCH  28  35
ENDBRANCH   1  24
TORSDOF 8
ENDMDL
MODEL 10
REMARK VINA RESULT:      -8.6      4.903      5.895
REMARK  8 active torsions:
REMARK  status: ('A' for Active; 'I' for Inactive)
REMARK    1  A    between atoms: C_7  and  C_8 
REMARK       I    between atoms: C_8  and  N_9 
REMARK    2  A    between atoms: N_9  and  N_10 
REMARK    3  A    between atoms: N_10  and  C_11 
REMARK    4  A    between atoms: C_11  and  N_12 
REMARK    5  A    between atoms: N_12  and  C_13 
REMARK    6  A    between atoms: N_15  and  C_16 
REMARK    7  A    between atoms: C_16  and  C_17 
REMARK    8  A    between atoms: C_29  and  C_30 
ROOT
HETATM    1  C   UNL     1      -4.210   7.363 -26.382  1.00  0.00     0.290 C 
HETATM    2  N   UNL     1      -4.074   6.226 -27.152  1.00  0.00    -0.262 N 
HETATM    3  O   UNL     1      -5.274   7.786 -25.938  1.00  0.00    -0.264 OA
HETATM    4  H   UNL     1      -3.131   5.903 -27.372  1.00  0.00     0.190 HD
ENDROOT
BRANCH   2   5
HETATM    5  N   UNL     1      -5.138   5.348 -27.346  1.00  0.00    -0.273 N 
HETATM    6  H   UNL     1      -5.707   5.093 -26.531  1.00  0.00     0.189 HD
BRANCH   5   7
HETATM    7  C   UNL     1      -5.626   5.077 -28.596  1.00  0.00     0.192 C 
HETATM    8  S   UNL     1      -6.599   6.117 -29.486  1.00  0.00    -0.039 SA
BRANCH   7   9
HETATM    9  N   UNL     1      -5.307   3.872 -29.153  1.00  0.00    -0.315 N 
HETATM   10  H   UNL     1      -4.471   3.435 -28.790  1.00  0.00     0.170 HD
BRANCH   9  11
HETATM   11  C   UNL     1      -5.937   3.230 -30.197  1.00  0.00     0.151 A 
HETATM   12  N   UNL     1      -5.434   3.111 -31.430  1.00  0.00    -0.154 NA
HETATM   13  N   UNL     1      -6.364   2.400 -32.103  1.00  0.00    -0.275 N 
HETATM   14  C   UNL     1      -7.446   2.074 -31.337  1.00  0.00     0.116 A 
HETATM   15  C   UNL     1      -7.200   2.605 -30.094  1.00  0.00     0.071 A 
BRANCH  13  16
HETATM   16  C   UNL     1      -6.191   2.128 -33.523  1.00  0.00     0.192 C 
BRANCH  16  17
HETATM   17  C   UNL     1      -6.024   0.660 -33.793  1.00  0.00     0.000 A 
HETATM   18  C   UNL     1      -6.847   0.014 -34.718  1.00  0.00     0.124 A 
HETATM   19  F   UNL     1      -7.786   0.712 -35.374  1.00  0.00    -0.205 F 
HETATM   20  C   UNL     1      -6.712  -1.346 -34.983  1.00  0.00     0.043 A 
HETATM   21  C   UNL     1      -5.738  -2.084 -34.314  1.00  0.00     0.003 A 
HETATM   22  C   UNL     1      -4.912  -1.459 -33.379  1.00  0.00     0.001 A 
HETATM   23  C   UNL     1      -5.056  -0.095 -33.115  1.00  0.00     0.012 A 
ENDBRANCH  16  17
ENDBRANCH  13  16
ENDBRANCH   9  11
ENDBRANCH   7   9
ENDBRANCH   5   7
ENDBRANCH   2   5
BRANCH   1  24
HETATM   24  C   UNL     1      -2.916   8.027 -26.151  1.00  0.00     0.150 A 
HETATM   25  N   UNL     1      -2.091   8.344 -27.174  1.00  0.00    -0.165 NA
HETATM   26  N   UNL     1      -1.031   8.907 -26.572  1.00  0.00    -0.240 N 
HETATM   27  C   UNL     1      -1.154   9.003 -25.213  1.00  0.00     0.123 A 
HETATM   28  C   UNL     1       0.072   9.446 -27.341  1.00  0.00     0.221 C 
HETATM   29  N   UNL     1      -0.209   9.599 -24.453  1.00  0.00    -0.371 N 
HETATM   30  C   UNL     1      -2.360   8.427 -24.904  1.00  0.00     0.089 A 
HETATM   31  C   UNL     1       1.086   9.970 -25.009  1.00  0.00     0.081 C 
HETATM   32  H   UNL     1      -0.250   9.521 -23.438  1.00  0.00     0.161 HD
HETATM   33  C   UNL     1       2.102   8.864 -24.753  1.00  0.00     0.032 C 
HETATM   34  C   UNL     1       0.938  10.387 -26.481  1.00  0.00     0.061 C 
BRANCH  28  35
HETATM   35  C   UNL     1       0.863   8.341 -28.005  1.00  0.00     0.409 C 
HETATM   36  F   UNL     1       0.380   8.014 -29.224  1.00  0.00    -0.169 F 
HETATM   37  F   UNL     1       2.145   8.751 -28.205  1.00  0.00    -0.169 F 
HETATM   38  F   UNL     1       0.933   7.210 -27.275  1.00  0.00    -0.169 F 
ENDBRANCH  28  35
ENDBRANCH   1  24
TORSDOF 8
ENDMDL
