MODEL 1
REMARK VINA RESULT:      -8.5      0.000      0.000
REMARK  4 active torsions:
REMARK  status: ('A' for Active; 'I' for Inactive)
REMARK    1  A    between atoms: C_6  and  C_7 
REMARK    2  A    between atoms: C_7  and  N_8 
REMARK       I    between atoms: N_8  and  C_9 
REMARK    3  A    between atoms: C_9  and  C_10 
REMARK    4  A    between atoms: C_14  and  C_15 
ROOT
HETATM    1  N   UNL     1      -4.565   4.621 -31.575  1.00  0.00    -0.349 N 
HETATM    2  C   UNL     1      -4.941   3.501 -30.888  1.00  0.00     0.270 C 
HETATM    3  O   UNL     1      -5.411   3.559 -29.754  1.00  0.00    -0.266 OA
HETATM    4  H   UNL     1      -4.146   4.571 -32.496  1.00  0.00     0.163 HD
ENDROOT
BRANCH   2   5
HETATM    5  C   UNL     1      -4.745   2.254 -31.572  1.00  0.00     0.120 A 
HETATM    6  N   UNL     1      -3.499   1.720 -31.736  1.00  0.00    -0.272 N 
HETATM    7  H   UNL     1      -2.621   2.116 -31.413  1.00  0.00     0.189 HD
HETATM    8  N   UNL     1      -3.479   0.559 -32.405  1.00  0.00    -0.174 NA
HETATM    9  C   UNL     1      -4.768   0.301 -32.677  1.00  0.00     0.089 A 
HETATM   10  C   UNL     1      -5.595   1.348 -32.175  1.00  0.00     0.071 A 
BRANCH   9  11
HETATM   11  C   UNL     1      -5.169  -0.911 -33.401  1.00  0.00    -0.006 A 
HETATM   12  C   UNL     1      -6.503  -1.125 -33.781  1.00  0.00     0.015 A 
HETATM   13  C   UNL     1      -6.871  -2.287 -34.469  1.00  0.00     0.024 A 
HETATM   14  C   UNL     1      -5.908  -3.244 -34.781  1.00  0.00     0.034 A 
HETATM   15 CL   UNL     1      -6.364  -4.672 -35.625  1.00  0.00    -0.084 Cl
HETATM   16  C   UNL     1      -4.581  -3.052 -34.412  1.00  0.00     0.024 A 
HETATM   17  C   UNL     1      -4.215  -1.891 -33.722  1.00  0.00     0.015 A 
ENDBRANCH   9  11
ENDBRANCH   2   5
BRANCH   1  18
HETATM   18  C   UNL     1      -4.691   5.933 -30.994  1.00  0.00     0.201 C 
BRANCH  18  19
HETATM   19  C   UNL     1      -3.378   6.330 -30.417  1.00  0.00     0.123 A 
HETATM   20  N   UNL     1      -2.214   6.381 -31.039  1.00  0.00    -0.232 NA
HETATM   21  C   UNL     1      -1.307   6.790 -30.091  1.00  0.00     0.085 A 
HETATM   22  C   UNL     1      -1.930   6.996 -28.866  1.00  0.00     0.062 A 
HETATM   23  C   UNL     1       0.074   7.007 -30.202  1.00  0.00     0.034 A 
HETATM   24  C   UNL     1      -1.250   7.415 -27.719  1.00  0.00     0.032 A 
HETATM   25  N   UNL     1      -3.247   6.699 -29.100  1.00  0.00    -0.341 N 
HETATM   26  C   UNL     1       0.128   7.626 -27.848  1.00  0.00     0.002 A 
HETATM   27  C   UNL     1       0.781   7.426 -29.067  1.00  0.00     0.002 A 
HETATM   28  H   UNL     1      -3.991   6.740 -28.418  1.00  0.00     0.167 HD
ENDBRANCH  18  19
ENDBRANCH   1  18
TORSDOF 4
ENDMDL
MODEL 2
REMARK VINA RESULT:      -8.5      1.426      1.952
REMARK  4 active torsions:
REMARK  status: ('A' for Active; 'I' for Inactive)
REMARK    1  A    between atoms: C_6  and  C_7 
REMARK    2  A    between atoms: C_7  and  N_8 
REMARK       I    between atoms: N_8  and  C_9 
REMARK    3  A    between atoms: C_9  and  C_10 
REMARK    4  A    between atoms: C_14  and  C_15 
ROOT
HETATM    1  N   UNL     1      -3.916   5.362 -30.313  1.00  0.00    -0.349 N 
HETATM    2  C   UNL     1      -3.739   4.963 -31.608  1.00  0.00     0.270 C 
HETATM    3  O   UNL     1      -3.520   5.765 -32.514  1.00  0.00    -0.266 OA
HETATM    4  H   UNL     1      -4.130   4.704 -29.573  1.00  0.00     0.163 HD
ENDROOT
BRANCH   2   5
HETATM    5  C   UNL     1      -3.831   3.549 -31.844  1.00  0.00     0.120 A 
HETATM    6  N   UNL     1      -3.038   2.662 -31.174  1.00  0.00    -0.272 N 
HETATM    7  H   UNL     1      -2.336   2.885 -30.474  1.00  0.00     0.189 HD
HETATM    8  N   UNL     1      -3.233   1.381 -31.513  1.00  0.00    -0.174 NA
HETATM    9  C   UNL     1      -4.212   1.417 -32.431  1.00  0.00     0.089 A 
HETATM   10  C   UNL     1      -4.610   2.764 -32.671  1.00  0.00     0.071 A 
BRANCH   9  11
HETATM   11  C   UNL     1      -4.728   0.189 -33.047  1.00  0.00    -0.006 A 
HETATM   12  C   UNL     1      -3.974  -0.994 -33.053  1.00  0.00     0.015 A 
HETATM   13  C   UNL     1      -4.477  -2.158 -33.647  1.00  0.00     0.024 A 
HETATM   14  C   UNL     1      -5.738  -2.146 -34.240  1.00  0.00     0.034 A 
HETATM   15 CL   UNL     1      -6.353  -3.577 -34.969  1.00  0.00    -0.084 Cl
HETATM   16  C   UNL     1      -6.500  -0.983 -34.245  1.00  0.00     0.024 A 
HETATM   17  C   UNL     1      -5.995   0.180 -33.654  1.00  0.00     0.015 A 
ENDBRANCH   9  11
ENDBRANCH   2   5
BRANCH   1  18
HETATM   18  C   UNL     1      -3.868   6.754 -29.946  1.00  0.00     0.201 C 
BRANCH  18  19
HETATM   19  C   UNL     1      -2.588   7.017 -29.233  1.00  0.00     0.123 A 
HETATM   20  N   UNL     1      -1.474   7.509 -29.745  1.00  0.00    -0.232 NA
HETATM   21  C   UNL     1      -0.579   7.555 -28.703  1.00  0.00     0.085 A 
HETATM   22  C   UNL     1      -1.158   7.084 -27.531  1.00  0.00     0.062 A 
HETATM   23  C   UNL     1       0.755   7.987 -28.682  1.00  0.00     0.034 A 
HETATM   24  C   UNL     1      -0.478   7.016 -26.312  1.00  0.00     0.032 A 
HETATM   25  N   UNL     1      -2.436   6.749 -27.894  1.00  0.00    -0.341 N 
HETATM   26  C   UNL     1       0.852   7.451 -26.310  1.00  0.00     0.002 A 
HETATM   27  C   UNL     1       1.461   7.928 -27.474  1.00  0.00     0.002 A 
HETATM   28  H   UNL     1      -3.143   6.368 -27.280  1.00  0.00     0.167 HD
ENDBRANCH  18  19
ENDBRANCH   1  18
TORSDOF 4
ENDMDL
MODEL 3
REMARK VINA RESULT:      -8.5      3.828      9.752
REMARK  4 active torsions:
REMARK  status: ('A' for Active; 'I' for Inactive)
REMARK    1  A    between atoms: C_6  and  C_7 
REMARK    2  A    between atoms: C_7  and  N_8 
REMARK       I    between atoms: N_8  and  C_9 
REMARK    3  A    between atoms: C_9  and  C_10 
REMARK    4  A    between atoms: C_14  and  C_15 
ROOT
HETATM    1  N   UNL     1      -5.268   1.998 -33.148  1.00  0.00    -0.349 N 
HETATM    2  C   UNL     1      -5.350   3.240 -32.585  1.00  0.00     0.270 C 
HETATM    3  O   UNL     1      -6.425   3.815 -32.426  1.00  0.00    -0.266 OA
HETATM    4  H   UNL     1      -4.379   1.540 -33.310  1.00  0.00     0.163 HD
ENDROOT
BRANCH   2   5
HETATM    5  C   UNL     1      -4.101   3.834 -32.198  1.00  0.00     0.120 A 
HETATM    6  N   UNL     1      -2.936   3.526 -32.841  1.00  0.00    -0.272 N 
HETATM    7  H   UNL     1      -2.825   2.884 -33.619  1.00  0.00     0.189 HD
HETATM    8  N   UNL     1      -1.855   4.152 -32.356  1.00  0.00    -0.174 NA
HETATM    9  C   UNL     1      -2.326   4.924 -31.363  1.00  0.00     0.089 A 
HETATM   10  C   UNL     1      -3.734   4.747 -31.229  1.00  0.00     0.071 A 
BRANCH   9  11
HETATM   11  C   UNL     1      -1.436   5.790 -30.581  1.00  0.00    -0.006 A 
HETATM   12  C   UNL     1      -1.844   7.066 -30.163  1.00  0.00     0.015 A 
HETATM   13  C   UNL     1      -0.983   7.882 -29.420  1.00  0.00     0.024 A 
HETATM   14  C   UNL     1       0.292   7.428 -29.089  1.00  0.00     0.034 A 
HETATM   15 CL   UNL     1       1.348   8.433 -28.177  1.00  0.00    -0.084 Cl
HETATM   16  C   UNL     1       0.715   6.166 -29.495  1.00  0.00     0.024 A 
HETATM   17  C   UNL     1      -0.145   5.353 -30.240  1.00  0.00     0.015 A 
ENDBRANCH   9  11
ENDBRANCH   2   5
BRANCH   1  18
HETATM   18  C   UNL     1      -6.446   1.301 -33.598  1.00  0.00     0.201 C 
BRANCH  18  19
HETATM   19  C   UNL     1      -6.102  -0.131 -33.814  1.00  0.00     0.123 A 
HETATM   20  N   UNL     1      -4.927  -0.707 -33.632  1.00  0.00    -0.232 NA
HETATM   21  C   UNL     1      -5.108  -2.026 -33.972  1.00  0.00     0.085 A 
HETATM   22  C   UNL     1      -6.419  -2.262 -34.368  1.00  0.00     0.062 A 
HETATM   23  C   UNL     1      -4.192  -3.089 -33.971  1.00  0.00     0.034 A 
HETATM   24  C   UNL     1      -6.887  -3.515 -34.769  1.00  0.00     0.032 A 
HETATM   25  N   UNL     1      -7.031  -1.041 -34.257  1.00  0.00    -0.341 N 
HETATM   26  C   UNL     1      -5.959  -4.563 -34.762  1.00  0.00     0.002 A 
HETATM   27  C   UNL     1      -4.634  -4.356 -34.371  1.00  0.00     0.002 A 
HETATM   28  H   UNL     1      -8.000  -0.846 -34.468  1.00  0.00     0.167 HD
ENDBRANCH  18  19
ENDBRANCH   1  18
TORSDOF 4
ENDMDL
MODEL 4
REMARK VINA RESULT:      -8.4      3.889      9.540
REMARK  4 active torsions:
REMARK  status: ('A' for Active; 'I' for Inactive)
REMARK    1  A    between atoms: C_6  and  C_7 
REMARK    2  A    between atoms: C_7  and  N_8 
REMARK       I    between atoms: N_8  and  C_9 
REMARK    3  A    between atoms: C_9  and  C_10 
REMARK    4  A    between atoms: C_14  and  C_15 
ROOT
HETATM    1  N   UNL     1      -5.644   2.526 -32.190  1.00  0.00    -0.349 N 
HETATM    2  C   UNL     1      -5.126   3.558 -32.922  1.00  0.00     0.270 C 
HETATM    3  O   UNL     1      -5.680   3.983 -33.933  1.00  0.00    -0.266 OA
HETATM    4  H   UNL     1      -5.168   2.154 -31.377  1.00  0.00     0.163 HD
ENDROOT
BRANCH   2   5
HETATM    5  C   UNL     1      -3.891   4.108 -32.439  1.00  0.00     0.120 A 
HETATM    6  N   UNL     1      -2.697   3.809 -33.031  1.00  0.00    -0.272 N 
HETATM    7  H   UNL     1      -2.554   3.202 -33.833  1.00  0.00     0.189 HD
HETATM    8  N   UNL     1      -1.634   4.390 -32.458  1.00  0.00    -0.174 NA
HETATM    9  C   UNL     1      -2.147   5.123 -31.456  1.00  0.00     0.089 A 
HETATM   10  C   UNL     1      -3.562   4.966 -31.408  1.00  0.00     0.071 A 
BRANCH   9  11
HETATM   11  C   UNL     1      -1.287   5.932 -30.585  1.00  0.00    -0.006 A 
HETATM   12  C   UNL     1      -1.597   7.270 -30.295  1.00  0.00     0.015 A 
HETATM   13  C   UNL     1      -0.766   8.031 -29.465  1.00  0.00     0.024 A 
HETATM   14  C   UNL     1       0.381   7.460 -28.918  1.00  0.00     0.034 A 
HETATM   15 CL   UNL     1       1.401   8.399 -27.899  1.00  0.00    -0.084 Cl
HETATM   16  C   UNL     1       0.706   6.136 -29.194  1.00  0.00     0.024 A 
HETATM   17  C   UNL     1      -0.123   5.378 -30.026  1.00  0.00     0.015 A 
ENDBRANCH   9  11
ENDBRANCH   2   5
BRANCH   1  18
HETATM   18  C   UNL     1      -6.867   1.874 -32.579  1.00  0.00     0.201 C 
BRANCH  18  19
HETATM   19  C   UNL     1      -6.542   0.525 -33.118  1.00  0.00     0.123 A 
HETATM   20  N   UNL     1      -7.380  -0.347 -33.649  1.00  0.00    -0.232 NA
HETATM   21  C   UNL     1      -6.613  -1.437 -33.985  1.00  0.00     0.085 A 
HETATM   22  C   UNL     1      -5.280  -1.226 -33.655  1.00  0.00     0.062 A 
HETATM   23  C   UNL     1      -6.988  -2.652 -34.576  1.00  0.00     0.034 A 
HETATM   24  C   UNL     1      -4.273  -2.168 -33.883  1.00  0.00     0.032 A 
HETATM   25  N   UNL     1      -5.260   0.030 -33.107  1.00  0.00    -0.341 N 
HETATM   26  C   UNL     1      -4.666  -3.375 -34.474  1.00  0.00     0.002 A 
HETATM   27  C   UNL     1      -5.999  -3.615 -34.815  1.00  0.00     0.002 A 
HETATM   28  H   UNL     1      -4.443   0.506 -32.752  1.00  0.00     0.167 HD
ENDBRANCH  18  19
ENDBRANCH   1  18
TORSDOF 4
ENDMDL
MODEL 5
REMARK VINA RESULT:      -8.2      1.757      1.934
REMARK  4 active torsions:
REMARK  status: ('A' for Active; 'I' for Inactive)
REMARK    1  A    between atoms: C_6  and  C_7 
REMARK    2  A    between atoms: C_7  and  N_8 
REMARK       I    between atoms: N_8  and  C_9 
REMARK    3  A    between atoms: C_9  and  C_10 
REMARK    4  A    between atoms: C_14  and  C_15 
ROOT
HETATM    1  N   UNL     1      -5.678   4.496 -31.327  1.00  0.00    -0.349 N 
HETATM    2  C   UNL     1      -6.137   4.095 -32.551  1.00  0.00     0.270 C 
HETATM    3  O   UNL     1      -6.364   4.894 -33.456  1.00  0.00    -0.266 OA
HETATM    4  H   UNL     1      -5.524   3.840 -30.571  1.00  0.00     0.163 HD
ENDROOT
BRANCH   2   5
HETATM    5  C   UNL     1      -6.343   2.682 -32.708  1.00  0.00     0.120 A 
HETATM    6  N   UNL     1      -7.403   2.048 -32.125  1.00  0.00    -0.272 N 
HETATM    7  H   UNL     1      -8.123   2.475 -31.549  1.00  0.00     0.189 HD
HETATM    8  N   UNL     1      -7.451   0.729 -32.354  1.00  0.00    -0.174 NA
HETATM    9  C   UNL     1      -6.392   0.481 -33.140  1.00  0.00     0.089 A 
HETATM   10  C   UNL     1      -5.666   1.684 -33.380  1.00  0.00     0.071 A 
BRANCH   9  11
HETATM   11  C   UNL     1      -6.102  -0.873 -33.628  1.00  0.00    -0.006 A 
HETATM   12  C   UNL     1      -7.120  -1.699 -34.129  1.00  0.00     0.015 A 
HETATM   13  C   UNL     1      -6.830  -2.989 -34.588  1.00  0.00     0.024 A 
HETATM   14  C   UNL     1      -5.520  -3.462 -34.549  1.00  0.00     0.034 A 
HETATM   15 CL   UNL     1      -5.167  -5.049 -35.113  1.00  0.00    -0.084 Cl
HETATM   16  C   UNL     1      -4.498  -2.659 -34.055  1.00  0.00     0.024 A 
HETATM   17  C   UNL     1      -4.790  -1.371 -33.594  1.00  0.00     0.015 A 
ENDBRANCH   9  11
ENDBRANCH   2   5
BRANCH   1  18
HETATM   18  C   UNL     1      -5.448   5.887 -31.034  1.00  0.00     0.201 C 
BRANCH  18  19
HETATM   19  C   UNL     1      -3.980   6.133 -31.000  1.00  0.00     0.123 A 
HETATM   20  N   UNL     1      -3.146   6.132 -32.025  1.00  0.00    -0.232 NA
HETATM   21  C   UNL     1      -1.908   6.397 -31.491  1.00  0.00     0.085 A 
HETATM   22  C   UNL     1      -1.986   6.566 -30.114  1.00  0.00     0.062 A 
HETATM   23  C   UNL     1      -0.661   6.507 -32.124  1.00  0.00     0.034 A 
HETATM   24  C   UNL     1      -0.879   6.845 -29.310  1.00  0.00     0.032 A 
HETATM   25  N   UNL     1      -3.316   6.394 -29.827  1.00  0.00    -0.341 N 
HETATM   26  C   UNL     1       0.357   6.951 -29.958  1.00  0.00     0.002 A 
HETATM   27  C   UNL     1       0.467   6.785 -31.341  1.00  0.00     0.002 A 
HETATM   28  H   UNL     1      -3.732   6.448 -28.908  1.00  0.00     0.167 HD
ENDBRANCH  18  19
ENDBRANCH   1  18
TORSDOF 4
ENDMDL
MODEL 6
REMARK VINA RESULT:      -8.0      7.027      8.420
REMARK  4 active torsions:
REMARK  status: ('A' for Active; 'I' for Inactive)
REMARK    1  A    between atoms: C_6  and  C_7 
REMARK    2  A    between atoms: C_7  and  N_8 
REMARK       I    between atoms: N_8  and  C_9 
REMARK    3  A    between atoms: C_9  and  C_10 
REMARK    4  A    between atoms: C_14  and  C_15 
ROOT
HETATM    1  N   UNL     1     -10.342   2.704 -33.055  1.00  0.00    -0.349 N 
HETATM    2  C   UNL     1     -10.539   1.430 -33.508  1.00  0.00     0.270 C 
HETATM    3  O   UNL     1     -11.656   0.919 -33.553  1.00  0.00    -0.266 OA
HETATM    4  H   UNL     1      -9.417   3.112 -32.987  1.00  0.00     0.163 HD
ENDROOT
BRANCH   2   5
HETATM    5  C   UNL     1      -9.358   0.724 -33.921  1.00  0.00     0.120 A 
HETATM    6  N   UNL     1      -8.647   1.109 -35.021  1.00  0.00    -0.272 N 
HETATM    7  H   UNL     1      -8.855   1.890 -35.636  1.00  0.00     0.189 HD
HETATM    8  N   UNL     1      -7.578   0.344 -35.284  1.00  0.00    -0.174 NA
HETATM    9  C   UNL     1      -7.568  -0.574 -34.304  1.00  0.00     0.089 A 
HETATM   10  C   UNL     1      -8.676  -0.372 -33.431  1.00  0.00     0.071 A 
BRANCH   9  11
HETATM   11  C   UNL     1      -6.525  -1.604 -34.232  1.00  0.00    -0.006 A 
HETATM   12  C   UNL     1      -6.736  -2.891 -34.748  1.00  0.00     0.015 A 
HETATM   13  C   UNL     1      -5.733  -3.865 -34.670  1.00  0.00     0.024 A 
HETATM   14  C   UNL     1      -4.511  -3.557 -34.076  1.00  0.00     0.034 A 
HETATM   15 CL   UNL     1      -3.280  -4.755 -33.981  1.00  0.00    -0.084 Cl
HETATM   16  C   UNL     1      -4.283  -2.286 -33.558  1.00  0.00     0.024 A 
HETATM   17  C   UNL     1      -5.287  -1.316 -33.634  1.00  0.00     0.015 A 
ENDBRANCH   9  11
ENDBRANCH   2   5
BRANCH   1  18
HETATM   18  C   UNL     1     -11.440   3.512 -32.594  1.00  0.00     0.201 C 
BRANCH  18  19
HETATM   19  C   UNL     1     -11.689   4.595 -33.584  1.00  0.00     0.123 A 
HETATM   20  N   UNL     1     -10.819   5.483 -34.033  1.00  0.00    -0.232 NA
HETATM   21  C   UNL     1     -11.519   6.271 -34.915  1.00  0.00     0.085 A 
HETATM   22  C   UNL     1     -12.841   5.855 -35.010  1.00  0.00     0.062 A 
HETATM   23  C   UNL     1     -11.090   7.369 -35.675  1.00  0.00     0.034 A 
HETATM   24  C   UNL     1     -13.785   6.476 -35.833  1.00  0.00     0.032 A 
HETATM   25  N   UNL     1     -12.923   4.787 -34.155  1.00  0.00    -0.341 N 
HETATM   26  C   UNL     1     -13.339   7.569 -36.584  1.00  0.00     0.002 A 
HETATM   27  C   UNL     1     -12.016   8.010 -36.508  1.00  0.00     0.002 A 
HETATM   28  H   UNL     1     -13.753   4.239 -33.975  1.00  0.00     0.167 HD
ENDBRANCH  18  19
ENDBRANCH   1  18
TORSDOF 4
ENDMDL
MODEL 7
REMARK VINA RESULT:      -8.0      4.016      9.577
REMARK  4 active torsions:
REMARK  status: ('A' for Active; 'I' for Inactive)
REMARK    1  A    between atoms: C_6  and  C_7 
REMARK    2  A    between atoms: C_7  and  N_8 
REMARK       I    between atoms: N_8  and  C_9 
REMARK    3  A    between atoms: C_9  and  C_10 
REMARK    4  A    between atoms: C_14  and  C_15 
ROOT
HETATM    1  N   UNL     1      -4.955   4.070 -32.701  1.00  0.00    -0.349 N 
HETATM    2  C   UNL     1      -4.208   5.059 -33.277  1.00  0.00     0.270 C 
HETATM    3  O   UNL     1      -4.523   5.575 -34.347  1.00  0.00    -0.266 OA
HETATM    4  H   UNL     1      -4.677   3.622 -31.836  1.00  0.00     0.163 HD
ENDROOT
BRANCH   2   5
HETATM    5  C   UNL     1      -3.028   5.449 -32.557  1.00  0.00     0.120 A 
HETATM    6  N   UNL     1      -1.822   5.581 -33.184  1.00  0.00    -0.272 N 
HETATM    7  H   UNL     1      -1.631   5.429 -34.171  1.00  0.00     0.189 HD
HETATM    8  N   UNL     1      -0.815   5.939 -32.376  1.00  0.00    -0.174 NA
HETATM    9  C   UNL     1      -1.381   6.073 -31.166  1.00  0.00     0.089 A 
HETATM   10  C   UNL     1      -2.771   5.766 -31.238  1.00  0.00     0.071 A 
BRANCH   9  11
HETATM   11  C   UNL     1      -0.594   6.475 -29.994  1.00  0.00    -0.006 A 
HETATM   12  C   UNL     1       0.187   5.547 -29.288  1.00  0.00     0.015 A 
HETATM   13  C   UNL     1       0.930   5.944 -28.171  1.00  0.00     0.024 A 
HETATM   14  C   UNL     1       0.898   7.273 -27.751  1.00  0.00     0.034 A 
HETATM   15 CL   UNL     1       1.812   7.758 -26.377  1.00  0.00    -0.084 Cl
HETATM   16  C   UNL     1       0.129   8.207 -28.437  1.00  0.00     0.024 A 
HETATM   17  C   UNL     1      -0.615   7.808 -29.552  1.00  0.00     0.015 A 
ENDBRANCH   9  11
ENDBRANCH   2   5
BRANCH   1  18
HETATM   18  C   UNL     1      -6.152   3.574 -33.330  1.00  0.00     0.201 C 
BRANCH  18  19
HETATM   19  C   UNL     1      -6.012   2.107 -33.536  1.00  0.00     0.123 A 
HETATM   20  N   UNL     1      -5.104   1.308 -33.004  1.00  0.00    -0.232 NA
HETATM   21  C   UNL     1      -5.379   0.056 -33.500  1.00  0.00     0.085 A 
HETATM   22  C   UNL     1      -6.478   0.090 -34.350  1.00  0.00     0.062 A 
HETATM   23  C   UNL     1      -4.729  -1.165 -33.271  1.00  0.00     0.034 A 
HETATM   24  C   UNL     1      -6.983  -1.040 -34.998  1.00  0.00     0.032 A 
HETATM   25  N   UNL     1      -6.863   1.405 -34.355  1.00  0.00    -0.341 N 
HETATM   26  C   UNL     1      -6.321  -2.249 -34.758  1.00  0.00     0.002 A 
HETATM   27  C   UNL     1      -5.213  -2.314 -33.910  1.00  0.00     0.002 A 
HETATM   28  H   UNL     1      -7.639   1.791 -34.875  1.00  0.00     0.167 HD
ENDBRANCH  18  19
ENDBRANCH   1  18
TORSDOF 4
ENDMDL
MODEL 8
REMARK VINA RESULT:      -7.9      3.431      3.919
REMARK  4 active torsions:
REMARK  status: ('A' for Active; 'I' for Inactive)
REMARK    1  A    between atoms: C_6  and  C_7 
REMARK    2  A    between atoms: C_7  and  N_8 
REMARK       I    between atoms: N_8  and  C_9 
REMARK    3  A    between atoms: C_9  and  C_10 
REMARK    4  A    between atoms: C_14  and  C_15 
ROOT
HETATM    1  N   UNL     1      -2.713   4.295 -33.317  1.00  0.00    -0.349 N 
HETATM    2  C   UNL     1      -3.951   4.661 -33.766  1.00  0.00     0.270 C 
HETATM    3  O   UNL     1      -4.144   5.720 -34.358  1.00  0.00    -0.266 OA
HETATM    4  H   UNL     1      -2.561   3.438 -32.800  1.00  0.00     0.163 HD
ENDROOT
BRANCH   2   5
HETATM    5  C   UNL     1      -5.013   3.731 -33.496  1.00  0.00     0.120 A 
HETATM    6  N   UNL     1      -4.820   2.644 -32.693  1.00  0.00    -0.272 N 
HETATM    7  H   UNL     1      -3.959   2.383 -32.222  1.00  0.00     0.189 HD
HETATM    8  N   UNL     1      -5.901   1.865 -32.548  1.00  0.00    -0.174 NA
HETATM    9  C   UNL     1      -6.857   2.474 -33.267  1.00  0.00     0.089 A 
HETATM   10  C   UNL     1      -6.335   3.648 -33.884  1.00  0.00     0.071 A 
BRANCH   9  11
HETATM   11  C   UNL     1      -8.216   1.926 -33.350  1.00  0.00    -0.006 A 
HETATM   12  C   UNL     1      -9.213   2.563 -34.105  1.00  0.00     0.015 A 
HETATM   13  C   UNL     1     -10.506   2.031 -34.172  1.00  0.00     0.024 A 
HETATM   14  C   UNL     1     -10.812   0.858 -33.484  1.00  0.00     0.034 A 
HETATM   15 CL   UNL     1     -12.402   0.207 -33.568  1.00  0.00    -0.084 Cl
HETATM   16  C   UNL     1      -9.838   0.213 -32.730  1.00  0.00     0.024 A 
HETATM   17  C   UNL     1      -8.547   0.748 -32.661  1.00  0.00     0.015 A 
ENDBRANCH   9  11
ENDBRANCH   2   5
BRANCH   1  18
HETATM   18  C   UNL     1      -1.568   5.147 -33.507  1.00  0.00     0.201 C 
BRANCH  18  19
HETATM   19  C   UNL     1      -1.045   5.552 -32.174  1.00  0.00     0.123 A 
HETATM   20  N   UNL     1      -0.279   4.842 -31.366  1.00  0.00    -0.232 NA
HETATM   21  C   UNL     1      -0.075   5.634 -30.262  1.00  0.00     0.085 A 
HETATM   22  C   UNL     1      -0.727   6.853 -30.398  1.00  0.00     0.062 A 
HETATM   23  C   UNL     1       0.659   5.377 -29.094  1.00  0.00     0.034 A 
HETATM   24  C   UNL     1      -0.693   7.856 -29.425  1.00  0.00     0.032 A 
HETATM   25  N   UNL     1      -1.336   6.777 -31.623  1.00  0.00    -0.341 N 
HETATM   26  C   UNL     1       0.043   7.581 -28.267  1.00  0.00     0.002 A 
HETATM   27  C   UNL     1       0.708   6.364 -28.101  1.00  0.00     0.002 A 
HETATM   28  H   UNL     1      -1.903   7.499 -32.045  1.00  0.00     0.167 HD
ENDBRANCH  18  19
ENDBRANCH   1  18
TORSDOF 4
ENDMDL
MODEL 9
REMARK VINA RESULT:      -7.5     17.479     19.229
REMARK  4 active torsions:
REMARK  status: ('A' for Active; 'I' for Inactive)
REMARK    1  A    between atoms: C_6  and  C_7 
REMARK    2  A    between atoms: C_7  and  N_8 
REMARK       I    between atoms: N_8  and  C_9 
REMARK    3  A    between atoms: C_9  and  C_10 
REMARK    4  A    between atoms: C_14  and  C_15 
ROOT
HETATM    1  N   UNL     1      -4.899 -14.032 -33.306  1.00  0.00    -0.349 N 
HETATM    2  C   UNL     1      -5.658 -14.883 -32.553  1.00  0.00     0.270 C 
HETATM    3  O   UNL     1      -6.797 -15.206 -32.883  1.00  0.00    -0.266 OA
HETATM    4  H   UNL     1      -3.974 -13.738 -33.016  1.00  0.00     0.163 HD
ENDROOT
BRANCH   2   5
HETATM    5  C   UNL     1      -5.044 -15.368 -31.349  1.00  0.00     0.120 A 
HETATM    6  N   UNL     1      -5.783 -15.652 -30.236  1.00  0.00    -0.272 N 
HETATM    7  H   UNL     1      -6.790 -15.560 -30.138  1.00  0.00     0.189 HD
HETATM    8  N   UNL     1      -5.065 -16.083 -29.191  1.00  0.00    -0.174 NA
HETATM    9  C   UNL     1      -3.798 -16.107 -29.635  1.00  0.00     0.089 A 
HETATM   10  C   UNL     1      -3.743 -15.658 -30.987  1.00  0.00     0.071 A 
BRANCH   9  11
HETATM   11  C   UNL     1      -2.694 -16.544 -28.773  1.00  0.00    -0.006 A 
HETATM   12  C   UNL     1      -2.786 -17.720 -28.013  1.00  0.00     0.015 A 
HETATM   13  C   UNL     1      -1.726 -18.124 -27.192  1.00  0.00     0.024 A 
HETATM   14  C   UNL     1      -0.567 -17.354 -27.125  1.00  0.00     0.034 A 
HETATM   15 CL   UNL     1       0.733 -17.852 -26.115  1.00  0.00    -0.084 Cl
HETATM   16  C   UNL     1      -0.457 -16.185 -27.871  1.00  0.00     0.024 A 
HETATM   17  C   UNL     1      -1.517 -15.781 -28.688  1.00  0.00     0.015 A 
ENDBRANCH   9  11
ENDBRANCH   2   5
BRANCH   1  18
HETATM   18  C   UNL     1      -5.405 -13.459 -34.527  1.00  0.00     0.201 C 
BRANCH  18  19
HETATM   19  C   UNL     1      -4.302 -13.405 -35.525  1.00  0.00     0.123 A 
HETATM   20  N   UNL     1      -4.171 -12.554 -36.526  1.00  0.00    -0.232 NA
HETATM   21  C   UNL     1      -3.007 -12.911 -37.164  1.00  0.00     0.085 A 
HETATM   22  C   UNL     1      -2.413 -14.001 -36.538  1.00  0.00     0.062 A 
HETATM   23  C   UNL     1      -2.391 -12.350 -38.292  1.00  0.00     0.034 A 
HETATM   24  C   UNL     1      -1.218 -14.579 -36.972  1.00  0.00     0.032 A 
HETATM   25  N   UNL     1      -3.255 -14.295 -35.497  1.00  0.00    -0.341 N 
HETATM   26  C   UNL     1      -0.618 -14.006 -38.100  1.00  0.00     0.002 A 
HETATM   27  C   UNL     1      -1.192 -12.912 -38.751  1.00  0.00     0.002 A 
HETATM   28  H   UNL     1      -3.128 -15.041 -34.828  1.00  0.00     0.167 HD
ENDBRANCH  18  19
ENDBRANCH   1  18
TORSDOF 4
ENDMDL
MODEL 10
REMARK VINA RESULT:      -7.5      1.569      1.930
REMARK  4 active torsions:
REMARK  status: ('A' for Active; 'I' for Inactive)
REMARK    1  A    between atoms: C_6  and  C_7 
REMARK    2  A    between atoms: C_7  and  N_8 
REMARK       I    between atoms: N_8  and  C_9 
REMARK    3  A    between atoms: C_9  and  C_10 
REMARK    4  A    between atoms: C_14  and  C_15 
ROOT
HETATM    1  N   UNL     1      -4.112   5.712 -31.805  1.00  0.00    -0.349 N 
HETATM    2  C   UNL     1      -5.138   4.938 -31.341  1.00  0.00     0.270 C 
HETATM    3  O   UNL     1      -5.955   5.358 -30.526  1.00  0.00    -0.266 OA
HETATM    4  H   UNL     1      -3.419   5.354 -32.451  1.00  0.00     0.163 HD
ENDROOT
BRANCH   2   5
HETATM    5  C   UNL     1      -5.195   3.600 -31.861  1.00  0.00     0.120 A 
HETATM    6  N   UNL     1      -6.140   3.231 -32.776  1.00  0.00    -0.272 N 
HETATM    7  H   UNL     1      -6.865   3.823 -33.171  1.00  0.00     0.189 HD
HETATM    8  N   UNL     1      -6.071   1.948 -33.155  1.00  0.00    -0.174 NA
HETATM    9  C   UNL     1      -5.022   1.450 -32.480  1.00  0.00     0.089 A 
HETATM   10  C   UNL     1      -4.449   2.457 -31.650  1.00  0.00     0.071 A 
BRANCH   9  11
HETATM   11  C   UNL     1      -4.607   0.052 -32.637  1.00  0.00    -0.006 A 
HETATM   12  C   UNL     1      -5.112  -0.746 -33.675  1.00  0.00     0.015 A 
HETATM   13  C   UNL     1      -4.710  -2.079 -33.811  1.00  0.00     0.024 A 
HETATM   14  C   UNL     1      -3.798  -2.625 -32.911  1.00  0.00     0.034 A 
HETATM   15 CL   UNL     1      -3.306  -4.265 -33.080  1.00  0.00    -0.084 Cl
HETATM   16  C   UNL     1      -3.286  -1.852 -31.874  1.00  0.00     0.024 A 
HETATM   17  C   UNL     1      -3.692  -0.521 -31.738  1.00  0.00     0.015 A 
ENDBRANCH   9  11
ENDBRANCH   2   5
BRANCH   1  18
HETATM   18  C   UNL     1      -3.931   7.066 -31.348  1.00  0.00     0.201 C 
BRANCH  18  19
HETATM   19  C   UNL     1      -2.783   7.103 -30.401  1.00  0.00     0.123 A 
HETATM   20  N   UNL     1      -1.511   7.304 -30.694  1.00  0.00    -0.232 NA
HETATM   21  C   UNL     1      -0.842   7.237 -29.495  1.00  0.00     0.085 A 
HETATM   22  C   UNL     1      -1.723   6.993 -28.449  1.00  0.00     0.062 A 
HETATM   23  C   UNL     1       0.526   7.373 -29.220  1.00  0.00     0.034 A 
HETATM   24  C   UNL     1      -1.320   6.874 -27.116  1.00  0.00     0.032 A 
HETATM   25  N   UNL     1      -2.952   6.913 -29.051  1.00  0.00    -0.341 N 
HETATM   26  C   UNL     1       0.050   7.013 -26.861  1.00  0.00     0.002 A 
HETATM   27  C   UNL     1       0.959   7.258 -27.893  1.00  0.00     0.002 A 
HETATM   28  H   UNL     1      -3.829   6.740 -28.580  1.00  0.00     0.167 HD
ENDBRANCH  18  19
ENDBRANCH   1  18
TORSDOF 4
ENDMDL
