MODEL 1
REMARK VINA RESULT:      -9.2      0.000      0.000
REMARK  5 active torsions:
REMARK  status: ('A' for Active; 'I' for Inactive)
REMARK    1  A    between atoms: C_7  and  C_8 
REMARK    2  A    between atoms: C_8  and  O_9 
REMARK    3  A    between atoms: N_12  and  C_13 
REMARK    4  A    between atoms: C_13  and  C_14 
REMARK    5  A    between atoms: C_14  and  C_15 
ROOT
HETATM    1  C   UNL     1      -6.503   1.890 -30.606  1.00  0.00     0.199 A 
HETATM    2  C   UNL     1      -6.136   0.437 -31.023  1.00  0.00     0.269 A 
HETATM    3  O   UNL     1      -6.723  -0.581 -30.677  1.00  0.00    -0.269 OA
HETATM    4  N   UNL     1      -4.932   0.498 -31.752  1.00  0.00    -0.314 N 
HETATM    5  C   UNL     1      -4.476   1.825 -31.843  1.00  0.00     0.047 A 
HETATM    6  C   UNL     1      -5.372   2.688 -31.200  1.00  0.00     0.017 A 
HETATM    7  C   UNL     1      -3.319   2.305 -32.434  1.00  0.00     0.030 A 
HETATM    8  C   UNL     1      -3.063   3.679 -32.369  1.00  0.00     0.002 A 
HETATM    9  C   UNL     1      -3.952   4.544 -31.715  1.00  0.00     0.001 A 
HETATM   10  C   UNL     1      -5.114   4.051 -31.121  1.00  0.00     0.013 A 
ENDROOT
BRANCH   1  11
HETATM   11  C   UNL     1      -7.795   2.429 -31.174  1.00  0.00     0.025 A 
HETATM   12  C   UNL     1      -8.512   3.528 -30.693  1.00  0.00     0.016 A 
HETATM   13  C   UNL     1      -8.251   4.454 -29.557  1.00  0.00     0.069 C 
HETATM   14  N   UNL     1      -9.618   3.699 -31.484  1.00  0.00    -0.359 N 
HETATM   15  H   UNL     1     -10.313   4.422 -31.363  1.00  0.00     0.166 HD
HETATM   16  C   UNL     1      -9.643   2.770 -32.491  1.00  0.00     0.043 A 
HETATM   17  C   UNL     1      -8.522   1.954 -32.331  1.00  0.00     0.003 A 
HETATM   18  C   UNL     1     -10.572   2.606 -33.525  1.00  0.00     0.030 A 
HETATM   19  C   UNL     1      -8.331   0.916 -33.271  1.00  0.00     0.014 A 
HETATM   20  C   UNL     1      -9.251   0.738 -34.313  1.00  0.00     0.001 A 
HETATM   21  C   UNL     1     -10.356   1.573 -34.438  1.00  0.00     0.002 A 
ENDBRANCH   1  11
BRANCH   1  22
HETATM   22  O   UNL     1      -6.443   1.963 -29.181  1.00  0.00    -0.371 OA
HETATM   23  H   UNL     1      -6.126   2.867 -29.004  1.00  0.00     0.212 HD
ENDBRANCH   1  22
BRANCH   4  24
HETATM   24  C   UNL     1      -4.108  -0.670 -31.999  1.00  0.00     0.137 C 
BRANCH  24  25
HETATM   25  C   UNL     1      -3.897  -0.988 -33.482  1.00  0.00     0.058 C 
BRANCH  25  26
HETATM   26  C   UNL     1      -4.803  -2.121 -33.907  1.00  0.00    -0.057 A 
HETATM   27  C   UNL     1      -4.277  -3.407 -34.100  1.00  0.00     0.007 A 
HETATM   28  C   UNL     1      -5.091  -4.443 -34.564  1.00  0.00     0.001 A 
HETATM   29  C   UNL     1      -6.437  -4.203 -34.834  1.00  0.00     0.000 A 
HETATM   30  C   UNL     1      -6.971  -2.931 -34.639  1.00  0.00     0.001 A 
HETATM   31  C   UNL     1      -6.157  -1.893 -34.179  1.00  0.00     0.007 A 
ENDBRANCH  25  26
ENDBRANCH  24  25
ENDBRANCH   4  24
TORSDOF 5
ENDMDL
MODEL 2
REMARK VINA RESULT:      -9.1      2.318      6.865
REMARK  5 active torsions:
REMARK  status: ('A' for Active; 'I' for Inactive)
REMARK    1  A    between atoms: C_7  and  C_8 
REMARK    2  A    between atoms: C_8  and  O_9 
REMARK    3  A    between atoms: N_12  and  C_13 
REMARK    4  A    between atoms: C_13  and  C_14 
REMARK    5  A    between atoms: C_14  and  C_15 
ROOT
HETATM    1  C   UNL     1      -5.418   0.696 -32.101  1.00  0.00     0.199 A 
HETATM    2  C   UNL     1      -4.716   1.991 -32.599  1.00  0.00     0.269 A 
HETATM    3  O   UNL     1      -3.508   2.156 -32.717  1.00  0.00    -0.269 OA
HETATM    4  N   UNL     1      -5.711   2.978 -32.755  1.00  0.00    -0.314 N 
HETATM    5  C   UNL     1      -6.972   2.466 -32.403  1.00  0.00     0.047 A 
HETATM    6  C   UNL     1      -6.860   1.122 -32.027  1.00  0.00     0.017 A 
HETATM    7  C   UNL     1      -8.194   3.118 -32.376  1.00  0.00     0.030 A 
HETATM    8  C   UNL     1      -9.318   2.399 -31.957  1.00  0.00     0.002 A 
HETATM    9  C   UNL     1      -9.207   1.056 -31.567  1.00  0.00     0.001 A 
HETATM   10  C   UNL     1      -7.972   0.408 -31.597  1.00  0.00     0.013 A 
ENDROOT
BRANCH   1  11
HETATM   11  C   UNL     1      -5.336  -0.493 -33.030  1.00  0.00     0.025 A 
HETATM   12  C   UNL     1      -5.977  -0.619 -34.266  1.00  0.00     0.016 A 
HETATM   13  C   UNL     1      -6.874   0.309 -35.009  1.00  0.00     0.069 C 
HETATM   14  N   UNL     1      -5.643  -1.835 -34.801  1.00  0.00    -0.359 N 
HETATM   15  H   UNL     1      -5.966  -2.187 -35.691  1.00  0.00     0.166 HD
HETATM   16  C   UNL     1      -4.778  -2.507 -33.977  1.00  0.00     0.043 A 
HETATM   17  C   UNL     1      -4.564  -1.704 -32.856  1.00  0.00     0.003 A 
HETATM   18  C   UNL     1      -4.175  -3.759 -34.154  1.00  0.00     0.030 A 
HETATM   19  C   UNL     1      -3.689  -2.194 -31.861  1.00  0.00     0.014 A 
HETATM   20  C   UNL     1      -3.075  -3.444 -32.021  1.00  0.00     0.001 A 
HETATM   21  C   UNL     1      -3.316  -4.214 -33.153  1.00  0.00     0.002 A 
ENDBRANCH   1  11
BRANCH   1  22
HETATM   22  O   UNL     1      -4.933   0.416 -30.787  1.00  0.00    -0.371 OA
HETATM   23  H   UNL     1      -4.869   1.293 -30.367  1.00  0.00     0.212 HD
ENDBRANCH   1  22
BRANCH   4  24
HETATM   24  C   UNL     1      -5.400   4.390 -32.863  1.00  0.00     0.137 C 
BRANCH  24  25
HETATM   25  C   UNL     1      -4.870   4.813 -34.236  1.00  0.00     0.058 C 
BRANCH  25  26
HETATM   26  C   UNL     1      -3.539   5.516 -34.088  1.00  0.00    -0.057 A 
HETATM   27  C   UNL     1      -2.446   5.125 -34.875  1.00  0.00     0.007 A 
HETATM   28  C   UNL     1      -1.195   5.717 -34.693  1.00  0.00     0.001 A 
HETATM   29  C   UNL     1      -1.026   6.706 -33.726  1.00  0.00     0.000 A 
HETATM   30  C   UNL     1      -2.108   7.106 -32.943  1.00  0.00     0.001 A 
HETATM   31  C   UNL     1      -3.359   6.512 -33.121  1.00  0.00     0.007 A 
ENDBRANCH  25  26
ENDBRANCH  24  25
ENDBRANCH   4  24
TORSDOF 5
ENDMDL
MODEL 3
REMARK VINA RESULT:      -9.1      2.203      6.044
REMARK  5 active torsions:
REMARK  status: ('A' for Active; 'I' for Inactive)
REMARK    1  A    between atoms: C_7  and  C_8 
REMARK    2  A    between atoms: C_8  and  O_9 
REMARK    3  A    between atoms: N_12  and  C_13 
REMARK    4  A    between atoms: C_13  and  C_14 
REMARK    5  A    between atoms: C_14  and  C_15 
ROOT
HETATM    1  C   UNL     1      -6.087   0.447 -31.716  1.00  0.00     0.199 A 
HETATM    2  C   UNL     1      -7.572   0.904 -31.792  1.00  0.00     0.269 A 
HETATM    3  O   UNL     1      -8.130   1.670 -31.015  1.00  0.00    -0.269 OA
HETATM    4  N   UNL     1      -8.187   0.174 -32.829  1.00  0.00    -0.314 N 
HETATM    5  C   UNL     1      -7.267  -0.710 -33.421  1.00  0.00     0.047 A 
HETATM    6  C   UNL     1      -6.012  -0.578 -32.817  1.00  0.00     0.017 A 
HETATM    7  C   UNL     1      -7.481  -1.628 -34.437  1.00  0.00     0.030 A 
HETATM    8  C   UNL     1      -6.407  -2.428 -34.842  1.00  0.00     0.002 A 
HETATM    9  C   UNL     1      -5.150  -2.307 -34.229  1.00  0.00     0.001 A 
HETATM   10  C   UNL     1      -4.946  -1.380 -33.207  1.00  0.00     0.013 A 
ENDROOT
BRANCH   1  11
HETATM   11  C   UNL     1      -5.057   1.513 -32.009  1.00  0.00     0.025 A 
HETATM   12  C   UNL     1      -3.709   1.481 -31.639  1.00  0.00     0.016 A 
HETATM   13  C   UNL     1      -2.915   0.462 -30.899  1.00  0.00     0.069 C 
HETATM   14  N   UNL     1      -3.111   2.625 -32.097  1.00  0.00    -0.359 N 
HETATM   15  H   UNL     1      -2.137   2.862 -31.970  1.00  0.00     0.166 HD
HETATM   16  C   UNL     1      -4.007   3.401 -32.784  1.00  0.00     0.043 A 
HETATM   17  C   UNL     1      -5.238   2.743 -32.748  1.00  0.00     0.003 A 
HETATM   18  C   UNL     1      -3.808   4.626 -33.432  1.00  0.00     0.030 A 
HETATM   19  C   UNL     1      -6.326   3.359 -33.407  1.00  0.00     0.014 A 
HETATM   20  C   UNL     1      -6.145   4.585 -34.062  1.00  0.00     0.001 A 
HETATM   21  C   UNL     1      -4.902   5.209 -34.073  1.00  0.00     0.002 A 
ENDBRANCH   1  11
BRANCH   1  22
HETATM   22  O   UNL     1      -5.892  -0.190 -30.453  1.00  0.00    -0.371 OA
HETATM   23  H   UNL     1      -5.959  -1.141 -30.656  1.00  0.00     0.212 HD
ENDBRANCH   1  22
BRANCH   4  24
HETATM   24  C   UNL     1      -9.626   0.071 -32.964  1.00  0.00     0.137 C 
BRANCH  24  25
HETATM   25  C   UNL     1     -10.250   1.137 -33.871  1.00  0.00     0.058 C 
BRANCH  25  26
HETATM   26  C   UNL     1     -11.753   0.975 -33.908  1.00  0.00    -0.057 A 
HETATM   27  C   UNL     1     -12.341  -0.228 -33.491  1.00  0.00     0.007 A 
HETATM   28  C   UNL     1     -13.721  -0.414 -33.592  1.00  0.00     0.001 A 
HETATM   29  C   UNL     1     -14.525   0.602 -34.105  1.00  0.00     0.000 A 
HETATM   30  C   UNL     1     -13.951   1.804 -34.516  1.00  0.00     0.001 A 
HETATM   31  C   UNL     1     -12.570   1.990 -34.420  1.00  0.00     0.007 A 
ENDBRANCH  25  26
ENDBRANCH  24  25
ENDBRANCH   4  24
TORSDOF 5
ENDMDL
MODEL 4
REMARK VINA RESULT:      -9.0      2.048      2.668
REMARK  5 active torsions:
REMARK  status: ('A' for Active; 'I' for Inactive)
REMARK    1  A    between atoms: C_7  and  C_8 
REMARK    2  A    between atoms: C_8  and  O_9 
REMARK    3  A    between atoms: N_12  and  C_13 
REMARK    4  A    between atoms: C_13  and  C_14 
REMARK    5  A    between atoms: C_14  and  C_15 
ROOT
HETATM    1  C   UNL     1      -8.823   2.600 -31.636  1.00  0.00     0.199 A 
HETATM    2  C   UNL     1      -8.544   1.094 -31.911  1.00  0.00     0.269 A 
HETATM    3  O   UNL     1      -9.067   0.148 -31.334  1.00  0.00    -0.269 OA
HETATM    4  N   UNL     1      -7.486   1.023 -32.839  1.00  0.00    -0.314 N 
HETATM    5  C   UNL     1      -7.045   2.313 -33.185  1.00  0.00     0.047 A 
HETATM    6  C   UNL     1      -7.810   3.278 -32.519  1.00  0.00     0.017 A 
HETATM    7  C   UNL     1      -6.007   2.676 -34.027  1.00  0.00     0.030 A 
HETATM    8  C   UNL     1      -5.736   4.038 -34.193  1.00  0.00     0.002 A 
HETATM    9  C   UNL     1      -6.491   5.008 -33.517  1.00  0.00     0.001 A 
HETATM   10  C   UNL     1      -7.534   4.632 -32.670  1.00  0.00     0.013 A 
ENDROOT
BRANCH   1  11
HETATM   11  C   UNL     1     -10.192   3.096 -32.039  1.00  0.00     0.025 A 
HETATM   12  C   UNL     1     -10.871   4.184 -31.483  1.00  0.00     0.016 A 
HETATM   13  C   UNL     1     -10.491   5.133 -30.400  1.00  0.00     0.069 C 
HETATM   14  N   UNL     1     -12.073   4.315 -32.126  1.00  0.00    -0.359 N 
HETATM   15  H   UNL     1     -12.766   5.022 -31.925  1.00  0.00     0.166 HD
HETATM   16  C   UNL     1     -12.202   3.371 -33.111  1.00  0.00     0.043 A 
HETATM   17  C   UNL     1     -11.049   2.585 -33.087  1.00  0.00     0.003 A 
HETATM   18  C   UNL     1     -13.252   3.168 -34.015  1.00  0.00     0.030 A 
HETATM   19  C   UNL     1     -10.952   1.539 -34.032  1.00  0.00     0.014 A 
HETATM   20  C   UNL     1     -11.993   1.321 -34.945  1.00  0.00     0.001 A 
HETATM   21  C   UNL     1     -13.127   2.126 -34.935  1.00  0.00     0.002 A 
ENDBRANCH   1  11
BRANCH   1  22
HETATM   22  O   UNL     1      -8.514   2.857 -30.266  1.00  0.00    -0.371 OA
HETATM   23  H   UNL     1      -8.443   3.828 -30.219  1.00  0.00     0.212 HD
ENDBRANCH   1  22
BRANCH   4  24
HETATM   24  C   UNL     1      -6.726  -0.191 -33.065  1.00  0.00     0.137 C 
BRANCH  24  25
HETATM   25  C   UNL     1      -7.022  -0.878 -34.401  1.00  0.00     0.058 C 
BRANCH  25  26
HETATM   26  C   UNL     1      -6.283  -2.195 -34.486  1.00  0.00    -0.057 A 
HETATM   27  C   UNL     1      -6.977  -3.373 -34.799  1.00  0.00     0.007 A 
HETATM   28  C   UNL     1      -6.318  -4.603 -34.806  1.00  0.00     0.001 A 
HETATM   29  C   UNL     1      -4.959  -4.667 -34.504  1.00  0.00     0.000 A 
HETATM   30  C   UNL     1      -4.258  -3.501 -34.198  1.00  0.00     0.001 A 
HETATM   31  C   UNL     1      -4.917  -2.270 -34.187  1.00  0.00     0.007 A 
ENDBRANCH  25  26
ENDBRANCH  24  25
ENDBRANCH   4  24
TORSDOF 5
ENDMDL
MODEL 5
REMARK VINA RESULT:      -8.8     15.403     17.241
REMARK  5 active torsions:
REMARK  status: ('A' for Active; 'I' for Inactive)
REMARK    1  A    between atoms: C_7  and  C_8 
REMARK    2  A    between atoms: C_8  and  O_9 
REMARK    3  A    between atoms: N_12  and  C_13 
REMARK    4  A    between atoms: C_13  and  C_14 
REMARK    5  A    between atoms: C_14  and  C_15 
ROOT
HETATM    1  C   UNL     1      -4.997 -12.755 -39.785  1.00  0.00     0.199 A 
HETATM    2  C   UNL     1      -3.880 -12.586 -38.716  1.00  0.00     0.269 A 
HETATM    3  O   UNL     1      -3.935 -11.865 -37.726  1.00  0.00    -0.269 OA
HETATM    4  N   UNL     1      -2.752 -13.300 -39.166  1.00  0.00    -0.314 N 
HETATM    5  C   UNL     1      -3.014 -13.902 -40.409  1.00  0.00     0.047 A 
HETATM    6  C   UNL     1      -4.326 -13.628 -40.812  1.00  0.00     0.017 A 
HETATM    7  C   UNL     1      -2.161 -14.651 -41.205  1.00  0.00     0.030 A 
HETATM    8  C   UNL     1      -2.645 -15.124 -42.429  1.00  0.00     0.002 A 
HETATM    9  C   UNL     1      -3.955 -14.840 -42.842  1.00  0.00     0.001 A 
HETATM   10  C   UNL     1      -4.805 -14.085 -42.034  1.00  0.00     0.013 A 
ENDROOT
BRANCH   1  11
HETATM   11  C   UNL     1      -6.246 -13.468 -39.320  1.00  0.00     0.025 A 
HETATM   12  C   UNL     1      -6.293 -14.610 -38.515  1.00  0.00     0.016 A 
HETATM   13  C   UNL     1      -5.209 -15.425 -37.899  1.00  0.00     0.069 C 
HETATM   14  N   UNL     1      -7.607 -14.939 -38.312  1.00  0.00    -0.359 N 
HETATM   15  H   UNL     1      -7.931 -15.723 -37.764  1.00  0.00     0.166 HD
HETATM   16  C   UNL     1      -8.434 -14.037 -38.928  1.00  0.00     0.043 A 
HETATM   17  C   UNL     1      -7.623 -13.104 -39.575  1.00  0.00     0.003 A 
HETATM   18  C   UNL     1      -9.833 -13.987 -38.951  1.00  0.00     0.030 A 
HETATM   19  C   UNL     1      -8.264 -12.060 -40.280  1.00  0.00     0.014 A 
HETATM   20  C   UNL     1      -9.663 -11.993 -40.312  1.00  0.00     0.001 A 
HETATM   21  C   UNL     1     -10.436 -12.945 -39.656  1.00  0.00     0.002 A 
ENDBRANCH   1  11
BRANCH   1  22
HETATM   22  O   UNL     1      -5.261 -11.469 -40.347  1.00  0.00    -0.371 OA
HETATM   23  H   UNL     1      -4.691 -10.867 -39.835  1.00  0.00     0.212 HD
ENDBRANCH   1  22
BRANCH   4  24
HETATM   24  C   UNL     1      -1.426 -13.090 -38.619  1.00  0.00     0.137 C 
BRANCH  24  25
HETATM   25  C   UNL     1      -1.061 -14.038 -37.473  1.00  0.00     0.058 C 
BRANCH  25  26
HETATM   26  C   UNL     1       0.123 -14.895 -37.862  1.00  0.00    -0.057 A 
HETATM   27  C   UNL     1       0.869 -14.585 -39.009  1.00  0.00     0.007 A 
HETATM   28  C   UNL     1       1.916 -15.412 -39.418  1.00  0.00     0.001 A 
HETATM   29  C   UNL     1       2.231 -16.553 -38.682  1.00  0.00     0.000 A 
HETATM   30  C   UNL     1       1.500 -16.866 -37.537  1.00  0.00     0.001 A 
HETATM   31  C   UNL     1       0.449 -16.042 -37.129  1.00  0.00     0.007 A 
ENDBRANCH  25  26
ENDBRANCH  24  25
ENDBRANCH   4  24
TORSDOF 5
ENDMDL
MODEL 6
REMARK VINA RESULT:      -8.8      1.198      2.200
REMARK  5 active torsions:
REMARK  status: ('A' for Active; 'I' for Inactive)
REMARK    1  A    between atoms: C_7  and  C_8 
REMARK    2  A    between atoms: C_8  and  O_9 
REMARK    3  A    between atoms: N_12  and  C_13 
REMARK    4  A    between atoms: C_13  and  C_14 
REMARK    5  A    between atoms: C_14  and  C_15 
ROOT
HETATM    1  C   UNL     1      -6.952   1.950 -31.407  1.00  0.00     0.199 A 
HETATM    2  C   UNL     1      -6.541   0.484 -31.726  1.00  0.00     0.269 A 
HETATM    3  O   UNL     1      -7.238  -0.511 -31.563  1.00  0.00    -0.269 OA
HETATM    4  N   UNL     1      -5.183   0.497 -32.102  1.00  0.00    -0.314 N 
HETATM    5  C   UNL     1      -4.670   1.806 -32.052  1.00  0.00     0.047 A 
HETATM    6  C   UNL     1      -5.673   2.702 -31.666  1.00  0.00     0.017 A 
HETATM    7  C   UNL     1      -3.379   2.240 -32.303  1.00  0.00     0.030 A 
HETATM    8  C   UNL     1      -3.099   3.602 -32.156  1.00  0.00     0.002 A 
HETATM    9  C   UNL     1      -4.099   4.502 -31.757  1.00  0.00     0.001 A 
HETATM   10  C   UNL     1      -5.395   4.055 -31.505  1.00  0.00     0.013 A 
ENDROOT
BRANCH   1  11
HETATM   11  C   UNL     1      -8.021   2.539 -32.298  1.00  0.00     0.025 A 
HETATM   12  C   UNL     1      -8.226   2.240 -33.648  1.00  0.00     0.016 A 
HETATM   13  C   UNL     1      -7.514   1.313 -34.571  1.00  0.00     0.069 C 
HETATM   14  N   UNL     1      -9.295   2.972 -34.092  1.00  0.00    -0.359 N 
HETATM   15  H   UNL     1      -9.664   2.951 -35.033  1.00  0.00     0.166 HD
HETATM   16  C   UNL     1      -9.826   3.722 -33.076  1.00  0.00     0.043 A 
HETATM   17  C   UNL     1      -9.055   3.484 -31.937  1.00  0.00     0.003 A 
HETATM   18  C   UNL     1     -10.930   4.583 -33.091  1.00  0.00     0.030 A 
HETATM   19  C   UNL     1      -9.425   4.151 -30.748  1.00  0.00     0.014 A 
HETATM   20  C   UNL     1     -10.528   5.015 -30.743  1.00  0.00     0.001 A 
HETATM   21  C   UNL     1     -11.270   5.227 -31.900  1.00  0.00     0.002 A 
ENDBRANCH   1  11
BRANCH   1  22
HETATM   22  O   UNL     1      -7.277   2.019 -30.018  1.00  0.00    -0.371 OA
HETATM   23  H   UNL     1      -8.091   2.555 -29.994  1.00  0.00     0.212 HD
ENDBRANCH   1  22
BRANCH   4  24
HETATM   24  C   UNL     1      -4.368  -0.702 -32.130  1.00  0.00     0.137 C 
BRANCH  24  25
HETATM   25  C   UNL     1      -3.958  -1.150 -33.536  1.00  0.00     0.058 C 
BRANCH  25  26
HETATM   26  C   UNL     1      -4.757  -2.365 -33.950  1.00  0.00    -0.057 A 
HETATM   27  C   UNL     1      -4.153  -3.631 -33.973  1.00  0.00     0.007 A 
HETATM   28  C   UNL     1      -4.860  -4.746 -34.425  1.00  0.00     0.001 A 
HETATM   29  C   UNL     1      -6.179  -4.607 -34.854  1.00  0.00     0.000 A 
HETATM   30  C   UNL     1      -6.791  -3.355 -34.828  1.00  0.00     0.001 A 
HETATM   31  C   UNL     1      -6.084  -2.238 -34.381  1.00  0.00     0.007 A 
ENDBRANCH  25  26
ENDBRANCH  24  25
ENDBRANCH   4  24
TORSDOF 5
ENDMDL
MODEL 7
REMARK VINA RESULT:      -8.7      2.344      5.399
REMARK  5 active torsions:
REMARK  status: ('A' for Active; 'I' for Inactive)
REMARK    1  A    between atoms: C_7  and  C_8 
REMARK    2  A    between atoms: C_8  and  O_9 
REMARK    3  A    between atoms: N_12  and  C_13 
REMARK    4  A    between atoms: C_13  and  C_14 
REMARK    5  A    between atoms: C_14  and  C_15 
ROOT
HETATM    1  C   UNL     1      -6.117   4.185 -33.123  1.00  0.00     0.199 A 
HETATM    2  C   UNL     1      -6.638   2.810 -33.632  1.00  0.00     0.269 A 
HETATM    3  O   UNL     1      -6.220   2.198 -34.607  1.00  0.00    -0.269 OA
HETATM    4  N   UNL     1      -7.762   2.470 -32.853  1.00  0.00    -0.314 N 
HETATM    5  C   UNL     1      -8.029   3.476 -31.907  1.00  0.00     0.047 A 
HETATM    6  C   UNL     1      -7.081   4.500 -32.010  1.00  0.00     0.017 A 
HETATM    7  C   UNL     1      -9.063   3.546 -30.987  1.00  0.00     0.030 A 
HETATM    8  C   UNL     1      -9.139   4.673 -30.162  1.00  0.00     0.002 A 
HETATM    9  C   UNL     1      -8.197   5.708 -30.272  1.00  0.00     0.001 A 
HETATM   10  C   UNL     1      -7.161   5.628 -31.203  1.00  0.00     0.013 A 
ENDROOT
BRANCH   1  11
HETATM   11  C   UNL     1      -4.723   4.181 -32.538  1.00  0.00     0.025 A 
HETATM   12  C   UNL     1      -4.289   3.419 -31.449  1.00  0.00     0.016 A 
HETATM   13  C   UNL     1      -5.002   2.437 -30.587  1.00  0.00     0.069 C 
HETATM   14  N   UNL     1      -2.963   3.692 -31.237  1.00  0.00    -0.359 N 
HETATM   15  H   UNL     1      -2.394   3.278 -30.512  1.00  0.00     0.166 HD
HETATM   16  C   UNL     1      -2.496   4.584 -32.165  1.00  0.00     0.043 A 
HETATM   17  C   UNL     1      -3.566   4.920 -32.995  1.00  0.00     0.003 A 
HETATM   18  C   UNL     1      -1.206   5.107 -32.324  1.00  0.00     0.030 A 
HETATM   19  C   UNL     1      -3.317   5.831 -34.045  1.00  0.00     0.014 A 
HETATM   20  C   UNL     1      -2.033   6.364 -34.220  1.00  0.00     0.001 A 
HETATM   21  C   UNL     1      -0.992   6.005 -33.370  1.00  0.00     0.002 A 
ENDBRANCH   1  11
BRANCH   1  22
HETATM   22  O   UNL     1      -6.279   5.131 -34.181  1.00  0.00    -0.371 OA
HETATM   23  H   UNL     1      -5.589   5.797 -34.008  1.00  0.00     0.212 HD
ENDBRANCH   1  22
BRANCH   4  24
HETATM   24  C   UNL     1      -8.711   1.450 -33.255  1.00  0.00     0.137 C 
BRANCH  24  25
HETATM   25  C   UNL     1      -8.553   0.119 -32.513  1.00  0.00     0.058 C 
BRANCH  25  26
HETATM   26  C   UNL     1      -7.328  -0.614 -33.011  1.00  0.00    -0.057 A 
HETATM   27  C   UNL     1      -6.150  -0.613 -32.249  1.00  0.00     0.007 A 
HETATM   28  C   UNL     1      -4.992  -1.222 -32.734  1.00  0.00     0.001 A 
HETATM   29  C   UNL     1      -5.001  -1.842 -33.983  1.00  0.00     0.000 A 
HETATM   30  C   UNL     1      -6.169  -1.854 -34.745  1.00  0.00     0.001 A 
HETATM   31  C   UNL     1      -7.327  -1.241 -34.262  1.00  0.00     0.007 A 
ENDBRANCH  25  26
ENDBRANCH  24  25
ENDBRANCH   4  24
TORSDOF 5
ENDMDL
MODEL 8
REMARK VINA RESULT:      -8.6      2.100      5.855
REMARK  5 active torsions:
REMARK  status: ('A' for Active; 'I' for Inactive)
REMARK    1  A    between atoms: C_7  and  C_8 
REMARK    2  A    between atoms: C_8  and  O_9 
REMARK    3  A    between atoms: N_12  and  C_13 
REMARK    4  A    between atoms: C_13  and  C_14 
REMARK    5  A    between atoms: C_14  and  C_15 
ROOT
HETATM    1  C   UNL     1      -7.120   1.566 -31.637  1.00  0.00     0.199 A 
HETATM    2  C   UNL     1      -5.703   1.724 -31.015  1.00  0.00     0.269 A 
HETATM    3  O   UNL     1      -5.210   1.004 -30.155  1.00  0.00    -0.269 OA
HETATM    4  N   UNL     1      -5.150   2.918 -31.519  1.00  0.00    -0.314 N 
HETATM    5  C   UNL     1      -6.056   3.553 -32.388  1.00  0.00     0.047 A 
HETATM    6  C   UNL     1      -7.224   2.791 -32.507  1.00  0.00     0.017 A 
HETATM    7  C   UNL     1      -5.917   4.760 -33.052  1.00  0.00     0.030 A 
HETATM    8  C   UNL     1      -6.979   5.205 -33.846  1.00  0.00     0.002 A 
HETATM    9  C   UNL     1      -8.157   4.450 -33.957  1.00  0.00     0.001 A 
HETATM   10  C   UNL     1      -8.288   3.237 -33.283  1.00  0.00     0.013 A 
ENDROOT
BRANCH   1  11
HETATM   11  C   UNL     1      -7.317   0.356 -32.521  1.00  0.00     0.025 A 
HETATM   12  C   UNL     1      -8.542  -0.153 -32.960  1.00  0.00     0.016 A 
HETATM   13  C   UNL     1      -9.940   0.301 -32.721  1.00  0.00     0.069 C 
HETATM   14  N   UNL     1      -8.295  -1.248 -33.746  1.00  0.00    -0.359 N 
HETATM   15  H   UNL     1      -9.003  -1.811 -34.197  1.00  0.00     0.166 HD
HETATM   16  C   UNL     1      -6.948  -1.464 -33.869  1.00  0.00     0.043 A 
HETATM   17  C   UNL     1      -6.300  -0.485 -33.113  1.00  0.00     0.003 A 
HETATM   18  C   UNL     1      -6.269  -2.449 -34.596  1.00  0.00     0.030 A 
HETATM   19  C   UNL     1      -4.887  -0.503 -33.097  1.00  0.00     0.014 A 
HETATM   20  C   UNL     1      -4.191  -1.481 -33.819  1.00  0.00     0.001 A 
HETATM   21  C   UNL     1      -4.874  -2.441 -34.559  1.00  0.00     0.002 A 
ENDBRANCH   1  11
BRANCH   1  22
HETATM   22  O   UNL     1      -8.073   1.648 -30.577  1.00  0.00    -0.371 OA
HETATM   23  H   UNL     1      -7.598   2.122 -29.870  1.00  0.00     0.212 HD
ENDBRANCH   1  22
BRANCH   4  24
HETATM   24  C   UNL     1      -4.008   3.569 -30.908  1.00  0.00     0.137 C 
BRANCH  24  25
HETATM   25  C   UNL     1      -2.673   3.272 -31.596  1.00  0.00     0.058 C 
BRANCH  25  26
HETATM   26  C   UNL     1      -2.218   4.474 -32.394  1.00  0.00    -0.057 A 
HETATM   27  C   UNL     1      -1.833   5.651 -31.735  1.00  0.00     0.007 A 
HETATM   28  C   UNL     1      -1.484   6.789 -32.464  1.00  0.00     0.001 A 
HETATM   29  C   UNL     1      -1.513   6.760 -33.857  1.00  0.00     0.000 A 
HETATM   30  C   UNL     1      -1.888   5.593 -34.521  1.00  0.00     0.001 A 
HETATM   31  C   UNL     1      -2.241   4.455 -33.794  1.00  0.00     0.007 A 
ENDBRANCH  25  26
ENDBRANCH  24  25
ENDBRANCH   4  24
TORSDOF 5
ENDMDL
MODEL 9
REMARK VINA RESULT:      -8.5      2.268      3.673
REMARK  5 active torsions:
REMARK  status: ('A' for Active; 'I' for Inactive)
REMARK    1  A    between atoms: C_7  and  C_8 
REMARK    2  A    between atoms: C_8  and  O_9 
REMARK    3  A    between atoms: N_12  and  C_13 
REMARK    4  A    between atoms: C_13  and  C_14 
REMARK    5  A    between atoms: C_14  and  C_15 
ROOT
HETATM    1  C   UNL     1      -8.804   2.266 -31.690  1.00  0.00     0.199 A 
HETATM    2  C   UNL     1      -9.015   1.320 -32.907  1.00  0.00     0.269 A 
HETATM    3  O   UNL     1     -10.011   1.276 -33.620  1.00  0.00    -0.269 OA
HETATM    4  N   UNL     1      -7.917   0.438 -32.953  1.00  0.00    -0.314 N 
HETATM    5  C   UNL     1      -7.029   0.702 -31.896  1.00  0.00     0.047 A 
HETATM    6  C   UNL     1      -7.493   1.779 -31.132  1.00  0.00     0.017 A 
HETATM    7  C   UNL     1      -5.859   0.038 -31.562  1.00  0.00     0.030 A 
HETATM    8  C   UNL     1      -5.152   0.469 -30.435  1.00  0.00     0.002 A 
HETATM    9  C   UNL     1      -5.622   1.541 -29.660  1.00  0.00     0.001 A 
HETATM   10  C   UNL     1      -6.801   2.202 -30.003  1.00  0.00     0.013 A 
ENDROOT
BRANCH   1  11
HETATM   11  C   UNL     1      -8.648   3.732 -32.019  1.00  0.00     0.025 A 
HETATM   12  C   UNL     1      -7.684   4.290 -32.863  1.00  0.00     0.016 A 
HETATM   13  C   UNL     1      -6.587   3.665 -33.654  1.00  0.00     0.069 C 
HETATM   14  N   UNL     1      -7.883   5.645 -32.907  1.00  0.00    -0.359 N 
HETATM   15  H   UNL     1      -7.328   6.297 -33.443  1.00  0.00     0.166 HD
HETATM   16  C   UNL     1      -8.965   6.001 -32.146  1.00  0.00     0.043 A 
HETATM   17  C   UNL     1      -9.469   4.835 -31.569  1.00  0.00     0.003 A 
HETATM   18  C   UNL     1      -9.525   7.268 -31.937  1.00  0.00     0.030 A 
HETATM   19  C   UNL     1     -10.606   4.957 -30.738  1.00  0.00     0.014 A 
HETATM   20  C   UNL     1     -11.181   6.216 -30.519  1.00  0.00     0.001 A 
HETATM   21  C   UNL     1     -10.647   7.355 -31.111  1.00  0.00     0.002 A 
ENDBRANCH   1  11
BRANCH   1  22
HETATM   22  O   UNL     1      -9.850   2.009 -30.752  1.00  0.00    -0.371 OA
HETATM   23  H   UNL     1     -10.630   1.836 -31.311  1.00  0.00     0.212 HD
ENDBRANCH   1  22
BRANCH   4  24
HETATM   24  C   UNL     1      -7.935  -0.791 -33.722  1.00  0.00     0.137 C 
BRANCH  24  25
HETATM   25  C   UNL     1      -6.824  -0.892 -34.771  1.00  0.00     0.058 C 
BRANCH  25  26
HETATM   26  C   UNL     1      -6.149  -2.243 -34.687  1.00  0.00    -0.057 A 
HETATM   27  C   UNL     1      -6.869  -3.409 -34.988  1.00  0.00     0.007 A 
HETATM   28  C   UNL     1      -6.277  -4.664 -34.842  1.00  0.00     0.001 A 
HETATM   29  C   UNL     1      -4.960  -4.766 -34.398  1.00  0.00     0.000 A 
HETATM   30  C   UNL     1      -4.233  -3.613 -34.104  1.00  0.00     0.001 A 
HETATM   31  C   UNL     1      -4.825  -2.357 -34.246  1.00  0.00     0.007 A 
ENDBRANCH  25  26
ENDBRANCH  24  25
ENDBRANCH   4  24
TORSDOF 5
ENDMDL
MODEL 10
REMARK VINA RESULT:      -8.5      3.666      6.598
REMARK  5 active torsions:
REMARK  status: ('A' for Active; 'I' for Inactive)
REMARK    1  A    between atoms: C_7  and  C_8 
REMARK    2  A    between atoms: C_8  and  O_9 
REMARK    3  A    between atoms: N_12  and  C_13 
REMARK    4  A    between atoms: C_13  and  C_14 
REMARK    5  A    between atoms: C_14  and  C_15 
ROOT
HETATM    1  C   UNL     1     -11.807   3.317 -34.747  1.00  0.00     0.199 A 
HETATM    2  C   UNL     1     -10.346   3.097 -34.259  1.00  0.00     0.269 A 
HETATM    3  O   UNL     1      -9.402   3.855 -34.448  1.00  0.00    -0.269 OA
HETATM    4  N   UNL     1     -10.281   1.811 -33.687  1.00  0.00    -0.314 N 
HETATM    5  C   UNL     1     -11.532   1.174 -33.761  1.00  0.00     0.047 A 
HETATM    6  C   UNL     1     -12.471   2.022 -34.360  1.00  0.00     0.017 A 
HETATM    7  C   UNL     1     -11.878  -0.105 -33.355  1.00  0.00     0.030 A 
HETATM    8  C   UNL     1     -13.194  -0.531 -33.562  1.00  0.00     0.002 A 
HETATM    9  C   UNL     1     -14.134   0.312 -34.174  1.00  0.00     0.001 A 
HETATM   10  C   UNL     1     -13.776   1.597 -34.581  1.00  0.00     0.013 A 
ENDROOT
BRANCH   1  11
HETATM   11  C   UNL     1     -12.560   4.441 -34.073  1.00  0.00     0.025 A 
HETATM   12  C   UNL     1     -13.128   5.549 -34.707  1.00  0.00     0.016 A 
HETATM   13  C   UNL     1     -13.175   5.946 -36.142  1.00  0.00     0.069 C 
HETATM   14  N   UNL     1     -13.727   6.329 -33.754  1.00  0.00    -0.359 N 
HETATM   15  H   UNL     1     -14.217   7.194 -33.934  1.00  0.00     0.166 HD
HETATM   16  C   UNL     1     -13.604   5.761 -32.513  1.00  0.00     0.043 A 
HETATM   17  C   UNL     1     -12.876   4.581 -32.668  1.00  0.00     0.003 A 
HETATM   18  C   UNL     1     -14.089   6.209 -31.279  1.00  0.00     0.030 A 
HETATM   19  C   UNL     1     -12.628   3.810 -31.509  1.00  0.00     0.014 A 
HETATM   20  C   UNL     1     -13.107   4.243 -30.265  1.00  0.00     0.001 A 
HETATM   21  C   UNL     1     -13.827   5.427 -30.153  1.00  0.00     0.002 A 
ENDBRANCH   1  11
BRANCH   1  22
HETATM   22  O   UNL     1     -11.778   3.435 -36.170  1.00  0.00    -0.371 OA
HETATM   23  H   UNL     1     -12.672   3.162 -36.447  1.00  0.00     0.212 HD
ENDBRANCH   1  22
BRANCH   4  24
HETATM   24  C   UNL     1      -9.025   1.126 -33.447  1.00  0.00     0.137 C 
BRANCH  24  25
HETATM   25  C   UNL     1      -8.421   0.468 -34.691  1.00  0.00     0.058 C 
BRANCH  25  26
HETATM   26  C   UNL     1      -7.160  -0.282 -34.324  1.00  0.00    -0.057 A 
HETATM   27  C   UNL     1      -6.146   0.361 -33.598  1.00  0.00     0.007 A 
HETATM   28  C   UNL     1      -4.947  -0.298 -33.319  1.00  0.00     0.001 A 
HETATM   29  C   UNL     1      -4.754  -1.607 -33.758  1.00  0.00     0.000 A 
HETATM   30  C   UNL     1      -5.758  -2.257 -34.474  1.00  0.00     0.001 A 
HETATM   31  C   UNL     1      -6.956  -1.597 -34.757  1.00  0.00     0.007 A 
ENDBRANCH  25  26
ENDBRANCH  24  25
ENDBRANCH   4  24
TORSDOF 5
ENDMDL
