MODEL 1
REMARK VINA RESULT:      -8.4      0.000      0.000
REMARK  8 active torsions:
REMARK  status: ('A' for Active; 'I' for Inactive)
REMARK    1  A    between atoms: C_2  and  C_3 
REMARK    2  A    between atoms: C_3  and  C_4 
REMARK    3  A    between atoms: C_8  and  C_9 
REMARK       I    between atoms: C_9  and  N_10 
REMARK    4  A    between atoms: N_10  and  C_11 
REMARK    5  A    between atoms: N_10  and  C_17 
REMARK    6  A    between atoms: C_17  and  C_18 
REMARK    7  A    between atoms: C_18  and  O_19 
REMARK    8  A    between atoms: C_18  and  C_20 
ROOT
HETATM    1  C   UNL     1      -3.860   1.320 -31.659  1.00  0.00     0.272 C 
HETATM    2  N   UNL     1      -5.039   0.714 -32.139  1.00  0.00    -0.339 N 
HETATM    3  O   UNL     1      -2.958   0.623 -31.189  1.00  0.00    -0.266 OA
ENDROOT
BRANCH   2   4
HETATM    4  C   UNL     1      -6.239   1.467 -32.593  1.00  0.00     0.087 C 
HETATM    5  C   UNL     1      -6.209   1.752 -34.103  1.00  0.00     0.025 C 
HETATM    6  C   UNL     1      -6.951   0.734 -34.961  1.00  0.00     0.002 C 
HETATM    7  C   UNL     1      -8.371   0.521 -34.460  1.00  0.00     0.000 C 
HETATM    8  C   UNL     1      -8.364   0.006 -33.030  1.00  0.00     0.002 C 
HETATM    9  C   UNL     1      -7.596   0.929 -32.082  1.00  0.00     0.025 C 
ENDBRANCH   2   4
BRANCH   2  10
HETATM   10  C   UNL     1      -5.078  -0.761 -32.044  1.00  0.00     0.163 C 
BRANCH  10  11
HETATM   11  C   UNL     1      -4.093  -1.506 -32.984  1.00  0.00     0.169 C 
BRANCH  11  12
HETATM   12  O   UNL     1      -2.965  -2.069 -32.314  1.00  0.00    -0.389 OA
HETATM   13  H   UNL     1      -2.258  -2.212 -32.974  1.00  0.00     0.210 HD
ENDBRANCH  11  12
BRANCH  11  14
HETATM   14  C   UNL     1      -4.787  -2.644 -33.710  1.00  0.00    -0.028 A 
HETATM   15  C   UNL     1      -4.165  -3.894 -33.840  1.00  0.00     0.010 A 
HETATM   16  C   UNL     1      -4.804  -4.937 -34.516  1.00  0.00     0.001 A 
HETATM   17  C   UNL     1      -6.069  -4.745 -35.069  1.00  0.00     0.000 A 
HETATM   18  C   UNL     1      -6.703  -3.512 -34.938  1.00  0.00     0.001 A 
HETATM   19  C   UNL     1      -6.070  -2.471 -34.257  1.00  0.00     0.010 A 
ENDBRANCH  11  14
ENDBRANCH  10  11
ENDBRANCH   2  10
BRANCH   1  20
HETATM   20  C   UNL     1      -3.720   2.750 -31.698  1.00  0.00     0.119 A 
HETATM   21  N   UNL     1      -4.149   3.632 -30.747  1.00  0.00    -0.273 N 
HETATM   22  N   UNL     1      -3.899   4.920 -31.043  1.00  0.00    -0.179 NA
HETATM   23  H   UNL     1      -4.622   3.427 -29.875  1.00  0.00     0.189 HD
HETATM   24  C   UNL     1      -3.384   4.872 -32.278  1.00  0.00     0.057 A 
HETATM   25  C   UNL     1      -3.267   3.541 -32.736  1.00  0.00     0.065 A 
BRANCH  24  26
HETATM   26  C   UNL     1      -3.025   6.121 -33.011  1.00  0.00     0.061 C 
BRANCH  26  27
HETATM   27  C   UNL     1      -2.694   5.850 -34.480  1.00  0.00     0.002 C 
HETATM   28  C   UNL     1      -1.198   5.680 -34.693  1.00  0.00     0.005 C 
ENDBRANCH  26  27
ENDBRANCH  24  26
ENDBRANCH   1  20
TORSDOF 8
ENDMDL
MODEL 2
REMARK VINA RESULT:      -7.8      1.710      1.915
REMARK  8 active torsions:
REMARK  status: ('A' for Active; 'I' for Inactive)
REMARK    1  A    between atoms: C_2  and  C_3 
REMARK    2  A    between atoms: C_3  and  C_4 
REMARK    3  A    between atoms: C_8  and  C_9 
REMARK       I    between atoms: C_9  and  N_10 
REMARK    4  A    between atoms: N_10  and  C_11 
REMARK    5  A    between atoms: N_10  and  C_17 
REMARK    6  A    between atoms: C_17  and  C_18 
REMARK    7  A    between atoms: C_18  and  O_19 
REMARK    8  A    between atoms: C_18  and  C_20 
ROOT
HETATM    1  C   UNL     1      -4.763   1.353 -31.025  1.00  0.00     0.272 C 
HETATM    2  N   UNL     1      -5.770   0.782 -31.829  1.00  0.00    -0.339 N 
HETATM    3  O   UNL     1      -3.829   0.656 -30.624  1.00  0.00    -0.266 OA
ENDROOT
BRANCH   2   4
HETATM    4  C   UNL     1      -7.008   1.495 -32.248  1.00  0.00     0.087 C 
HETATM    5  C   UNL     1      -6.914   2.024 -33.688  1.00  0.00     0.025 C 
HETATM    6  C   UNL     1      -7.503   1.101 -34.747  1.00  0.00     0.002 C 
HETATM    7  C   UNL     1      -8.923   0.689 -34.394  1.00  0.00     0.000 C 
HETATM    8  C   UNL     1      -8.953  -0.050 -33.066  1.00  0.00     0.002 C 
HETATM    9  C   UNL     1      -8.335   0.768 -31.930  1.00  0.00     0.025 C 
ENDBRANCH   2   4
BRANCH   2  10
HETATM   10  C   UNL     1      -5.597  -0.652 -32.140  1.00  0.00     0.163 C 
BRANCH  10  11
HETATM   11  C   UNL     1      -4.843  -0.952 -33.463  1.00  0.00     0.169 C 
BRANCH  11  12
HETATM   12  O   UNL     1      -3.422  -0.899 -33.346  1.00  0.00    -0.389 OA
HETATM   13  H   UNL     1      -3.168   0.016 -33.113  1.00  0.00     0.210 HD
ENDBRANCH  11  12
BRANCH  11  14
HETATM   14  C   UNL     1      -5.191  -2.332 -33.989  1.00  0.00    -0.028 A 
HETATM   15  C   UNL     1      -4.252  -3.372 -33.945  1.00  0.00     0.010 A 
HETATM   16  C   UNL     1      -4.574  -4.640 -34.438  1.00  0.00     0.001 A 
HETATM   17  C   UNL     1      -5.835  -4.884 -34.979  1.00  0.00     0.000 A 
HETATM   18  C   UNL     1      -6.781  -3.863 -35.021  1.00  0.00     0.001 A 
HETATM   19  C   UNL     1      -6.465  -2.598 -34.522  1.00  0.00     0.010 A 
ENDBRANCH  11  14
ENDBRANCH  10  11
ENDBRANCH   2  10
BRANCH   1  20
HETATM   20  C   UNL     1      -4.837   2.740 -30.657  1.00  0.00     0.119 A 
HETATM   21  N   UNL     1      -5.434   3.252 -29.539  1.00  0.00    -0.273 N 
HETATM   22  N   UNL     1      -5.366   4.591 -29.447  1.00  0.00    -0.179 NA
HETATM   23  H   UNL     1      -5.907   2.747 -28.799  1.00  0.00     0.189 HD
HETATM   24  C   UNL     1      -4.799   4.965 -30.601  1.00  0.00     0.057 A 
HETATM   25  C   UNL     1      -4.465   3.847 -31.396  1.00  0.00     0.065 A 
BRANCH  24  26
HETATM   26  C   UNL     1      -4.601   6.407 -30.929  1.00  0.00     0.061 C 
BRANCH  26  27
HETATM   27  C   UNL     1      -5.929   7.137 -31.135  1.00  0.00     0.002 C 
HETATM   28  C   UNL     1      -6.588   6.740 -32.446  1.00  0.00     0.005 C 
ENDBRANCH  26  27
ENDBRANCH  24  26
ENDBRANCH   1  20
TORSDOF 8
ENDMDL
MODEL 3
REMARK VINA RESULT:      -7.3     14.856     16.616
REMARK  8 active torsions:
REMARK  status: ('A' for Active; 'I' for Inactive)
REMARK    1  A    between atoms: C_2  and  C_3 
REMARK    2  A    between atoms: C_3  and  C_4 
REMARK    3  A    between atoms: C_8  and  C_9 
REMARK       I    between atoms: C_9  and  N_10 
REMARK    4  A    between atoms: N_10  and  C_11 
REMARK    5  A    between atoms: N_10  and  C_17 
REMARK    6  A    between atoms: C_17  and  C_18 
REMARK    7  A    between atoms: C_18  and  O_19 
REMARK    8  A    between atoms: C_18  and  C_20 
ROOT
HETATM    1  C   UNL     1      -3.702 -13.037 -37.704  1.00  0.00     0.272 C 
HETATM    2  N   UNL     1      -4.647 -13.204 -38.736  1.00  0.00    -0.339 N 
HETATM    3  O   UNL     1      -3.969 -12.322 -36.736  1.00  0.00    -0.266 OA
ENDROOT
BRANCH   2   4
HETATM    4  C   UNL     1      -4.375 -13.928 -40.008  1.00  0.00     0.087 C 
HETATM    5  C   UNL     1      -4.668 -15.432 -39.895  1.00  0.00     0.025 C 
HETATM    6  C   UNL     1      -6.058 -15.848 -40.360  1.00  0.00     0.002 C 
HETATM    7  C   UNL     1      -6.354 -15.324 -41.756  1.00  0.00     0.000 C 
HETATM    8  C   UNL     1      -6.290 -13.806 -41.785  1.00  0.00     0.002 C 
HETATM    9  C   UNL     1      -4.947 -13.270 -41.285  1.00  0.00     0.025 C 
ENDBRANCH   2   4
BRANCH   2  10
HETATM   10  C   UNL     1      -5.927 -12.490 -38.546  1.00  0.00     0.163 C 
BRANCH  10  11
HETATM   11  C   UNL     1      -7.064 -13.336 -37.915  1.00  0.00     0.169 C 
BRANCH  11  12
HETATM   12  O   UNL     1      -7.462 -12.897 -36.617  1.00  0.00    -0.389 OA
HETATM   13  H   UNL     1      -8.259 -12.338 -36.714  1.00  0.00     0.210 HD
ENDBRANCH  11  12
BRANCH  11  14
HETATM   14  C   UNL     1      -8.307 -13.317 -38.786  1.00  0.00    -0.028 A 
HETATM   15  C   UNL     1      -8.729 -12.131 -39.404  1.00  0.00     0.010 A 
HETATM   16  C   UNL     1      -9.878 -12.116 -40.199  1.00  0.00     0.001 A 
HETATM   17  C   UNL     1     -10.618 -13.282 -40.387  1.00  0.00     0.000 A 
HETATM   18  C   UNL     1     -10.205 -14.469 -39.787  1.00  0.00     0.001 A 
HETATM   19  C   UNL     1      -9.054 -14.489 -38.999  1.00  0.00     0.010 A 
ENDBRANCH  11  14
ENDBRANCH  10  11
ENDBRANCH   2  10
BRANCH   1  20
HETATM   20  C   UNL     1      -2.420 -13.683 -37.791  1.00  0.00     0.119 A 
HETATM   21  N   UNL     1      -1.982 -14.721 -37.020  1.00  0.00    -0.273 N 
HETATM   22  N   UNL     1      -0.733 -15.127 -37.307  1.00  0.00    -0.179 NA
HETATM   23  H   UNL     1      -2.479 -15.200 -36.278  1.00  0.00     0.189 HD
HETATM   24  C   UNL     1      -0.312 -14.248 -38.225  1.00  0.00     0.057 A 
HETATM   25  C   UNL     1      -1.324 -13.318 -38.549  1.00  0.00     0.065 A 
BRANCH  24  26
HETATM   26  C   UNL     1       1.076 -14.309 -38.769  1.00  0.00     0.061 C 
BRANCH  26  27
HETATM   27  C   UNL     1       1.930 -15.354 -38.050  1.00  0.00     0.002 C 
HETATM   28  C   UNL     1       2.126 -16.598 -38.902  1.00  0.00     0.005 C 
ENDBRANCH  26  27
ENDBRANCH  24  26
ENDBRANCH   1  20
TORSDOF 8
ENDMDL
MODEL 4
REMARK VINA RESULT:      -7.3      3.313      5.480
REMARK  8 active torsions:
REMARK  status: ('A' for Active; 'I' for Inactive)
REMARK    1  A    between atoms: C_2  and  C_3 
REMARK    2  A    between atoms: C_3  and  C_4 
REMARK    3  A    between atoms: C_8  and  C_9 
REMARK       I    between atoms: C_9  and  N_10 
REMARK    4  A    between atoms: N_10  and  C_11 
REMARK    5  A    between atoms: N_10  and  C_17 
REMARK    6  A    between atoms: C_17  and  C_18 
REMARK    7  A    between atoms: C_18  and  O_19 
REMARK    8  A    between atoms: C_18  and  C_20 
ROOT
HETATM    1  C   UNL     1      -6.912   4.177 -33.931  1.00  0.00     0.272 C 
HETATM    2  N   UNL     1      -7.409   2.870 -34.109  1.00  0.00    -0.339 N 
HETATM    3  O   UNL     1      -7.689   5.133 -33.925  1.00  0.00    -0.266 OA
ENDROOT
BRANCH   2   4
HETATM    4  C   UNL     1      -6.550   1.665 -34.273  1.00  0.00     0.087 C 
HETATM    5  C   UNL     1      -6.240   0.986 -32.929  1.00  0.00     0.025 C 
HETATM    6  C   UNL     1      -7.176  -0.159 -32.562  1.00  0.00     0.002 C 
HETATM    7  C   UNL     1      -7.280  -1.172 -33.690  1.00  0.00     0.000 C 
HETATM    8  C   UNL     1      -7.819  -0.518 -34.951  1.00  0.00     0.002 C 
HETATM    9  C   UNL     1      -6.982   0.686 -35.388  1.00  0.00     0.025 C 
ENDBRANCH   2   4
BRANCH   2  10
HETATM   10  C   UNL     1      -8.875   2.764 -34.261  1.00  0.00     0.163 C 
BRANCH  10  11
HETATM   11  C   UNL     1      -9.650   2.439 -32.956  1.00  0.00     0.169 C 
BRANCH  11  12
HETATM   12  O   UNL     1      -9.849   3.566 -32.104  1.00  0.00    -0.389 OA
HETATM   13  H   UNL     1     -10.454   4.188 -32.556  1.00  0.00     0.210 HD
ENDBRANCH  11  12
BRANCH  11  14
HETATM   14  C   UNL     1     -11.022   1.870 -33.263  1.00  0.00    -0.028 A 
HETATM   15  C   UNL     1     -12.120   2.719 -33.463  1.00  0.00     0.010 A 
HETATM   16  C   UNL     1     -13.385   2.191 -33.738  1.00  0.00     0.001 A 
HETATM   17  C   UNL     1     -13.568   0.811 -33.817  1.00  0.00     0.000 A 
HETATM   18  C   UNL     1     -12.485  -0.044 -33.630  1.00  0.00     0.001 A 
HETATM   19  C   UNL     1     -11.219   0.482 -33.363  1.00  0.00     0.010 A 
ENDBRANCH  11  14
ENDBRANCH  10  11
ENDBRANCH   2  10
BRANCH   1  20
HETATM   20  C   UNL     1      -5.499   4.394 -33.780  1.00  0.00     0.119 A 
HETATM   21  N   UNL     1      -4.786   4.309 -32.618  1.00  0.00    -0.273 N 
HETATM   22  N   UNL     1      -3.475   4.573 -32.760  1.00  0.00    -0.179 NA
HETATM   23  H   UNL     1      -5.127   4.077 -31.693  1.00  0.00     0.189 HD
HETATM   24  C   UNL     1      -3.359   4.947 -34.041  1.00  0.00     0.057 A 
HETATM   25  C   UNL     1      -4.597   4.867 -34.715  1.00  0.00     0.065 A 
BRANCH  24  26
HETATM   26  C   UNL     1      -2.049   5.395 -34.596  1.00  0.00     0.061 C 
BRANCH  26  27
HETATM   27  C   UNL     1      -1.172   6.060 -33.533  1.00  0.00     0.002 C 
HETATM   28  C   UNL     1      -1.550   7.518 -33.330  1.00  0.00     0.005 C 
ENDBRANCH  26  27
ENDBRANCH  24  26
ENDBRANCH   1  20
TORSDOF 8
ENDMDL
MODEL 5
REMARK VINA RESULT:      -7.3      1.921      2.393
REMARK  8 active torsions:
REMARK  status: ('A' for Active; 'I' for Inactive)
REMARK    1  A    between atoms: C_2  and  C_3 
REMARK    2  A    between atoms: C_3  and  C_4 
REMARK    3  A    between atoms: C_8  and  C_9 
REMARK       I    between atoms: C_9  and  N_10 
REMARK    4  A    between atoms: N_10  and  C_11 
REMARK    5  A    between atoms: N_10  and  C_17 
REMARK    6  A    between atoms: C_17  and  C_18 
REMARK    7  A    between atoms: C_18  and  O_19 
REMARK    8  A    between atoms: C_18  and  C_20 
ROOT
HETATM    1  C   UNL     1      -3.886   1.851 -32.226  1.00  0.00     0.272 C 
HETATM    2  N   UNL     1      -5.269   1.836 -31.952  1.00  0.00    -0.339 N 
HETATM    3  O   UNL     1      -3.301   0.800 -32.492  1.00  0.00    -0.266 OA
ENDROOT
BRANCH   2   4
HETATM    4  C   UNL     1      -6.041   3.020 -31.485  1.00  0.00     0.087 C 
HETATM    5  C   UNL     1      -6.588   3.855 -32.654  1.00  0.00     0.025 C 
HETATM    6  C   UNL     1      -8.016   3.520 -33.064  1.00  0.00     0.002 C 
HETATM    7  C   UNL     1      -8.956   3.548 -31.869  1.00  0.00     0.000 C 
HETATM    8  C   UNL     1      -8.524   2.534 -30.823  1.00  0.00     0.002 C 
HETATM    9  C   UNL     1      -7.077   2.743 -30.372  1.00  0.00     0.025 C 
ENDBRANCH   2   4
BRANCH   2  10
HETATM   10  C   UNL     1      -5.916   0.510 -32.029  1.00  0.00     0.163 C 
BRANCH  10  11
HETATM   11  C   UNL     1      -6.561   0.171 -33.400  1.00  0.00     0.169 C 
BRANCH  11  12
HETATM   12  O   UNL     1      -6.200   1.069 -34.448  1.00  0.00    -0.389 OA
HETATM   13  H   UNL     1      -6.944   1.686 -34.593  1.00  0.00     0.210 HD
ENDBRANCH  11  12
BRANCH  11  14
HETATM   14  C   UNL     1      -6.170  -1.222 -33.858  1.00  0.00    -0.028 A 
HETATM   15  C   UNL     1      -4.829  -1.630 -33.840  1.00  0.00     0.010 A 
HETATM   16  C   UNL     1      -4.472  -2.911 -34.271  1.00  0.00     0.001 A 
HETATM   17  C   UNL     1      -5.448  -3.797 -34.723  1.00  0.00     0.000 A 
HETATM   18  C   UNL     1      -6.785  -3.409 -34.737  1.00  0.00     0.001 A 
HETATM   19  C   UNL     1      -7.145  -2.133 -34.301  1.00  0.00     0.010 A 
ENDBRANCH  11  14
ENDBRANCH  10  11
ENDBRANCH   2  10
BRANCH   1  20
HETATM   20  C   UNL     1      -3.157   3.089 -32.172  1.00  0.00     0.119 A 
HETATM   21  N   UNL     1      -2.698   3.711 -31.046  1.00  0.00    -0.273 N 
HETATM   22  N   UNL     1      -2.053   4.867 -31.283  1.00  0.00    -0.179 NA
HETATM   23  H   UNL     1      -2.790   3.406 -30.084  1.00  0.00     0.189 HD
HETATM   24  C   UNL     1      -2.196   5.050 -32.601  1.00  0.00     0.057 A 
HETATM   25  C   UNL     1      -2.890   3.975 -33.198  1.00  0.00     0.065 A 
BRANCH  24  26
HETATM   26  C   UNL     1      -1.670   6.275 -33.269  1.00  0.00     0.061 C 
BRANCH  26  27
HETATM   27  C   UNL     1      -0.992   7.224 -32.279  1.00  0.00     0.002 C 
HETATM   28  C   UNL     1      -1.882   8.409 -31.941  1.00  0.00     0.005 C 
ENDBRANCH  26  27
ENDBRANCH  24  26
ENDBRANCH   1  20
TORSDOF 8
ENDMDL
MODEL 6
REMARK VINA RESULT:      -7.3      2.942      5.388
REMARK  8 active torsions:
REMARK  status: ('A' for Active; 'I' for Inactive)
REMARK    1  A    between atoms: C_2  and  C_3 
REMARK    2  A    between atoms: C_3  and  C_4 
REMARK    3  A    between atoms: C_8  and  C_9 
REMARK       I    between atoms: C_9  and  N_10 
REMARK    4  A    between atoms: N_10  and  C_11 
REMARK    5  A    between atoms: N_10  and  C_17 
REMARK    6  A    between atoms: C_17  and  C_18 
REMARK    7  A    between atoms: C_18  and  O_19 
REMARK    8  A    between atoms: C_18  and  C_20 
ROOT
HETATM    1  C   UNL     1      -5.949   3.416 -32.250  1.00  0.00     0.272 C 
HETATM    2  N   UNL     1      -6.261   2.054 -32.436  1.00  0.00    -0.339 N 
HETATM    3  O   UNL     1      -6.439   4.035 -31.303  1.00  0.00    -0.266 OA
ENDROOT
BRANCH   2   4
HETATM    4  C   UNL     1      -5.839   1.254 -33.617  1.00  0.00     0.087 C 
HETATM    5  C   UNL     1      -5.363  -0.154 -33.225  1.00  0.00     0.025 C 
HETATM    6  C   UNL     1      -6.433  -1.236 -33.310  1.00  0.00     0.002 C 
HETATM    7  C   UNL     1      -7.115  -1.234 -34.669  1.00  0.00     0.000 C 
HETATM    8  C   UNL     1      -7.787   0.103 -34.930  1.00  0.00     0.002 C 
HETATM    9  C   UNL     1      -6.811   1.277 -34.819  1.00  0.00     0.025 C 
ENDBRANCH   2   4
BRANCH   2  10
HETATM   10  C   UNL     1      -7.172   1.469 -31.428  1.00  0.00     0.163 C 
BRANCH  10  11
HETATM   11  C   UNL     1      -8.644   1.304 -31.891  1.00  0.00     0.169 C 
BRANCH  11  12
HETATM   12  O   UNL     1      -9.392   0.364 -31.120  1.00  0.00    -0.389 OA
HETATM   13  H   UNL     1      -9.552  -0.427 -31.672  1.00  0.00     0.210 HD
ENDBRANCH  11  12
BRANCH  11  14
HETATM   14  C   UNL     1      -9.390   2.623 -31.821  1.00  0.00    -0.028 A 
HETATM   15  C   UNL     1      -9.770   3.293 -32.992  1.00  0.00     0.010 A 
HETATM   16  C   UNL     1     -10.449   4.513 -32.924  1.00  0.00     0.001 A 
HETATM   17  C   UNL     1     -10.757   5.077 -31.687  1.00  0.00     0.000 A 
HETATM   18  C   UNL     1     -10.394   4.418 -30.515  1.00  0.00     0.001 A 
HETATM   19  C   UNL     1      -9.722   3.196 -30.581  1.00  0.00     0.010 A 
ENDBRANCH  11  14
ENDBRANCH  10  11
ENDBRANCH   2  10
BRANCH   1  20
HETATM   20  C   UNL     1      -5.077   4.086 -33.176  1.00  0.00     0.119 A 
HETATM   21  N   UNL     1      -5.444   4.680 -34.350  1.00  0.00    -0.273 N 
HETATM   22  N   UNL     1      -4.421   5.225 -35.031  1.00  0.00    -0.179 NA
HETATM   23  H   UNL     1      -6.373   4.749 -34.749  1.00  0.00     0.189 HD
HETATM   24  C   UNL     1      -3.341   4.876 -34.322  1.00  0.00     0.057 A 
HETATM   25  C   UNL     1      -3.697   4.151 -33.164  1.00  0.00     0.065 A 
BRANCH  24  26
HETATM   26  C   UNL     1      -1.968   5.236 -34.783  1.00  0.00     0.061 C 
BRANCH  26  27
HETATM   27  C   UNL     1      -1.201   6.042 -33.733  1.00  0.00     0.002 C 
HETATM   28  C   UNL     1      -1.850   7.394 -33.484  1.00  0.00     0.005 C 
ENDBRANCH  26  27
ENDBRANCH  24  26
ENDBRANCH   1  20
TORSDOF 8
ENDMDL
MODEL 7
REMARK VINA RESULT:      -7.2     15.462     16.974
REMARK  8 active torsions:
REMARK  status: ('A' for Active; 'I' for Inactive)
REMARK    1  A    between atoms: C_2  and  C_3 
REMARK    2  A    between atoms: C_3  and  C_4 
REMARK    3  A    between atoms: C_8  and  C_9 
REMARK       I    between atoms: C_9  and  N_10 
REMARK    4  A    between atoms: N_10  and  C_11 
REMARK    5  A    between atoms: N_10  and  C_17 
REMARK    6  A    between atoms: C_17  and  C_18 
REMARK    7  A    between atoms: C_18  and  O_19 
REMARK    8  A    between atoms: C_18  and  C_20 
ROOT
HETATM    1  C   UNL     1      -3.812 -13.894 -40.811  1.00  0.00     0.272 C 
HETATM    2  N   UNL     1      -4.911 -14.241 -39.999  1.00  0.00    -0.339 N 
HETATM    3  O   UNL     1      -3.995 -13.555 -41.981  1.00  0.00    -0.266 OA
ENDROOT
BRANCH   2   4
HETATM    4  C   UNL     1      -4.792 -14.796 -38.623  1.00  0.00     0.087 C 
HETATM    5  C   UNL     1      -4.931 -13.709 -37.545  1.00  0.00     0.025 C 
HETATM    6  C   UNL     1      -6.338 -13.545 -36.982  1.00  0.00     0.002 C 
HETATM    7  C   UNL     1      -6.904 -14.875 -36.513  1.00  0.00     0.000 C 
HETATM    8  C   UNL     1      -6.978 -15.864 -37.665  1.00  0.00     0.002 C 
HETATM    9  C   UNL     1      -5.622 -16.069 -38.344  1.00  0.00     0.025 C 
ENDBRANCH   2   4
BRANCH   2  10
HETATM   10  C   UNL     1      -6.235 -14.146 -40.650  1.00  0.00     0.163 C 
BRANCH  10  11
HETATM   11  C   UNL     1      -7.004 -12.824 -40.387  1.00  0.00     0.169 C 
BRANCH  11  12
HETATM   12  O   UNL     1      -6.741 -11.799 -41.345  1.00  0.00    -0.389 OA
HETATM   13  H   UNL     1      -7.387 -11.078 -41.206  1.00  0.00     0.210 HD
ENDBRANCH  11  12
BRANCH  11  14
HETATM   14  C   UNL     1      -8.503 -13.055 -40.389  1.00  0.00    -0.028 A 
HETATM   15  C   UNL     1      -9.393 -11.984 -40.224  1.00  0.00     0.010 A 
HETATM   16  C   UNL     1     -10.773 -12.202 -40.218  1.00  0.00     0.001 A 
HETATM   17  C   UNL     1     -11.281 -13.491 -40.377  1.00  0.00     0.000 A 
HETATM   18  C   UNL     1     -10.410 -14.563 -40.552  1.00  0.00     0.001 A 
HETATM   19  C   UNL     1      -9.031 -14.346 -40.565  1.00  0.00     0.010 A 
ENDBRANCH  11  14
ENDBRANCH  10  11
ENDBRANCH   2  10
BRANCH   1  20
HETATM   20  C   UNL     1      -2.478 -13.958 -40.279  1.00  0.00     0.119 A 
HETATM   21  N   UNL     1      -1.900 -13.057 -39.430  1.00  0.00    -0.273 N 
HETATM   22  N   UNL     1      -0.632 -13.355 -39.096  1.00  0.00    -0.179 NA
HETATM   23  H   UNL     1      -2.310 -12.217 -39.039  1.00  0.00     0.189 HD
HETATM   24  C   UNL     1      -0.347 -14.430 -39.842  1.00  0.00     0.057 A 
HETATM   25  C   UNL     1      -1.462 -14.835 -40.608  1.00  0.00     0.065 A 
BRANCH  24  26
HETATM   26  C   UNL     1       1.011 -15.045 -39.817  1.00  0.00     0.061 C 
BRANCH  26  27
HETATM   27  C   UNL     1       1.757 -14.740 -38.517  1.00  0.00     0.002 C 
HETATM   28  C   UNL     1       1.484 -15.793 -37.455  1.00  0.00     0.005 C 
ENDBRANCH  26  27
ENDBRANCH  24  26
ENDBRANCH   1  20
TORSDOF 8
ENDMDL
MODEL 8
REMARK VINA RESULT:      -7.1      1.867      6.762
REMARK  8 active torsions:
REMARK  status: ('A' for Active; 'I' for Inactive)
REMARK    1  A    between atoms: C_2  and  C_3 
REMARK    2  A    between atoms: C_3  and  C_4 
REMARK    3  A    between atoms: C_8  and  C_9 
REMARK       I    between atoms: C_9  and  N_10 
REMARK    4  A    between atoms: N_10  and  C_11 
REMARK    5  A    between atoms: N_10  and  C_17 
REMARK    6  A    between atoms: C_17  and  C_18 
REMARK    7  A    between atoms: C_18  and  O_19 
REMARK    8  A    between atoms: C_18  and  C_20 
ROOT
HETATM    1  C   UNL     1      -4.027   0.271 -32.205  1.00  0.00     0.272 C 
HETATM    2  N   UNL     1      -5.324   0.810 -32.077  1.00  0.00    -0.339 N 
HETATM    3  O   UNL     1      -3.044   1.009 -32.118  1.00  0.00    -0.266 OA
ENDROOT
BRANCH   2   4
HETATM    4  C   UNL     1      -6.575   0.037 -32.304  1.00  0.00     0.087 C 
HETATM    5  C   UNL     1      -7.650   0.350 -31.251  1.00  0.00     0.025 C 
HETATM    6  C   UNL     1      -8.651   1.424 -31.659  1.00  0.00     0.002 C 
HETATM    7  C   UNL     1      -9.268   1.118 -33.014  1.00  0.00     0.000 C 
HETATM    8  C   UNL     1      -8.196   1.050 -34.089  1.00  0.00     0.002 C 
HETATM    9  C   UNL     1      -7.102   0.033 -33.758  1.00  0.00     0.025 C 
ENDBRANCH   2   4
BRANCH   2  10
HETATM   10  C   UNL     1      -5.384   2.265 -31.825  1.00  0.00     0.163 C 
BRANCH  10  11
HETATM   11  C   UNL     1      -5.736   3.133 -33.062  1.00  0.00     0.169 C 
BRANCH  11  12
HETATM   12  O   UNL     1      -6.790   4.067 -32.834  1.00  0.00    -0.389 OA
HETATM   13  H   UNL     1      -7.387   3.695 -32.155  1.00  0.00     0.210 HD
ENDBRANCH  11  12
BRANCH  11  14
HETATM   14  C   UNL     1      -4.533   3.931 -33.529  1.00  0.00    -0.028 A 
HETATM   15  C   UNL     1      -4.585   4.678 -34.714  1.00  0.00     0.010 A 
HETATM   16  C   UNL     1      -3.472   5.406 -35.144  1.00  0.00     0.001 A 
HETATM   17  C   UNL     1      -2.296   5.396 -34.397  1.00  0.00     0.000 A 
HETATM   18  C   UNL     1      -2.232   4.667 -33.213  1.00  0.00     0.001 A 
HETATM   19  C   UNL     1      -3.345   3.946 -32.777  1.00  0.00     0.010 A 
ENDBRANCH  11  14
ENDBRANCH  10  11
ENDBRANCH   2  10
BRANCH   1  20
HETATM   20  C   UNL     1      -3.854  -1.133 -32.459  1.00  0.00     0.119 A 
HETATM   21  N   UNL     1      -3.222  -2.032 -31.648  1.00  0.00    -0.273 N 
HETATM   22  N   UNL     1      -3.194  -3.285 -32.135  1.00  0.00    -0.179 NA
HETATM   23  H   UNL     1      -2.784  -1.860 -30.750  1.00  0.00     0.189 HD
HETATM   24  C   UNL     1      -3.735  -3.168 -33.354  1.00  0.00     0.057 A 
HETATM   25  C   UNL     1      -4.149  -1.841 -33.608  1.00  0.00     0.065 A 
BRANCH  24  26
HETATM   26  C   UNL     1      -3.832  -4.342 -34.268  1.00  0.00     0.061 C 
BRANCH  26  27
HETATM   27  C   UNL     1      -5.225  -4.973 -34.248  1.00  0.00     0.002 C 
HETATM   28  C   UNL     1      -6.094  -4.446 -35.378  1.00  0.00     0.005 C 
ENDBRANCH  26  27
ENDBRANCH  24  26
ENDBRANCH   1  20
TORSDOF 8
ENDMDL
MODEL 9
REMARK VINA RESULT:      -7.1      4.601      7.651
REMARK  8 active torsions:
REMARK  status: ('A' for Active; 'I' for Inactive)
REMARK    1  A    between atoms: C_2  and  C_3 
REMARK    2  A    between atoms: C_3  and  C_4 
REMARK    3  A    between atoms: C_8  and  C_9 
REMARK       I    between atoms: C_9  and  N_10 
REMARK    4  A    between atoms: N_10  and  C_11 
REMARK    5  A    between atoms: N_10  and  C_17 
REMARK    6  A    between atoms: C_17  and  C_18 
REMARK    7  A    between atoms: C_18  and  O_19 
REMARK    8  A    between atoms: C_18  and  C_20 
ROOT
HETATM    1  C   UNL     1      -2.598   7.137 -29.319  1.00  0.00     0.272 C 
HETATM    2  N   UNL     1      -2.753   6.762 -30.669  1.00  0.00    -0.339 N 
HETATM    3  O   UNL     1      -3.590   7.400 -28.636  1.00  0.00    -0.266 OA
ENDROOT
BRANCH   2   4
HETATM    4  C   UNL     1      -1.623   6.561 -31.615  1.00  0.00     0.087 C 
HETATM    5  C   UNL     1      -1.334   5.072 -31.866  1.00  0.00     0.025 C 
HETATM    6  C   UNL     1      -2.014   4.488 -33.099  1.00  0.00     0.002 C 
HETATM    7  C   UNL     1      -1.735   5.329 -34.334  1.00  0.00     0.000 C 
HETATM    8  C   UNL     1      -2.250   6.746 -34.147  1.00  0.00     0.002 C 
HETATM    9  C   UNL     1      -1.670   7.418 -32.901  1.00  0.00     0.025 C 
ENDBRANCH   2   4
BRANCH   2  10
HETATM   10  C   UNL     1      -4.149   6.702 -31.153  1.00  0.00     0.163 C 
BRANCH  10  11
HETATM   11  C   UNL     1      -4.955   5.461 -30.685  1.00  0.00     0.169 C 
BRANCH  11  12
HETATM   12  O   UNL     1      -6.155   5.781 -29.982  1.00  0.00    -0.389 OA
HETATM   13  H   UNL     1      -5.948   5.828 -29.028  1.00  0.00     0.210 HD
ENDBRANCH  11  12
BRANCH  11  14
HETATM   14  C   UNL     1      -5.352   4.592 -31.863  1.00  0.00    -0.028 A 
HETATM   15  C   UNL     1      -5.620   5.163 -33.115  1.00  0.00     0.010 A 
HETATM   16  C   UNL     1      -5.993   4.359 -34.196  1.00  0.00     0.001 A 
HETATM   17  C   UNL     1      -6.104   2.979 -34.040  1.00  0.00     0.000 A 
HETATM   18  C   UNL     1      -5.831   2.397 -32.805  1.00  0.00     0.001 A 
HETATM   19  C   UNL     1      -5.451   3.196 -31.726  1.00  0.00     0.010 A 
ENDBRANCH  11  14
ENDBRANCH  10  11
ENDBRANCH   2  10
BRANCH   1  20
HETATM   20  C   UNL     1      -1.283   7.234 -28.747  1.00  0.00     0.119 A 
HETATM   21  N   UNL     1      -0.568   6.216 -28.182  1.00  0.00    -0.273 N 
HETATM   22  N   UNL     1       0.636   6.587 -27.713  1.00  0.00    -0.179 NA
HETATM   23  H   UNL     1      -0.840   5.245 -28.079  1.00  0.00     0.189 HD
HETATM   24  C   UNL     1       0.654   7.914 -27.887  1.00  0.00     0.057 A 
HETATM   25  C   UNL     1      -0.527   8.367 -28.514  1.00  0.00     0.065 A 
BRANCH  24  26
HETATM   26  C   UNL     1       1.812   8.735 -27.427  1.00  0.00     0.061 C 
BRANCH  26  27
HETATM   27  C   UNL     1       2.155   8.473 -25.959  1.00  0.00     0.002 C 
HETATM   28  C   UNL     1       1.455   9.458 -25.037  1.00  0.00     0.005 C 
ENDBRANCH  26  27
ENDBRANCH  24  26
ENDBRANCH   1  20
TORSDOF 8
ENDMDL
MODEL 10
REMARK VINA RESULT:      -7.0      3.957      7.499
REMARK  8 active torsions:
REMARK  status: ('A' for Active; 'I' for Inactive)
REMARK    1  A    between atoms: C_2  and  C_3 
REMARK    2  A    between atoms: C_3  and  C_4 
REMARK    3  A    between atoms: C_8  and  C_9 
REMARK       I    between atoms: C_9  and  N_10 
REMARK    4  A    between atoms: N_10  and  C_11 
REMARK    5  A    between atoms: N_10  and  C_17 
REMARK    6  A    between atoms: C_17  and  C_18 
REMARK    7  A    between atoms: C_18  and  O_19 
REMARK    8  A    between atoms: C_18  and  C_20 
ROOT
HETATM    1  C   UNL     1      -8.769   0.306 -32.869  1.00  0.00     0.272 C 
HETATM    2  N   UNL     1      -8.694   1.700 -32.675  1.00  0.00    -0.339 N 
HETATM    3  O   UNL     1      -9.861  -0.263 -32.821  1.00  0.00    -0.266 OA
ENDROOT
BRANCH   2   4
HETATM    4  C   UNL     1      -7.420   2.462 -32.573  1.00  0.00     0.087 C 
HETATM    5  C   UNL     1      -7.112   3.253 -33.855  1.00  0.00     0.025 C 
HETATM    6  C   UNL     1      -7.577   4.704 -33.837  1.00  0.00     0.002 C 
HETATM    7  C   UNL     1      -7.077   5.429 -32.598  1.00  0.00     0.000 C 
HETATM    8  C   UNL     1      -7.597   4.759 -31.337  1.00  0.00     0.002 C 
HETATM    9  C   UNL     1      -7.232   3.275 -31.272  1.00  0.00     0.025 C 
ENDBRANCH   2   4
BRANCH   2  10
HETATM   10  C   UNL     1      -9.986   2.377 -32.437  1.00  0.00     0.163 C 
BRANCH  10  11
HETATM   11  C   UNL     1     -10.782   2.743 -33.719  1.00  0.00     0.169 C 
BRANCH  11  12
HETATM   12  O   UNL     1     -10.234   2.197 -34.918  1.00  0.00    -0.389 OA
HETATM   13  H   UNL     1      -9.331   2.556 -35.033  1.00  0.00     0.210 HD
ENDBRANCH  11  12
BRANCH  11  14
HETATM   14  C   UNL     1     -12.216   2.256 -33.629  1.00  0.00    -0.028 A 
HETATM   15  C   UNL     1     -13.130   2.879 -32.767  1.00  0.00     0.010 A 
HETATM   16  C   UNL     1     -14.448   2.423 -32.681  1.00  0.00     0.001 A 
HETATM   17  C   UNL     1     -14.869   1.341 -33.452  1.00  0.00     0.000 A 
HETATM   18  C   UNL     1     -13.974   0.719 -34.320  1.00  0.00     0.001 A 
HETATM   19  C   UNL     1     -12.660   1.177 -34.413  1.00  0.00     0.010 A 
ENDBRANCH  11  14
ENDBRANCH  10  11
ENDBRANCH   2  10
BRANCH   1  20
HETATM   20  C   UNL     1      -7.570  -0.453 -33.101  1.00  0.00     0.119 A 
HETATM   21  N   UNL     1      -6.463  -0.483 -32.302  1.00  0.00    -0.273 N 
HETATM   22  N   UNL     1      -5.476  -1.271 -32.763  1.00  0.00    -0.179 NA
HETATM   23  H   UNL     1      -6.311   0.009 -31.429  1.00  0.00     0.189 HD
HETATM   24  C   UNL     1      -5.922  -1.679 -33.958  1.00  0.00     0.057 A 
HETATM   25  C   UNL     1      -7.218  -1.183 -34.220  1.00  0.00     0.065 A 
BRANCH  24  26
HETATM   26  C   UNL     1      -5.080  -2.536 -34.842  1.00  0.00     0.061 C 
BRANCH  26  27
HETATM   27  C   UNL     1      -5.319  -4.027 -34.595  1.00  0.00     0.002 C 
HETATM   28  C   UNL     1      -6.481  -4.551 -35.423  1.00  0.00     0.005 C 
ENDBRANCH  26  27
ENDBRANCH  24  26
ENDBRANCH   1  20
TORSDOF 8
ENDMDL
