MODEL 1
REMARK VINA RESULT:      -8.9      0.000      0.000
REMARK  7 active torsions:
REMARK  status: ('A' for Active; 'I' for Inactive)
REMARK    1  A    between atoms: C_4  and  C_5 
REMARK    2  A    between atoms: C_10  and  C_11 
REMARK       I    between atoms: C_11  and  N_12 
REMARK    3  A    between atoms: N_12  and  C_13 
REMARK    4  A    between atoms: C_13  and  C_14 
REMARK    5  A    between atoms: C_14  and  C_15 
REMARK    6  A    between atoms: C_15  and  N_16 
REMARK    7  A    between atoms: C_26  and  C_27 
ROOT
HETATM    1  C   UNL     1      -1.401   6.792 -30.793  1.00  0.00     0.125 C 
HETATM    2  N   UNL     1      -2.607   6.072 -30.367  1.00  0.00    -0.365 N 
HETATM    3  C   UNL     1      -3.158   5.109 -31.144  1.00  0.00     0.141 A 
HETATM    4  N   UNL     1      -2.487   4.604 -32.224  1.00  0.00    -0.238 N 
HETATM    5  N   UNL     1      -3.127   3.594 -32.846  1.00  0.00    -0.163 NA
HETATM    6  C   UNL     1      -4.305   3.503 -32.182  1.00  0.00     0.165 A 
HETATM    7  C   UNL     1      -4.345   4.424 -31.106  1.00  0.00     0.092 A 
HETATM    8 BR   UNL     1      -5.731   4.647 -29.866  1.00  0.00    -0.044 Br
HETATM    9  C   UNL     1      -1.191   5.084 -32.675  1.00  0.00     0.221 C 
HETATM   10  C   UNL     1      -0.466   5.806 -31.526  1.00  0.00     0.067 C 
HETATM   11  H   UNL     1      -3.185   6.583 -29.698  1.00  0.00     0.162 HD
ENDROOT
BRANCH   6  12
HETATM   12  C   UNL     1      -5.316   2.531 -32.613  1.00  0.00     0.273 C 
HETATM   13  N   UNL     1      -5.509   1.495 -31.719  1.00  0.00    -0.355 N 
HETATM   14  H   UNL     1      -4.859   1.494 -30.929  1.00  0.00     0.162 HD
HETATM   15  O   UNL     1      -5.977   2.602 -33.651  1.00  0.00    -0.266 OA
BRANCH  13  16
HETATM   16  C   UNL     1      -6.278   0.315 -32.028  1.00  0.00     0.124 C 
BRANCH  16  17
HETATM   17  C   UNL     1      -5.443  -0.842 -32.577  1.00  0.00     0.047 C 
BRANCH  17  18
HETATM   18  C   UNL     1      -5.426  -1.033 -34.094  1.00  0.00     0.236 C 
BRANCH  18  19
HETATM   19  N   UNL     1      -5.146  -2.444 -34.535  1.00  0.00    -0.067 N 
HETATM   20  H   UNL     1      -4.749  -2.385 -35.498  1.00  0.00     0.280 HD
HETATM   21  C   UNL     1      -4.184  -3.220 -33.655  1.00  0.00     0.261 C 
HETATM   22  C   UNL     1      -3.979  -4.629 -34.224  1.00  0.00     0.195 C 
HETATM   23  O   UNL     1      -5.225  -5.321 -34.349  1.00  0.00    -0.388 OA
HETATM   24  C   UNL     1      -6.112  -4.640 -35.246  1.00  0.00     0.195 C 
HETATM   25  C   UNL     1      -6.439  -3.238 -34.722  1.00  0.00     0.261 C 
ENDBRANCH  18  19
ENDBRANCH  17  18
ENDBRANCH  16  17
ENDBRANCH  13  16
ENDBRANCH   6  12
BRANCH   9  26
HETATM   26  C   UNL     1      -1.373   5.969 -33.889  1.00  0.00     0.409 C 
HETATM   27  F   UNL     1      -0.539   7.030 -33.893  1.00  0.00    -0.169 F 
HETATM   28  F   UNL     1      -1.128   5.266 -35.022  1.00  0.00    -0.169 F 
HETATM   29  F   UNL     1      -2.636   6.441 -33.991  1.00  0.00    -0.169 F 
ENDBRANCH   9  26
BRANCH   1  30
HETATM   30  C   UNL     1      -0.666   7.435 -29.642  1.00  0.00     0.005 A 
HETATM   31  S   UNL     1      -1.535   8.339 -28.469  1.00  0.00    -0.104 SA
HETATM   32  C   UNL     1      -0.111   8.706 -27.600  1.00  0.00     0.050 A 
HETATM   33  C   UNL     1       1.009   8.157 -28.184  1.00  0.00     0.008 A 
HETATM   34  C   UNL     1       0.689   7.424 -29.363  1.00  0.00     0.017 A 
ENDBRANCH   1  30
TORSDOF 7
ENDMDL
MODEL 2
REMARK VINA RESULT:      -8.4      2.316      3.561
REMARK  7 active torsions:
REMARK  status: ('A' for Active; 'I' for Inactive)
REMARK    1  A    between atoms: C_4  and  C_5 
REMARK    2  A    between atoms: C_10  and  C_11 
REMARK       I    between atoms: C_11  and  N_12 
REMARK    3  A    between atoms: N_12  and  C_13 
REMARK    4  A    between atoms: C_13  and  C_14 
REMARK    5  A    between atoms: C_14  and  C_15 
REMARK    6  A    between atoms: C_15  and  N_16 
REMARK    7  A    between atoms: C_26  and  C_27 
ROOT
HETATM    1  C   UNL     1      -1.369   6.697 -30.674  1.00  0.00     0.125 C 
HETATM    2  N   UNL     1      -2.549   5.894 -30.333  1.00  0.00    -0.365 N 
HETATM    3  C   UNL     1      -3.059   4.994 -31.207  1.00  0.00     0.141 A 
HETATM    4  N   UNL     1      -2.364   4.624 -32.326  1.00  0.00    -0.238 N 
HETATM    5  N   UNL     1      -2.962   3.659 -33.051  1.00  0.00    -0.163 NA
HETATM    6  C   UNL     1      -4.140   3.459 -32.411  1.00  0.00     0.165 A 
HETATM    7  C   UNL     1      -4.221   4.266 -31.249  1.00  0.00     0.092 A 
HETATM    8 BR   UNL     1      -5.621   4.314 -30.007  1.00  0.00    -0.044 Br
HETATM    9  C   UNL     1      -1.085   5.194 -32.715  1.00  0.00     0.221 C 
HETATM   10  C   UNL     1      -0.394   5.824 -31.493  1.00  0.00     0.067 C 
HETATM   11  H   UNL     1      -3.151   6.315 -29.623  1.00  0.00     0.162 HD
ENDROOT
BRANCH   6  12
HETATM   12  C   UNL     1      -5.111   2.498 -32.946  1.00  0.00     0.273 C 
HETATM   13  N   UNL     1      -4.799   1.181 -32.673  1.00  0.00    -0.355 N 
HETATM   14  H   UNL     1      -3.891   1.048 -32.222  1.00  0.00     0.162 HD
HETATM   15  O   UNL     1      -6.138   2.790 -33.562  1.00  0.00    -0.266 OA
BRANCH  13  16
HETATM   16  C   UNL     1      -5.477   0.063 -33.283  1.00  0.00     0.124 C 
BRANCH  16  17
HETATM   17  C   UNL     1      -6.441  -0.663 -32.345  1.00  0.00     0.047 C 
BRANCH  17  18
HETATM   18  C   UNL     1      -7.377   0.202 -31.499  1.00  0.00     0.236 C 
BRANCH  18  19
HETATM   19  N   UNL     1      -8.363   1.008 -32.298  1.00  0.00    -0.067 N 
HETATM   20  H   UNL     1      -7.819   1.502 -33.038  1.00  0.00     0.280 HD
HETATM   21  C   UNL     1      -9.474   0.211 -32.956  1.00  0.00     0.261 C 
HETATM   22  C   UNL     1     -10.394   1.149 -33.744  1.00  0.00     0.195 C 
HETATM   23  O   UNL     1     -10.934   2.171 -32.900  1.00  0.00    -0.388 OA
HETATM   24  C   UNL     1      -9.896   2.986 -32.340  1.00  0.00     0.195 C 
HETATM   25  C   UNL     1      -8.960   2.144 -31.466  1.00  0.00     0.261 C 
ENDBRANCH  18  19
ENDBRANCH  17  18
ENDBRANCH  16  17
ENDBRANCH  13  16
ENDBRANCH   6  12
BRANCH   9  26
HETATM   26  C   UNL     1      -1.292   6.188 -33.837  1.00  0.00     0.409 C 
HETATM   27  F   UNL     1      -2.531   6.723 -33.840  1.00  0.00    -0.169 F 
HETATM   28  F   UNL     1      -0.416   7.215 -33.720  1.00  0.00    -0.169 F 
HETATM   29  F   UNL     1      -1.082   5.636 -35.052  1.00  0.00    -0.169 F 
ENDBRANCH   9  26
BRANCH   1  30
HETATM   30  C   UNL     1      -0.665   7.248 -29.458  1.00  0.00     0.005 A 
HETATM   31  S   UNL     1      -1.564   7.620 -28.044  1.00  0.00    -0.104 SA
HETATM   32  C   UNL     1      -0.168   8.153 -27.216  1.00  0.00     0.050 A 
HETATM   33  C   UNL     1       0.964   8.055 -27.993  1.00  0.00     0.008 A 
HETATM   34  C   UNL     1       0.677   7.533 -29.287  1.00  0.00     0.017 A 
ENDBRANCH   1  30
TORSDOF 7
ENDMDL
MODEL 3
REMARK VINA RESULT:      -8.2      4.605      9.255
REMARK  7 active torsions:
REMARK  status: ('A' for Active; 'I' for Inactive)
REMARK    1  A    between atoms: C_4  and  C_5 
REMARK    2  A    between atoms: C_10  and  C_11 
REMARK       I    between atoms: C_11  and  N_12 
REMARK    3  A    between atoms: N_12  and  C_13 
REMARK    4  A    between atoms: C_13  and  C_14 
REMARK    5  A    between atoms: C_14  and  C_15 
REMARK    6  A    between atoms: C_15  and  N_16 
REMARK    7  A    between atoms: C_26  and  C_27 
ROOT
HETATM    1  C   UNL     1      -5.652  -1.405 -34.041  1.00  0.00     0.125 C 
HETATM    2  N   UNL     1      -4.974  -0.514 -33.092  1.00  0.00    -0.365 N 
HETATM    3  C   UNL     1      -5.591   0.589 -32.605  1.00  0.00     0.141 A 
HETATM    4  N   UNL     1      -6.934   0.783 -32.782  1.00  0.00    -0.238 N 
HETATM    5  N   UNL     1      -7.416   1.881 -32.168  1.00  0.00    -0.163 NA
HETATM    6  C   UNL     1      -6.313   2.466 -31.642  1.00  0.00     0.165 A 
HETATM    7  C   UNL     1      -5.163   1.675 -31.884  1.00  0.00     0.092 A 
HETATM    8 BR   UNL     1      -3.413   2.026 -31.317  1.00  0.00    -0.044 Br
HETATM    9  C   UNL     1      -7.791  -0.108 -33.546  1.00  0.00     0.221 C 
HETATM   10  C   UNL     1      -7.144  -1.499 -33.655  1.00  0.00     0.067 C 
HETATM   11  H   UNL     1      -3.954  -0.552 -33.138  1.00  0.00     0.162 HD
ENDROOT
BRANCH   6  12
HETATM   12  C   UNL     1      -6.429   3.742 -30.928  1.00  0.00     0.273 C 
HETATM   13  N   UNL     1      -6.500   4.842 -31.760  1.00  0.00    -0.355 N 
HETATM   14  H   UNL     1      -6.366   4.629 -32.752  1.00  0.00     0.162 HD
HETATM   15  O   UNL     1      -6.491   3.871 -29.703  1.00  0.00    -0.266 OA
BRANCH  13  16
HETATM   16  C   UNL     1      -6.392   6.201 -31.289  1.00  0.00     0.124 C 
BRANCH  16  17
HETATM   17  C   UNL     1      -5.010   6.821 -31.498  1.00  0.00     0.047 C 
BRANCH  17  18
HETATM   18  C   UNL     1      -3.799   5.991 -31.068  1.00  0.00     0.236 C 
BRANCH  18  19
HETATM   19  N   UNL     1      -2.704   5.917 -32.097  1.00  0.00    -0.067 N 
HETATM   20  H   UNL     1      -1.989   5.254 -31.728  1.00  0.00     0.280 HD
HETATM   21  C   UNL     1      -3.138   5.455 -33.475  1.00  0.00     0.261 C 
HETATM   22  C   UNL     1      -1.928   5.414 -34.415  1.00  0.00     0.195 C 
HETATM   23  O   UNL     1      -1.286   6.691 -34.487  1.00  0.00    -0.388 OA
HETATM   24  C   UNL     1      -0.797   7.101 -33.203  1.00  0.00     0.195 C 
HETATM   25  C   UNL     1      -1.951   7.243 -32.205  1.00  0.00     0.261 C 
ENDBRANCH  18  19
ENDBRANCH  17  18
ENDBRANCH  16  17
ENDBRANCH  13  16
ENDBRANCH   6  12
BRANCH   9  26
HETATM   26  C   UNL     1      -8.078   0.503 -34.901  1.00  0.00     0.409 C 
HETATM   27  F   UNL     1      -7.058   1.258 -35.361  1.00  0.00    -0.169 F 
HETATM   28  F   UNL     1      -8.297  -0.471 -35.816  1.00  0.00    -0.169 F 
HETATM   29  F   UNL     1      -9.186   1.277 -34.886  1.00  0.00    -0.169 F 
ENDBRANCH   9  26
BRANCH   1  30
HETATM   30  C   UNL     1      -5.046  -2.787 -34.082  1.00  0.00     0.005 A 
HETATM   31  S   UNL     1      -5.890  -4.070 -34.847  1.00  0.00    -0.104 SA
HETATM   32  C   UNL     1      -4.654  -5.191 -34.482  1.00  0.00     0.050 A 
HETATM   33  C   UNL     1      -3.616  -4.609 -33.790  1.00  0.00     0.008 A 
HETATM   34  C   UNL     1      -3.842  -3.222 -33.558  1.00  0.00     0.017 A 
ENDBRANCH   1  30
TORSDOF 7
ENDMDL
MODEL 4
REMARK VINA RESULT:      -8.2      4.440      9.291
REMARK  7 active torsions:
REMARK  status: ('A' for Active; 'I' for Inactive)
REMARK    1  A    between atoms: C_4  and  C_5 
REMARK    2  A    between atoms: C_10  and  C_11 
REMARK       I    between atoms: C_11  and  N_12 
REMARK    3  A    between atoms: N_12  and  C_13 
REMARK    4  A    between atoms: C_13  and  C_14 
REMARK    5  A    between atoms: C_14  and  C_15 
REMARK    6  A    between atoms: C_15  and  N_16 
REMARK    7  A    between atoms: C_26  and  C_27 
ROOT
HETATM    1  C   UNL     1      -5.570  -1.586 -33.083  1.00  0.00     0.125 C 
HETATM    2  N   UNL     1      -6.770  -0.742 -33.136  1.00  0.00    -0.365 N 
HETATM    3  C   UNL     1      -6.722   0.566 -32.789  1.00  0.00     0.141 A 
HETATM    4  N   UNL     1      -5.525   1.205 -32.612  1.00  0.00    -0.238 N 
HETATM    5  N   UNL     1      -5.639   2.522 -32.352  1.00  0.00    -0.163 NA
HETATM    6  C   UNL     1      -6.977   2.720 -32.275  1.00  0.00     0.165 A 
HETATM    7  C   UNL     1      -7.678   1.522 -32.558  1.00  0.00     0.092 A 
HETATM    8 BR   UNL     1      -9.535   1.292 -32.629  1.00  0.00    -0.044 Br
HETATM    9  C   UNL     1      -4.231   0.551 -32.705  1.00  0.00     0.221 C 
HETATM   10  C   UNL     1      -4.352  -0.746 -33.524  1.00  0.00     0.067 C 
HETATM   11  H   UNL     1      -7.649  -1.259 -33.065  1.00  0.00     0.162 HD
ENDROOT
BRANCH   6  12
HETATM   12  C   UNL     1      -7.504   4.050 -31.945  1.00  0.00     0.273 C 
HETATM   13  N   UNL     1      -6.952   5.069 -32.696  1.00  0.00    -0.355 N 
HETATM   14  H   UNL     1      -6.188   4.775 -33.308  1.00  0.00     0.162 HD
HETATM   15  O   UNL     1      -8.377   4.283 -31.106  1.00  0.00    -0.266 OA
BRANCH  13  16
HETATM   16  C   UNL     1      -7.146   6.467 -32.398  1.00  0.00     0.124 C 
BRANCH  16  17
HETATM   17  C   UNL     1      -5.886   7.174 -31.899  1.00  0.00     0.047 C 
BRANCH  17  18
HETATM   18  C   UNL     1      -4.757   6.294 -31.361  1.00  0.00     0.236 C 
BRANCH  18  19
HETATM   19  N   UNL     1      -3.458   6.431 -32.106  1.00  0.00    -0.067 N 
HETATM   20  H   UNL     1      -2.786   5.766 -31.666  1.00  0.00     0.280 HD
HETATM   21  C   UNL     1      -3.530   6.143 -33.594  1.00  0.00     0.261 C 
HETATM   22  C   UNL     1      -2.142   6.306 -34.224  1.00  0.00     0.195 C 
HETATM   23  O   UNL     1      -1.618   7.617 -33.986  1.00  0.00    -0.388 OA
HETATM   24  C   UNL     1      -1.467   7.870 -32.583  1.00  0.00     0.195 C 
HETATM   25  C   UNL     1      -2.822   7.802 -31.871  1.00  0.00     0.261 C 
ENDBRANCH  18  19
ENDBRANCH  17  18
ENDBRANCH  16  17
ENDBRANCH  13  16
ENDBRANCH   6  12
BRANCH   9  26
HETATM   26  C   UNL     1      -3.684   0.307 -31.315  1.00  0.00     0.409 C 
HETATM   27  F   UNL     1      -2.912  -0.798 -31.243  1.00  0.00    -0.169 F 
HETATM   28  F   UNL     1      -2.919   1.354 -30.922  1.00  0.00    -0.169 F 
HETATM   29  F   UNL     1      -4.668   0.179 -30.396  1.00  0.00    -0.169 F 
ENDBRANCH   9  26
BRANCH   1  30
HETATM   30  C   UNL     1      -5.683  -2.818 -33.948  1.00  0.00     0.005 A 
HETATM   31  S   UNL     1      -4.336  -3.868 -34.122  1.00  0.00    -0.104 SA
HETATM   32  C   UNL     1      -5.197  -4.909 -35.167  1.00  0.00     0.050 A 
HETATM   33  C   UNL     1      -6.485  -4.473 -35.386  1.00  0.00     0.008 A 
HETATM   34  C   UNL     1      -6.765  -3.267 -34.683  1.00  0.00     0.017 A 
ENDBRANCH   1  30
TORSDOF 7
ENDMDL
MODEL 5
REMARK VINA RESULT:      -8.1      4.392      9.454
REMARK  7 active torsions:
REMARK  status: ('A' for Active; 'I' for Inactive)
REMARK    1  A    between atoms: C_4  and  C_5 
REMARK    2  A    between atoms: C_10  and  C_11 
REMARK       I    between atoms: C_11  and  N_12 
REMARK    3  A    between atoms: N_12  and  C_13 
REMARK    4  A    between atoms: C_13  and  C_14 
REMARK    5  A    between atoms: C_14  and  C_15 
REMARK    6  A    between atoms: C_15  and  N_16 
REMARK    7  A    between atoms: C_26  and  C_27 
ROOT
HETATM    1  C   UNL     1      -5.615  -1.350 -34.026  1.00  0.00     0.125 C 
HETATM    2  N   UNL     1      -4.901  -0.485 -33.080  1.00  0.00    -0.365 N 
HETATM    3  C   UNL     1      -5.472   0.643 -32.595  1.00  0.00     0.141 A 
HETATM    4  N   UNL     1      -6.807   0.890 -32.771  1.00  0.00    -0.238 N 
HETATM    5  N   UNL     1      -7.244   2.008 -32.159  1.00  0.00    -0.163 NA
HETATM    6  C   UNL     1      -6.117   2.549 -31.635  1.00  0.00     0.165 A 
HETATM    7  C   UNL     1      -5.001   1.712 -31.878  1.00  0.00     0.092 A 
HETATM    8 BR   UNL     1      -3.237   1.995 -31.312  1.00  0.00    -0.044 Br
HETATM    9  C   UNL     1      -7.700   0.033 -33.532  1.00  0.00     0.221 C 
HETATM   10  C   UNL     1      -7.109  -1.384 -33.639  1.00  0.00     0.067 C 
HETATM   11  H   UNL     1      -3.883  -0.564 -33.127  1.00  0.00     0.162 HD
ENDROOT
BRANCH   6  12
HETATM   12  C   UNL     1      -6.182   3.831 -30.924  1.00  0.00     0.273 C 
HETATM   13  N   UNL     1      -6.161   4.932 -31.758  1.00  0.00    -0.355 N 
HETATM   14  H   UNL     1      -6.008   4.711 -32.744  1.00  0.00     0.162 HD
HETATM   15  O   UNL     1      -6.276   3.965 -29.702  1.00  0.00    -0.266 OA
BRANCH  13  16
HETATM   16  C   UNL     1      -5.989   6.283 -31.281  1.00  0.00     0.124 C 
BRANCH  16  17
HETATM   17  C   UNL     1      -4.531   6.741 -31.234  1.00  0.00     0.047 C 
BRANCH  17  18
HETATM   18  C   UNL     1      -3.808   6.634 -29.890  1.00  0.00     0.236 C 
BRANCH  18  19
HETATM   19  N   UNL     1      -2.380   6.173 -29.992  1.00  0.00    -0.067 N 
HETATM   20  H   UNL     1      -2.270   5.386 -29.317  1.00  0.00     0.280 HD
HETATM   21  C   UNL     1      -1.945   5.705 -31.368  1.00  0.00     0.261 C 
HETATM   22  C   UNL     1      -0.481   5.254 -31.326  1.00  0.00     0.195 C 
HETATM   23  O   UNL     1       0.369   6.304 -30.855  1.00  0.00    -0.388 OA
HETATM   24  C   UNL     1       0.021   6.697 -29.521  1.00  0.00     0.195 C 
HETATM   25  C   UNL     1      -1.412   7.237 -29.473  1.00  0.00     0.261 C 
ENDBRANCH  18  19
ENDBRANCH  17  18
ENDBRANCH  16  17
ENDBRANCH  13  16
ENDBRANCH   6  12
BRANCH   9  26
HETATM   26  C   UNL     1      -7.964   0.651 -34.888  1.00  0.00     0.409 C 
HETATM   27  F   UNL     1      -6.915   1.362 -35.352  1.00  0.00    -0.169 F 
HETATM   28  F   UNL     1      -8.225  -0.315 -35.800  1.00  0.00    -0.169 F 
HETATM   29  F   UNL     1      -9.039   1.471 -34.873  1.00  0.00    -0.169 F 
ENDBRANCH   9  26
BRANCH   1  30
HETATM   30  C   UNL     1      -5.064  -2.755 -34.065  1.00  0.00     0.005 A 
HETATM   31  S   UNL     1      -5.945  -3.999 -34.855  1.00  0.00    -0.104 SA
HETATM   32  C   UNL     1      -4.763  -5.171 -34.473  1.00  0.00     0.050 A 
HETATM   33  C   UNL     1      -3.715  -4.636 -33.757  1.00  0.00     0.008 A 
HETATM   34  C   UNL     1      -3.889  -3.242 -33.521  1.00  0.00     0.017 A 
ENDBRANCH   1  30
TORSDOF 7
ENDMDL
MODEL 6
REMARK VINA RESULT:      -8.0      4.804      9.918
REMARK  7 active torsions:
REMARK  status: ('A' for Active; 'I' for Inactive)
REMARK    1  A    between atoms: C_4  and  C_5 
REMARK    2  A    between atoms: C_10  and  C_11 
REMARK       I    between atoms: C_11  and  N_12 
REMARK    3  A    between atoms: N_12  and  C_13 
REMARK    4  A    between atoms: C_13  and  C_14 
REMARK    5  A    between atoms: C_14  and  C_15 
REMARK    6  A    between atoms: C_15  and  N_16 
REMARK    7  A    between atoms: C_26  and  C_27 
ROOT
HETATM    1  C   UNL     1      -9.130   0.843 -33.023  1.00  0.00     0.125 C 
HETATM    2  N   UNL     1      -8.406   1.906 -32.315  1.00  0.00    -0.365 N 
HETATM    3  C   UNL     1      -7.057   2.000 -32.384  1.00  0.00     0.141 A 
HETATM    4  N   UNL     1      -6.345   1.271 -33.297  1.00  0.00    -0.238 N 
HETATM    5  N   UNL     1      -5.024   1.536 -33.302  1.00  0.00    -0.163 NA
HETATM    6  C   UNL     1      -4.868   2.416 -32.283  1.00  0.00     0.165 A 
HETATM    7  C   UNL     1      -6.121   2.735 -31.703  1.00  0.00     0.092 A 
HETATM    8 BR   UNL     1      -6.440   3.938 -30.303  1.00  0.00    -0.044 Br
HETATM    9  C   UNL     1      -6.936   0.303 -34.206  1.00  0.00     0.221 C 
HETATM   10  C   UNL     1      -8.437   0.590 -34.380  1.00  0.00     0.067 C 
HETATM   11  H   UNL     1      -8.905   2.286 -31.508  1.00  0.00     0.162 HD
ENDROOT
BRANCH   6  12
HETATM   12  C   UNL     1      -3.530   2.906 -31.934  1.00  0.00     0.273 C 
HETATM   13  N   UNL     1      -3.184   4.081 -32.571  1.00  0.00    -0.355 N 
HETATM   14  H   UNL     1      -3.863   4.399 -33.267  1.00  0.00     0.162 HD
HETATM   15  O   UNL     1      -2.761   2.370 -31.134  1.00  0.00    -0.266 OA
BRANCH  13  16
HETATM   16  C   UNL     1      -1.848   4.626 -32.559  1.00  0.00     0.124 C 
BRANCH  16  17
HETATM   17  C   UNL     1      -1.634   5.716 -31.509  1.00  0.00     0.047 C 
BRANCH  17  18
HETATM   18  C   UNL     1      -0.505   5.502 -30.500  1.00  0.00     0.236 C 
BRANCH  18  19
HETATM   19  N   UNL     1      -0.841   5.930 -29.098  1.00  0.00    -0.067 N 
HETATM   20  H   UNL     1      -1.514   5.228 -28.722  1.00  0.00     0.280 HD
HETATM   21  C   UNL     1       0.339   6.035 -28.150  1.00  0.00     0.261 C 
HETATM   22  C   UNL     1      -0.145   6.466 -26.761  1.00  0.00     0.195 C 
HETATM   23  O   UNL     1      -0.858   7.706 -26.824  1.00  0.00    -0.388 OA
HETATM   24  C   UNL     1      -2.023   7.595 -27.651  1.00  0.00     0.195 C 
HETATM   25  C   UNL     1      -1.635   7.237 -29.089  1.00  0.00     0.261 C 
ENDBRANCH  18  19
ENDBRANCH  17  18
ENDBRANCH  16  17
ENDBRANCH  13  16
ENDBRANCH   6  12
BRANCH   9  26
HETATM   26  C   UNL     1      -6.671  -1.098 -33.697  1.00  0.00     0.409 C 
HETATM   27  F   UNL     1      -7.676  -1.954 -33.974  1.00  0.00    -0.169 F 
HETATM   28  F   UNL     1      -5.550  -1.600 -34.269  1.00  0.00    -0.169 F 
HETATM   29  F   UNL     1      -6.469  -1.124 -32.360  1.00  0.00    -0.169 F 
ENDBRANCH   9  26
BRANCH   1  30
HETATM   30  C   UNL     1     -10.586   1.174 -33.245  1.00  0.00     0.005 A 
HETATM   31  S   UNL     1     -11.120   2.802 -33.136  1.00  0.00    -0.104 SA
HETATM   32  C   UNL     1     -12.736   2.364 -33.471  1.00  0.00     0.050 A 
HETATM   33  C   UNL     1     -12.877   1.008 -33.662  1.00  0.00     0.008 A 
HETATM   34  C   UNL     1     -11.636   0.321 -33.531  1.00  0.00     0.017 A 
ENDBRANCH   1  30
TORSDOF 7
ENDMDL
MODEL 7
REMARK VINA RESULT:      -8.0      1.842      2.365
REMARK  7 active torsions:
REMARK  status: ('A' for Active; 'I' for Inactive)
REMARK    1  A    between atoms: C_4  and  C_5 
REMARK    2  A    between atoms: C_10  and  C_11 
REMARK       I    between atoms: C_11  and  N_12 
REMARK    3  A    between atoms: N_12  and  C_13 
REMARK    4  A    between atoms: C_13  and  C_14 
REMARK    5  A    between atoms: C_14  and  C_15 
REMARK    6  A    between atoms: C_15  and  N_16 
REMARK    7  A    between atoms: C_26  and  C_27 
ROOT
HETATM    1  C   UNL     1      -1.592   6.520 -31.207  1.00  0.00     0.125 C 
HETATM    2  N   UNL     1      -3.026   6.372 -30.928  1.00  0.00    -0.365 N 
HETATM    3  C   UNL     1      -3.846   5.734 -31.797  1.00  0.00     0.141 A 
HETATM    4  N   UNL     1      -3.340   4.999 -32.834  1.00  0.00    -0.238 N 
HETATM    5  N   UNL     1      -4.276   4.355 -33.559  1.00  0.00    -0.163 NA
HETATM    6  C   UNL     1      -5.445   4.766 -33.011  1.00  0.00     0.165 A 
HETATM    7  C   UNL     1      -5.208   5.613 -31.901  1.00  0.00     0.092 A 
HETATM    8 BR   UNL     1      -6.493   6.394 -30.785  1.00  0.00    -0.044 Br
HETATM    9  C   UNL     1      -1.924   4.890 -33.141  1.00  0.00     0.221 C 
HETATM   10  C   UNL     1      -1.086   5.235 -31.897  1.00  0.00     0.067 C 
HETATM   11  H   UNL     1      -3.403   7.077 -30.292  1.00  0.00     0.162 HD
ENDROOT
BRANCH   6  12
HETATM   12  C   UNL     1      -6.720   4.311 -33.579  1.00  0.00     0.273 C 
HETATM   13  N   UNL     1      -7.037   3.005 -33.260  1.00  0.00    -0.355 N 
HETATM   14  H   UNL     1      -6.302   2.504 -32.755  1.00  0.00     0.162 HD
HETATM   15  O   UNL     1      -7.484   5.000 -34.258  1.00  0.00    -0.266 OA
BRANCH  13  16
HETATM   16  C   UNL     1      -8.116   2.277 -33.882  1.00  0.00     0.124 C 
BRANCH  16  17
HETATM   17  C   UNL     1      -7.681   0.962 -34.531  1.00  0.00     0.047 C 
BRANCH  17  18
HETATM   18  C   UNL     1      -7.984  -0.327 -33.766  1.00  0.00     0.236 C 
BRANCH  18  19
HETATM   19  N   UNL     1      -6.772  -1.168 -33.470  1.00  0.00    -0.067 N 
HETATM   20  H   UNL     1      -7.078  -1.916 -32.811  1.00  0.00     0.280 HD
HETATM   21  C   UNL     1      -6.119  -1.815 -34.677  1.00  0.00     0.261 C 
HETATM   22  C   UNL     1      -4.912  -2.648 -34.233  1.00  0.00     0.195 C 
HETATM   23  O   UNL     1      -3.969  -1.846 -33.514  1.00  0.00    -0.388 OA
HETATM   24  C   UNL     1      -4.551  -1.297 -32.325  1.00  0.00     0.195 C 
HETATM   25  C   UNL     1      -5.730  -0.383 -32.672  1.00  0.00     0.261 C 
ENDBRANCH  18  19
ENDBRANCH  17  18
ENDBRANCH  16  17
ENDBRANCH  13  16
ENDBRANCH   6  12
BRANCH   9  26
HETATM   26  C   UNL     1      -1.592   5.775 -34.323  1.00  0.00     0.409 C 
HETATM   27  F   UNL     1      -1.369   5.074 -35.455  1.00  0.00    -0.169 F 
HETATM   28  F   UNL     1      -2.617   6.623 -34.576  1.00  0.00    -0.169 F 
HETATM   29  F   UNL     1      -0.502   6.541 -34.096  1.00  0.00    -0.169 F 
ENDBRANCH   9  26
BRANCH   1  30
HETATM   30  C   UNL     1      -0.779   6.788 -29.964  1.00  0.00     0.005 A 
HETATM   31  S   UNL     1       0.349   5.620 -29.410  1.00  0.00    -0.104 SA
HETATM   32  C   UNL     1       0.799   6.588 -28.077  1.00  0.00     0.050 A 
HETATM   33  C   UNL     1       0.108   7.779 -28.045  1.00  0.00     0.008 A 
HETATM   34  C   UNL     1      -0.803   7.894 -29.134  1.00  0.00     0.017 A 
ENDBRANCH   1  30
TORSDOF 7
ENDMDL
MODEL 8
REMARK VINA RESULT:      -7.9      4.473      9.515
REMARK  7 active torsions:
REMARK  status: ('A' for Active; 'I' for Inactive)
REMARK    1  A    between atoms: C_4  and  C_5 
REMARK    2  A    between atoms: C_10  and  C_11 
REMARK       I    between atoms: C_11  and  N_12 
REMARK    3  A    between atoms: N_12  and  C_13 
REMARK    4  A    between atoms: C_13  and  C_14 
REMARK    5  A    between atoms: C_14  and  C_15 
REMARK    6  A    between atoms: C_15  and  N_16 
REMARK    7  A    between atoms: C_26  and  C_27 
ROOT
HETATM    1  C   UNL     1      -6.326   0.296 -33.135  1.00  0.00     0.125 C 
HETATM    2  N   UNL     1      -5.259   1.234 -32.768  1.00  0.00    -0.365 N 
HETATM    3  C   UNL     1      -5.474   2.219 -31.863  1.00  0.00     0.141 A 
HETATM    4  N   UNL     1      -6.600   2.230 -31.086  1.00  0.00    -0.238 N 
HETATM    5  N   UNL     1      -6.630   3.223 -30.176  1.00  0.00    -0.163 NA
HETATM    6  C   UNL     1      -5.507   3.935 -30.440  1.00  0.00     0.165 A 
HETATM    7  C   UNL     1      -4.759   3.323 -31.476  1.00  0.00     0.092 A 
HETATM    8 BR   UNL     1      -3.113   3.893 -32.164  1.00  0.00    -0.044 Br
HETATM    9  C   UNL     1      -7.676   1.260 -31.198  1.00  0.00     0.221 C 
HETATM   10  C   UNL     1      -7.163  -0.022 -31.878  1.00  0.00     0.067 C 
HETATM   11  H   UNL     1      -4.533   1.341 -33.478  1.00  0.00     0.162 HD
ENDROOT
BRANCH   6  12
HETATM   12  C   UNL     1      -5.214   5.152 -29.675  1.00  0.00     0.273 C 
HETATM   13  N   UNL     1      -5.335   4.994 -28.308  1.00  0.00    -0.355 N 
HETATM   14  H   UNL     1      -5.701   4.083 -28.021  1.00  0.00     0.162 HD
HETATM   15  O   UNL     1      -4.863   6.231 -30.158  1.00  0.00    -0.266 OA
BRANCH  13  16
HETATM   16  C   UNL     1      -5.317   6.096 -27.378  1.00  0.00     0.124 C 
BRANCH  16  17
HETATM   17  C   UNL     1      -3.944   6.359 -26.758  1.00  0.00     0.047 C 
BRANCH  17  18
HETATM   18  C   UNL     1      -3.053   7.393 -27.447  1.00  0.00     0.236 C 
BRANCH  18  19
HETATM   19  N   UNL     1      -2.012   6.802 -28.357  1.00  0.00    -0.067 N 
HETATM   20  H   UNL     1      -2.317   5.828 -28.570  1.00  0.00     0.280 HD
HETATM   21  C   UNL     1      -1.794   7.544 -29.663  1.00  0.00     0.261 C 
HETATM   22  C   UNL     1      -0.723   6.830 -30.495  1.00  0.00     0.195 C 
HETATM   23  O   UNL     1       0.504   6.713 -29.766  1.00  0.00    -0.388 OA
HETATM   24  C   UNL     1       0.328   5.941 -28.572  1.00  0.00     0.195 C 
HETATM   25  C   UNL     1      -0.678   6.617 -27.634  1.00  0.00     0.261 C 
ENDBRANCH  18  19
ENDBRANCH  17  18
ENDBRANCH  16  17
ENDBRANCH  13  16
ENDBRANCH   6  12
BRANCH   9  26
HETATM   26  C   UNL     1      -8.842   1.879 -31.938  1.00  0.00     0.409 C 
HETATM   27  F   UNL     1      -9.700   2.522 -31.119  1.00  0.00    -0.169 F 
HETATM   28  F   UNL     1      -8.395   2.787 -32.839  1.00  0.00    -0.169 F 
HETATM   29  F   UNL     1      -9.550   0.960 -32.633  1.00  0.00    -0.169 F 
ENDBRANCH   9  26
BRANCH   1  30
HETATM   30  C   UNL     1      -5.799  -0.984 -33.737  1.00  0.00     0.005 A 
HETATM   31  S   UNL     1      -4.210  -1.515 -33.362  1.00  0.00    -0.104 SA
HETATM   32  C   UNL     1      -4.365  -2.895 -34.357  1.00  0.00     0.050 A 
HETATM   33  C   UNL     1      -5.598  -2.958 -34.968  1.00  0.00     0.008 A 
HETATM   34  C   UNL     1      -6.425  -1.855 -34.610  1.00  0.00     0.017 A 
ENDBRANCH   1  30
TORSDOF 7
ENDMDL
MODEL 9
REMARK VINA RESULT:      -7.9      3.533      4.738
REMARK  7 active torsions:
REMARK  status: ('A' for Active; 'I' for Inactive)
REMARK    1  A    between atoms: C_4  and  C_5 
REMARK    2  A    between atoms: C_10  and  C_11 
REMARK       I    between atoms: C_11  and  N_12 
REMARK    3  A    between atoms: N_12  and  C_13 
REMARK    4  A    between atoms: C_13  and  C_14 
REMARK    5  A    between atoms: C_14  and  C_15 
REMARK    6  A    between atoms: C_15  and  N_16 
REMARK    7  A    between atoms: C_26  and  C_27 
ROOT
HETATM    1  C   UNL     1      -1.783   6.383 -31.024  1.00  0.00     0.125 C 
HETATM    2  N   UNL     1      -2.913   5.598 -30.512  1.00  0.00    -0.365 N 
HETATM    3  C   UNL     1      -3.473   4.612 -31.253  1.00  0.00     0.141 A 
HETATM    4  N   UNL     1      -2.864   4.149 -32.387  1.00  0.00    -0.238 N 
HETATM    5  N   UNL     1      -3.498   3.111 -32.966  1.00  0.00    -0.163 NA
HETATM    6  C   UNL     1      -4.614   2.955 -32.214  1.00  0.00     0.165 A 
HETATM    7  C   UNL     1      -4.617   3.866 -31.129  1.00  0.00     0.092 A 
HETATM    8 BR   UNL     1      -5.911   4.010 -29.782  1.00  0.00    -0.044 Br
HETATM    9  C   UNL     1      -1.634   4.698 -32.933  1.00  0.00     0.221 C 
HETATM   10  C   UNL     1      -0.859   5.451 -31.837  1.00  0.00     0.067 C 
HETATM   11  H   UNL     1      -3.463   6.075 -29.795  1.00  0.00     0.162 HD
ENDROOT
BRANCH   6  12
HETATM   12  C   UNL     1      -5.604   1.933 -32.573  1.00  0.00     0.273 C 
HETATM   13  N   UNL     1      -6.906   2.394 -32.571  1.00  0.00    -0.355 N 
HETATM   14  H   UNL     1      -7.013   3.353 -32.229  1.00  0.00     0.162 HD
HETATM   15  O   UNL     1      -5.346   0.768 -32.883  1.00  0.00    -0.266 OA
BRANCH  13  16
HETATM   16  C   UNL     1      -8.054   1.527 -32.670  1.00  0.00     0.124 C 
BRANCH  16  17
HETATM   17  C   UNL     1      -9.348   2.150 -32.145  1.00  0.00     0.047 C 
BRANCH  17  18
HETATM   18  C   UNL     1     -10.378   2.600 -33.182  1.00  0.00     0.236 C 
BRANCH  18  19
HETATM   19  N   UNL     1     -11.772   2.098 -32.925  1.00  0.00    -0.067 N 
HETATM   20  H   UNL     1     -11.749   1.602 -32.009  1.00  0.00     0.280 HD
HETATM   21  C   UNL     1     -12.849   3.166 -32.879  1.00  0.00     0.261 C 
HETATM   22  C   UNL     1     -14.211   2.521 -32.599  1.00  0.00     0.195 C 
HETATM   23  O   UNL     1     -14.523   1.528 -33.581  1.00  0.00    -0.388 OA
HETATM   24  C   UNL     1     -13.557   0.470 -33.576  1.00  0.00     0.195 C 
HETATM   25  C   UNL     1     -12.164   1.007 -33.922  1.00  0.00     0.261 C 
ENDBRANCH  18  19
ENDBRANCH  17  18
ENDBRANCH  16  17
ENDBRANCH  13  16
ENDBRANCH   6  12
BRANCH   9  26
HETATM   26  C   UNL     1      -1.956   5.579 -34.121  1.00  0.00     0.409 C 
HETATM   27  F   UNL     1      -1.098   6.613 -34.254  1.00  0.00    -0.169 F 
HETATM   28  F   UNL     1      -1.894   4.860 -35.267  1.00  0.00    -0.169 F 
HETATM   29  F   UNL     1      -3.205   6.092 -34.052  1.00  0.00    -0.169 F 
ENDBRANCH   9  26
BRANCH   1  30
HETATM   30  C   UNL     1      -0.994   7.057 -29.927  1.00  0.00     0.005 A 
HETATM   31  S   UNL     1      -1.815   7.813 -28.623  1.00  0.00    -0.104 SA
HETATM   32  C   UNL     1      -0.348   8.300 -27.896  1.00  0.00     0.050 A 
HETATM   33  C   UNL     1       0.749   7.901 -28.624  1.00  0.00     0.008 A 
HETATM   34  C   UNL     1       0.377   7.184 -29.798  1.00  0.00     0.017 A 
ENDBRANCH   1  30
TORSDOF 7
ENDMDL
MODEL 10
REMARK VINA RESULT:      -7.7      4.471      9.580
REMARK  7 active torsions:
REMARK  status: ('A' for Active; 'I' for Inactive)
REMARK    1  A    between atoms: C_4  and  C_5 
REMARK    2  A    between atoms: C_10  and  C_11 
REMARK       I    between atoms: C_11  and  N_12 
REMARK    3  A    between atoms: N_12  and  C_13 
REMARK    4  A    between atoms: C_13  and  C_14 
REMARK    5  A    between atoms: C_14  and  C_15 
REMARK    6  A    between atoms: C_15  and  N_16 
REMARK    7  A    between atoms: C_26  and  C_27 
ROOT
HETATM    1  C   UNL     1      -5.233  -0.990 -33.717  1.00  0.00     0.125 C 
HETATM    2  N   UNL     1      -4.612   0.075 -32.921  1.00  0.00    -0.365 N 
HETATM    3  C   UNL     1      -5.300   1.194 -32.592  1.00  0.00     0.141 A 
HETATM    4  N   UNL     1      -6.654   1.270 -32.773  1.00  0.00    -0.238 N 
HETATM    5  N   UNL     1      -7.207   2.411 -32.320  1.00  0.00    -0.163 NA
HETATM    6  C   UNL     1      -6.143   3.141 -31.904  1.00  0.00     0.165 A 
HETATM    7  C   UNL     1      -4.943   2.401 -32.047  1.00  0.00     0.092 A 
HETATM    8 BR   UNL     1      -3.218   2.949 -31.566  1.00  0.00    -0.044 Br
HETATM    9  C   UNL     1      -7.453   0.220 -33.383  1.00  0.00     0.221 C 
HETATM   10  C   UNL     1      -6.713  -1.126 -33.297  1.00  0.00     0.067 C 
HETATM   11  H   UNL     1      -3.592   0.099 -32.978  1.00  0.00     0.162 HD
ENDROOT
BRANCH   6  12
HETATM   12  C   UNL     1      -6.343   4.498 -31.384  1.00  0.00     0.273 C 
HETATM   13  N   UNL     1      -6.363   4.569 -30.005  1.00  0.00    -0.355 N 
HETATM   14  H   UNL     1      -6.332   3.660 -29.536  1.00  0.00     0.162 HD
HETATM   15  O   UNL     1      -6.458   5.515 -32.071  1.00  0.00    -0.266 OA
BRANCH  13  16
HETATM   16  C   UNL     1      -6.766   5.747 -29.277  1.00  0.00     0.124 C 
BRANCH  16  17
HETATM   17  C   UNL     1      -5.734   6.228 -28.257  1.00  0.00     0.047 C 
BRANCH  17  18
HETATM   18  C   UNL     1      -4.495   6.941 -28.800  1.00  0.00     0.236 C 
BRANCH  18  19
HETATM   19  N   UNL     1      -3.225   6.620 -28.060  1.00  0.00    -0.067 N 
HETATM   20  H   UNL     1      -3.109   5.585 -28.096  1.00  0.00     0.280 HD
HETATM   21  C   UNL     1      -1.971   7.274 -28.610  1.00  0.00     0.261 C 
HETATM   22  C   UNL     1      -0.756   6.854 -27.775  1.00  0.00     0.195 C 
HETATM   23  O   UNL     1      -0.938   7.186 -26.395  1.00  0.00    -0.388 OA
HETATM   24  C   UNL     1      -2.073   6.507 -25.842  1.00  0.00     0.195 C 
HETATM   25  C   UNL     1      -3.358   6.921 -26.567  1.00  0.00     0.261 C 
ENDBRANCH  18  19
ENDBRANCH  17  18
ENDBRANCH  16  17
ENDBRANCH  13  16
ENDBRANCH   6  12
BRANCH   9  26
HETATM   26  C   UNL     1      -7.790   0.603 -34.808  1.00  0.00     0.409 C 
HETATM   27  F   UNL     1      -6.807   1.306 -35.408  1.00  0.00    -0.169 F 
HETATM   28  F   UNL     1      -7.996  -0.509 -35.555  1.00  0.00    -0.169 F 
HETATM   29  F   UNL     1      -8.923   1.336 -34.885  1.00  0.00    -0.169 F 
ENDBRANCH   9  26
BRANCH   1  30
HETATM   30  C   UNL     1      -4.533  -2.319 -33.564  1.00  0.00     0.005 A 
HETATM   31  S   UNL     1      -3.476  -2.582 -32.238  1.00  0.00    -0.104 SA
HETATM   32  C   UNL     1      -3.117  -4.170 -32.753  1.00  0.00     0.050 A 
HETATM   33  C   UNL     1      -3.783  -4.502 -33.912  1.00  0.00     0.008 A 
HETATM   34  C   UNL     1      -4.600  -3.433 -34.380  1.00  0.00     0.017 A 
ENDBRANCH   1  30
TORSDOF 7
ENDMDL
