MODEL 1
REMARK VINA RESULT:      -9.1      0.000      0.000
REMARK  8 active torsions:
REMARK  status: ('A' for Active; 'I' for Inactive)
REMARK    1  A    between atoms: C_5  and  C_6 
REMARK       I    between atoms: C_6  and  N_7 
REMARK    2  A    between atoms: N_7  and  N_8 
REMARK       I    between atoms: N_8  and  C_9 
REMARK    3  A    between atoms: C_9  and  C_10 
REMARK    4  A    between atoms: C_10  and  S_11 
REMARK    5  A    between atoms: S_11  and  C_12 
REMARK    6  A    between atoms: C_14  and  C_15 
REMARK    7  A    between atoms: C_15  and  N_16 
REMARK    8  A    between atoms: N_16  and  C_17 
ROOT
HETATM    1  S   UNL     1      -2.242   4.548 -33.491  1.00  0.00    -0.081 SA
ENDROOT
BRANCH   1   2
HETATM    2  C   UNL     1      -3.855   4.642 -32.661  1.00  0.00     0.187 C 
BRANCH   2   3
HETATM    3  C   UNL     1      -4.758   3.465 -32.996  1.00  0.00     0.245 C 
HETATM    4  N   UNL     1      -4.459   2.326 -32.269  1.00  0.00    -0.267 N 
HETATM    5  H   UNL     1      -3.564   2.209 -31.790  1.00  0.00     0.190 HD
HETATM    6  O   UNL     1      -5.668   3.486 -33.827  1.00  0.00    -0.271 OA
BRANCH   4   7
HETATM    7  N   UNL     1      -5.066   1.124 -32.676  1.00  0.00    -0.263 N 
HETATM    8  C   UNL     1      -4.226   0.057 -32.934  1.00  0.00     0.270 C 
HETATM    9  O   UNL     1      -3.022   0.110 -32.687  1.00  0.00    -0.266 OA
HETATM   10  H   UNL     1      -5.983   1.217 -33.110  1.00  0.00     0.190 HD
BRANCH   8  11
HETATM   11  C   UNL     1      -4.833  -1.151 -33.561  1.00  0.00     0.033 A 
HETATM   12  C   UNL     1      -4.137  -2.358 -33.708  1.00  0.00     0.017 A 
HETATM   13  C   UNL     1      -4.759  -3.459 -34.307  1.00  0.00     0.007 A 
HETATM   14  C   UNL     1      -6.078  -3.371 -34.766  1.00  0.00    -0.062 A 
HETATM   15  C   UNL     1      -6.735  -4.540 -35.440  1.00  0.00     0.048 C 
HETATM   16  C   UNL     1      -6.762  -2.157 -34.641  1.00  0.00     0.007 A 
HETATM   17  C   UNL     1      -6.145  -1.056 -34.042  1.00  0.00     0.017 A 
ENDBRANCH   8  11
ENDBRANCH   4   7
ENDBRANCH   2   3
ENDBRANCH   1   2
BRANCH   1  18
HETATM   18  C   UNL     1      -1.215   5.133 -32.240  1.00  0.00     0.185 A 
HETATM   19  N   UNL     1      -0.845   4.511 -31.151  1.00  0.00    -0.204 NA
HETATM   20  C   UNL     1      -0.019   5.433 -30.542  1.00  0.00     0.166 A 
HETATM   21  N   UNL     1       0.143   6.579 -31.226  1.00  0.00    -0.155 NA
HETATM   22  N   UNL     1      -0.649   6.368 -32.293  1.00  0.00    -0.254 N 
HETATM   23  H   UNL     1      -0.709   7.053 -33.040  1.00  0.00     0.191 HD
BRANCH  20  24
HETATM   24  C   UNL     1       0.622   5.177 -29.200  1.00  0.00     0.202 C 
BRANCH  24  25
HETATM   25  N   UNL     1      -0.032   5.810 -28.048  1.00  0.00    -0.383 N 
HETATM   26  H   UNL     1      -0.107   5.169 -27.262  1.00  0.00     0.160 HD
BRANCH  25  27
HETATM   27  C   UNL     1       0.300   7.108 -27.664  1.00  0.00     0.028 A 
HETATM   28  C   UNL     1      -0.550   8.210 -27.828  1.00  0.00     0.036 A 
HETATM   29  C   UNL     1      -0.201   9.487 -27.356  1.00  0.00    -0.060 A 
HETATM   30  C   UNL     1      -1.119  10.657 -27.548  1.00  0.00     0.048 C 
HETATM   31  C   UNL     1       1.005   9.655 -26.668  1.00  0.00     0.007 A 
HETATM   32  C   UNL     1       1.843   8.564 -26.455  1.00  0.00     0.003 A 
HETATM   33  C   UNL     1       1.483   7.304 -26.939  1.00  0.00     0.029 A 
ENDBRANCH  25  27
ENDBRANCH  24  25
ENDBRANCH  20  24
ENDBRANCH   1  18
TORSDOF 8
ENDMDL
MODEL 2
REMARK VINA RESULT:      -9.1      2.214     11.104
REMARK  8 active torsions:
REMARK  status: ('A' for Active; 'I' for Inactive)
REMARK    1  A    between atoms: C_5  and  C_6 
REMARK       I    between atoms: C_6  and  N_7 
REMARK    2  A    between atoms: N_7  and  N_8 
REMARK       I    between atoms: N_8  and  C_9 
REMARK    3  A    between atoms: C_9  and  C_10 
REMARK    4  A    between atoms: C_10  and  S_11 
REMARK    5  A    between atoms: S_11  and  C_12 
REMARK    6  A    between atoms: C_14  and  C_15 
REMARK    7  A    between atoms: C_15  and  N_16 
REMARK    8  A    between atoms: N_16  and  C_17 
ROOT
HETATM    1  S   UNL     1      -3.993   5.131 -34.254  1.00  0.00    -0.081 SA
ENDROOT
BRANCH   1   2
HETATM    2  C   UNL     1      -2.700   4.250 -33.331  1.00  0.00     0.187 C 
BRANCH   2   3
HETATM    3  C   UNL     1      -1.852   5.179 -32.476  1.00  0.00     0.245 C 
HETATM    4  N   UNL     1      -1.973   4.932 -31.120  1.00  0.00    -0.267 N 
HETATM    5  H   UNL     1      -2.753   4.396 -30.735  1.00  0.00     0.190 HD
HETATM    6  O   UNL     1      -1.123   6.072 -32.912  1.00  0.00    -0.271 OA
BRANCH   4   7
HETATM    7  N   UNL     1      -1.427   5.885 -30.240  1.00  0.00    -0.263 N 
HETATM    8  C   UNL     1      -0.189   5.595 -29.699  1.00  0.00     0.270 C 
HETATM    9  O   UNL     1       0.468   4.624 -30.072  1.00  0.00    -0.266 OA
HETATM   10  H   UNL     1      -2.099   6.494 -29.777  1.00  0.00     0.190 HD
BRANCH   8  11
HETATM   11  C   UNL     1       0.305   6.489 -28.612  1.00  0.00     0.033 A 
HETATM   12  C   UNL     1       0.124   6.200 -27.253  1.00  0.00     0.017 A 
HETATM   13  C   UNL     1       0.608   7.079 -26.278  1.00  0.00     0.007 A 
HETATM   14  C   UNL     1       1.276   8.253 -26.644  1.00  0.00    -0.062 A 
HETATM   15  C   UNL     1       1.765   9.214 -25.600  1.00  0.00     0.048 C 
HETATM   16  C   UNL     1       1.432   8.551 -28.002  1.00  0.00     0.007 A 
HETATM   17  C   UNL     1       0.952   7.676 -28.978  1.00  0.00     0.017 A 
ENDBRANCH   8  11
ENDBRANCH   4   7
ENDBRANCH   2   3
ENDBRANCH   1   2
BRANCH   1  18
HETATM   18  C   UNL     1      -5.362   4.159 -33.874  1.00  0.00     0.185 A 
HETATM   19  N   UNL     1      -5.373   2.929 -33.432  1.00  0.00    -0.204 NA
HETATM   20  C   UNL     1      -6.720   2.674 -33.284  1.00  0.00     0.166 A 
HETATM   21  N   UNL     1      -7.525   3.704 -33.599  1.00  0.00    -0.155 NA
HETATM   22  N   UNL     1      -6.632   4.629 -33.992  1.00  0.00    -0.254 N 
HETATM   23  H   UNL     1      -6.933   5.563 -34.258  1.00  0.00     0.191 HD
BRANCH  20  24
HETATM   24  C   UNL     1      -7.240   1.330 -32.834  1.00  0.00     0.202 C 
BRANCH  24  25
HETATM   25  N   UNL     1      -7.443   0.335 -33.894  1.00  0.00    -0.383 N 
HETATM   26  H   UNL     1      -7.612   0.777 -34.794  1.00  0.00     0.160 HD
BRANCH  25  27
HETATM   27  C   UNL     1      -6.622  -0.788 -33.984  1.00  0.00     0.028 A 
HETATM   28  C   UNL     1      -7.029  -2.007 -34.543  1.00  0.00     0.036 A 
HETATM   29  C   UNL     1      -6.141  -3.089 -34.680  1.00  0.00    -0.060 A 
HETATM   30  C   UNL     1      -6.597  -4.389 -35.272  1.00  0.00     0.048 C 
HETATM   31  C   UNL     1      -4.809  -2.932 -34.288  1.00  0.00     0.007 A 
HETATM   32  C   UNL     1      -4.373  -1.715 -33.772  1.00  0.00     0.003 A 
HETATM   33  C   UNL     1      -5.271  -0.654 -33.635  1.00  0.00     0.029 A 
ENDBRANCH  25  27
ENDBRANCH  24  25
ENDBRANCH  20  24
ENDBRANCH   1  18
TORSDOF 8
ENDMDL
MODEL 3
REMARK VINA RESULT:      -8.9      4.832      8.561
REMARK  8 active torsions:
REMARK  status: ('A' for Active; 'I' for Inactive)
REMARK    1  A    between atoms: C_5  and  C_6 
REMARK       I    between atoms: C_6  and  N_7 
REMARK    2  A    between atoms: N_7  and  N_8 
REMARK       I    between atoms: N_8  and  C_9 
REMARK    3  A    between atoms: C_9  and  C_10 
REMARK    4  A    between atoms: C_10  and  S_11 
REMARK    5  A    between atoms: S_11  and  C_12 
REMARK    6  A    between atoms: C_14  and  C_15 
REMARK    7  A    between atoms: C_15  and  N_16 
REMARK    8  A    between atoms: N_16  and  C_17 
ROOT
HETATM    1  S   UNL     1      -3.338   4.980 -32.239  1.00  0.00    -0.081 SA
ENDROOT
BRANCH   1   2
HETATM    2  C   UNL     1      -4.078   4.917 -33.897  1.00  0.00     0.187 C 
BRANCH   2   3
HETATM    3  C   UNL     1      -5.578   4.665 -33.861  1.00  0.00     0.245 C 
HETATM    4  N   UNL     1      -5.903   3.320 -33.837  1.00  0.00    -0.267 N 
HETATM    5  H   UNL     1      -5.234   2.597 -34.108  1.00  0.00     0.190 HD
HETATM    6  O   UNL     1      -6.443   5.543 -33.857  1.00  0.00    -0.271 OA
BRANCH   4   7
HETATM    7  N   UNL     1      -7.251   2.979 -34.050  1.00  0.00    -0.263 N 
HETATM    8  C   UNL     1      -7.917   2.381 -32.996  1.00  0.00     0.270 C 
HETATM    9  O   UNL     1      -7.404   2.280 -31.883  1.00  0.00    -0.266 OA
HETATM   10  H   UNL     1      -7.522   2.835 -35.022  1.00  0.00     0.190 HD
BRANCH   8  11
HETATM   11  C   UNL     1      -9.274   1.829 -33.274  1.00  0.00     0.033 A 
HETATM   12  C   UNL     1      -9.705   0.594 -32.771  1.00  0.00     0.017 A 
HETATM   13  C   UNL     1     -10.990   0.126 -33.067  1.00  0.00     0.007 A 
HETATM   14  C   UNL     1     -11.858   0.880 -33.866  1.00  0.00    -0.062 A 
HETATM   15  C   UNL     1     -13.224   0.364 -34.213  1.00  0.00     0.048 C 
HETATM   16  C   UNL     1     -11.415   2.101 -34.386  1.00  0.00     0.007 A 
HETATM   17  C   UNL     1     -10.133   2.572 -34.092  1.00  0.00     0.017 A 
ENDBRANCH   8  11
ENDBRANCH   4   7
ENDBRANCH   2   3
ENDBRANCH   1   2
BRANCH   1  18
HETATM   18  C   UNL     1      -3.629   3.369 -31.709  1.00  0.00     0.185 A 
HETATM   19  N   UNL     1      -3.129   2.263 -32.195  1.00  0.00    -0.204 NA
HETATM   20  C   UNL     1      -3.682   1.297 -31.379  1.00  0.00     0.166 A 
HETATM   21  N   UNL     1      -4.480   1.773 -30.407  1.00  0.00    -0.155 NA
HETATM   22  N   UNL     1      -4.445   3.095 -30.656  1.00  0.00    -0.254 N 
HETATM   23  H   UNL     1      -4.928   3.751 -30.050  1.00  0.00     0.191 HD
BRANCH  20  24
HETATM   24  C   UNL     1      -3.429  -0.175 -31.590  1.00  0.00     0.202 C 
BRANCH  24  25
HETATM   25  N   UNL     1      -3.338  -0.616 -32.987  1.00  0.00    -0.383 N 
HETATM   26  H   UNL     1      -2.478  -1.128 -33.162  1.00  0.00     0.160 HD
BRANCH  25  27
HETATM   27  C   UNL     1      -4.443  -1.168 -33.634  1.00  0.00     0.028 A 
HETATM   28  C   UNL     1      -4.550  -2.524 -33.971  1.00  0.00     0.036 A 
HETATM   29  C   UNL     1      -5.716  -3.048 -34.556  1.00  0.00    -0.060 A 
HETATM   30  C   UNL     1      -5.810  -4.501 -34.917  1.00  0.00     0.048 C 
HETATM   31  C   UNL     1      -6.810  -2.206 -34.770  1.00  0.00     0.007 A 
HETATM   32  C   UNL     1      -6.741  -0.866 -34.403  1.00  0.00     0.003 A 
HETATM   33  C   UNL     1      -5.571  -0.360 -33.830  1.00  0.00     0.029 A 
ENDBRANCH  25  27
ENDBRANCH  24  25
ENDBRANCH  20  24
ENDBRANCH   1  18
TORSDOF 8
ENDMDL
MODEL 4
REMARK VINA RESULT:      -8.9      2.001      3.225
REMARK  8 active torsions:
REMARK  status: ('A' for Active; 'I' for Inactive)
REMARK    1  A    between atoms: C_5  and  C_6 
REMARK       I    between atoms: C_6  and  N_7 
REMARK    2  A    between atoms: N_7  and  N_8 
REMARK       I    between atoms: N_8  and  C_9 
REMARK    3  A    between atoms: C_9  and  C_10 
REMARK    4  A    between atoms: C_10  and  S_11 
REMARK    5  A    between atoms: S_11  and  C_12 
REMARK    6  A    between atoms: C_14  and  C_15 
REMARK    7  A    between atoms: C_15  and  N_16 
REMARK    8  A    between atoms: N_16  and  C_17 
ROOT
HETATM    1  S   UNL     1      -6.158   5.878 -32.756  1.00  0.00    -0.081 SA
ENDROOT
BRANCH   1   2
HETATM    2  C   UNL     1      -5.975   4.640 -31.439  1.00  0.00     0.187 C 
BRANCH   2   3
HETATM    3  C   UNL     1      -6.407   3.249 -31.877  1.00  0.00     0.245 C 
HETATM    4  N   UNL     1      -5.383   2.516 -32.450  1.00  0.00    -0.267 N 
HETATM    5  H   UNL     1      -4.531   2.958 -32.801  1.00  0.00     0.190 HD
HETATM    6  O   UNL     1      -7.545   2.790 -31.753  1.00  0.00    -0.271 OA
BRANCH   4   7
HETATM    7  N   UNL     1      -5.734   1.321 -33.106  1.00  0.00    -0.263 N 
HETATM    8  C   UNL     1      -5.320   0.142 -32.514  1.00  0.00     0.270 C 
HETATM    9  O   UNL     1      -4.796   0.127 -31.402  1.00  0.00    -0.266 OA
HETATM   10  H   UNL     1      -5.908   1.401 -34.106  1.00  0.00     0.190 HD
BRANCH   8  11
HETATM   11  C   UNL     1      -5.502  -1.113 -33.299  1.00  0.00     0.033 A 
HETATM   12  C   UNL     1      -4.437  -1.962 -33.626  1.00  0.00     0.017 A 
HETATM   13  C   UNL     1      -4.668  -3.126 -34.367  1.00  0.00     0.007 A 
HETATM   14  C   UNL     1      -5.961  -3.456 -34.791  1.00  0.00    -0.062 A 
HETATM   15  C   UNL     1      -6.206  -4.686 -35.616  1.00  0.00     0.048 C 
HETATM   16  C   UNL     1      -7.018  -2.593 -34.485  1.00  0.00     0.007 A 
HETATM   17  C   UNL     1      -6.791  -1.431 -33.744  1.00  0.00     0.017 A 
ENDBRANCH   8  11
ENDBRANCH   4   7
ENDBRANCH   2   3
ENDBRANCH   1   2
BRANCH   1  18
HETATM   18  C   UNL     1      -4.546   5.933 -33.356  1.00  0.00     0.185 A 
HETATM   19  N   UNL     1      -3.515   6.538 -32.827  1.00  0.00    -0.204 NA
HETATM   20  C   UNL     1      -2.499   6.229 -33.707  1.00  0.00     0.166 A 
HETATM   21  N   UNL     1      -2.867   5.445 -34.736  1.00  0.00    -0.155 NA
HETATM   22  N   UNL     1      -4.182   5.291 -34.498  1.00  0.00    -0.254 N 
HETATM   23  H   UNL     1      -4.752   4.696 -35.092  1.00  0.00     0.191 HD
BRANCH  20  24
HETATM   24  C   UNL     1      -1.096   6.759 -33.537  1.00  0.00     0.202 C 
BRANCH  24  25
HETATM   25  N   UNL     1      -0.826   7.460 -32.276  1.00  0.00    -0.383 N 
HETATM   26  H   UNL     1      -1.618   8.028 -31.987  1.00  0.00     0.160 HD
BRANCH  25  27
HETATM   27  C   UNL     1      -0.209   6.803 -31.213  1.00  0.00     0.028 A 
HETATM   28  C   UNL     1      -0.018   7.376 -29.949  1.00  0.00     0.036 A 
HETATM   29  C   UNL     1       0.542   6.647 -28.885  1.00  0.00    -0.060 A 
HETATM   30  C   UNL     1       0.746   7.280 -27.541  1.00  0.00     0.048 C 
HETATM   31  C   UNL     1       0.880   5.305 -29.081  1.00  0.00     0.007 A 
HETATM   32  C   UNL     1       0.657   4.704 -30.316  1.00  0.00     0.003 A 
HETATM   33  C   UNL     1       0.108   5.446 -31.364  1.00  0.00     0.029 A 
ENDBRANCH  25  27
ENDBRANCH  24  25
ENDBRANCH  20  24
ENDBRANCH   1  18
TORSDOF 8
ENDMDL
MODEL 5
REMARK VINA RESULT:      -8.8      2.360     11.458
REMARK  8 active torsions:
REMARK  status: ('A' for Active; 'I' for Inactive)
REMARK    1  A    between atoms: C_5  and  C_6 
REMARK       I    between atoms: C_6  and  N_7 
REMARK    2  A    between atoms: N_7  and  N_8 
REMARK       I    between atoms: N_8  and  C_9 
REMARK    3  A    between atoms: C_9  and  C_10 
REMARK    4  A    between atoms: C_10  and  S_11 
REMARK    5  A    between atoms: S_11  and  C_12 
REMARK    6  A    between atoms: C_14  and  C_15 
REMARK    7  A    between atoms: C_15  and  N_16 
REMARK    8  A    between atoms: N_16  and  C_17 
ROOT
HETATM    1  S   UNL     1      -6.010   4.866 -31.741  1.00  0.00    -0.081 SA
ENDROOT
BRANCH   1   2
HETATM    2  C   UNL     1      -4.411   5.296 -32.487  1.00  0.00     0.187 C 
BRANCH   2   3
HETATM    3  C   UNL     1      -3.572   6.201 -31.596  1.00  0.00     0.245 C 
HETATM    4  N   UNL     1      -2.667   5.506 -30.813  1.00  0.00    -0.267 N 
HETATM    5  H   UNL     1      -2.759   4.503 -30.640  1.00  0.00     0.190 HD
HETATM    6  O   UNL     1      -3.664   7.429 -31.548  1.00  0.00    -0.271 OA
BRANCH   4   7
HETATM    7  N   UNL     1      -2.022   6.219 -29.786  1.00  0.00    -0.263 N 
HETATM    8  C   UNL     1      -0.641   6.257 -29.827  1.00  0.00     0.270 C 
HETATM    9  O   UNL     1      -0.011   5.813 -30.785  1.00  0.00    -0.266 OA
HETATM   10  H   UNL     1      -2.548   6.317 -28.919  1.00  0.00     0.190 HD
BRANCH   8  11
HETATM   11  C   UNL     1       0.059   6.828 -28.641  1.00  0.00     0.033 A 
HETATM   12  C   UNL     1      -0.150   6.355 -27.338  1.00  0.00     0.017 A 
HETATM   13  C   UNL     1       0.535   6.932 -26.263  1.00  0.00     0.007 A 
HETATM   14  C   UNL     1       1.434   7.984 -26.472  1.00  0.00    -0.062 A 
HETATM   15  C   UNL     1       2.144   8.626 -25.316  1.00  0.00     0.048 C 
HETATM   16  C   UNL     1       1.622   8.470 -27.770  1.00  0.00     0.007 A 
HETATM   17  C   UNL     1       0.941   7.896 -28.846  1.00  0.00     0.017 A 
ENDBRANCH   8  11
ENDBRANCH   4   7
ENDBRANCH   2   3
ENDBRANCH   1   2
BRANCH   1  18
HETATM   18  C   UNL     1      -5.941   3.149 -31.829  1.00  0.00     0.185 A 
HETATM   19  N   UNL     1      -5.169   2.417 -32.588  1.00  0.00    -0.204 NA
HETATM   20  C   UNL     1      -5.521   1.132 -32.228  1.00  0.00     0.166 A 
HETATM   21  N   UNL     1      -6.460   1.056 -31.268  1.00  0.00    -0.155 NA
HETATM   22  N   UNL     1      -6.724   2.357 -31.050  1.00  0.00    -0.254 N 
HETATM   23  H   UNL     1      -7.380   2.640 -30.327  1.00  0.00     0.191 HD
BRANCH  20  24
HETATM   24  C   UNL     1      -4.918  -0.083 -32.887  1.00  0.00     0.202 C 
BRANCH  24  25
HETATM   25  N   UNL     1      -5.703  -0.675 -33.978  1.00  0.00    -0.383 N 
HETATM   26  H   UNL     1      -5.688  -0.090 -34.809  1.00  0.00     0.160 HD
BRANCH  25  27
HETATM   27  C   UNL     1      -5.608  -2.036 -34.268  1.00  0.00     0.028 A 
HETATM   28  C   UNL     1      -4.482  -2.817 -33.978  1.00  0.00     0.036 A 
HETATM   29  C   UNL     1      -4.462  -4.202 -34.221  1.00  0.00    -0.060 A 
HETATM   30  C   UNL     1      -3.245  -5.021 -33.912  1.00  0.00     0.048 C 
HETATM   31  C   UNL     1      -5.608  -4.822 -34.727  1.00  0.00     0.007 A 
HETATM   32  C   UNL     1      -6.753  -4.072 -34.980  1.00  0.00     0.003 A 
HETATM   33  C   UNL     1      -6.751  -2.695 -34.741  1.00  0.00     0.029 A 
ENDBRANCH  25  27
ENDBRANCH  24  25
ENDBRANCH  20  24
ENDBRANCH   1  18
TORSDOF 8
ENDMDL
MODEL 6
REMARK VINA RESULT:      -8.8      7.041      8.543
REMARK  8 active torsions:
REMARK  status: ('A' for Active; 'I' for Inactive)
REMARK    1  A    between atoms: C_5  and  C_6 
REMARK       I    between atoms: C_6  and  N_7 
REMARK    2  A    between atoms: N_7  and  N_8 
REMARK       I    between atoms: N_8  and  C_9 
REMARK    3  A    between atoms: C_9  and  C_10 
REMARK    4  A    between atoms: C_10  and  S_11 
REMARK    5  A    between atoms: S_11  and  C_12 
REMARK    6  A    between atoms: C_14  and  C_15 
REMARK    7  A    between atoms: C_15  and  N_16 
REMARK    8  A    between atoms: N_16  and  C_17 
ROOT
HETATM    1  S   UNL     1     -12.105   6.165 -33.666  1.00  0.00    -0.081 SA
ENDROOT
BRANCH   1   2
HETATM    2  C   UNL     1     -12.681   4.819 -34.740  1.00  0.00     0.187 C 
BRANCH   2   3
HETATM    3  C   UNL     1     -11.554   3.903 -35.190  1.00  0.00     0.245 C 
HETATM    4  N   UNL     1     -11.796   2.568 -34.920  1.00  0.00    -0.267 N 
HETATM    5  H   UNL     1     -12.502   2.273 -34.242  1.00  0.00     0.190 HD
HETATM    6  O   UNL     1     -10.515   4.277 -35.740  1.00  0.00    -0.271 OA
BRANCH   4   7
HETATM    7  N   UNL     1     -10.721   1.674 -35.070  1.00  0.00    -0.263 N 
HETATM    8  C   UNL     1     -10.090   1.257 -33.913  1.00  0.00     0.270 C 
HETATM    9  O   UNL     1     -10.531   1.540 -32.800  1.00  0.00    -0.266 OA
HETATM   10  H   UNL     1     -10.250   1.697 -35.973  1.00  0.00     0.190 HD
BRANCH   8  11
HETATM   11  C   UNL     1      -8.827   0.480 -34.068  1.00  0.00     0.033 A 
HETATM   12  C   UNL     1      -7.947   0.672 -35.142  1.00  0.00     0.017 A 
HETATM   13  C   UNL     1      -6.777  -0.090 -35.236  1.00  0.00     0.007 A 
HETATM   14  C   UNL     1      -6.470  -1.049 -34.264  1.00  0.00    -0.062 A 
HETATM   15  C   UNL     1      -5.234  -1.891 -34.381  1.00  0.00     0.048 C 
HETATM   16  C   UNL     1      -7.364  -1.256 -33.207  1.00  0.00     0.007 A 
HETATM   17  C   UNL     1      -8.532  -0.496 -33.109  1.00  0.00     0.017 A 
ENDBRANCH   8  11
ENDBRANCH   4   7
ENDBRANCH   2   3
ENDBRANCH   1   2
BRANCH   1  18
HETATM   18  C   UNL     1     -11.437   5.259 -32.365  1.00  0.00     0.185 A 
HETATM   19  N   UNL     1     -10.177   5.134 -32.040  1.00  0.00    -0.204 NA
HETATM   20  C   UNL     1     -10.232   4.327 -30.922  1.00  0.00     0.166 A 
HETATM   21  N   UNL     1     -11.474   3.975 -30.545  1.00  0.00    -0.155 NA
HETATM   22  N   UNL     1     -12.219   4.565 -31.496  1.00  0.00    -0.254 N 
HETATM   23  H   UNL     1     -13.234   4.520 -31.464  1.00  0.00     0.191 HD
BRANCH  20  24
HETATM   24  C   UNL     1      -8.990   3.857 -30.206  1.00  0.00     0.202 C 
BRANCH  24  25
HETATM   25  N   UNL     1      -8.531   2.504 -30.542  1.00  0.00    -0.383 N 
HETATM   26  H   UNL     1      -9.271   1.954 -30.970  1.00  0.00     0.160 HD
BRANCH  25  27
HETATM   27  C   UNL     1      -7.286   2.299 -31.137  1.00  0.00     0.028 A 
HETATM   28  C   UNL     1      -6.386   1.304 -30.736  1.00  0.00     0.036 A 
HETATM   29  C   UNL     1      -5.174   1.088 -31.415  1.00  0.00    -0.060 A 
HETATM   30  C   UNL     1      -4.219   0.022 -30.966  1.00  0.00     0.048 C 
HETATM   31  C   UNL     1      -4.878   1.857 -32.544  1.00  0.00     0.007 A 
HETATM   32  C   UNL     1      -5.779   2.821 -32.986  1.00  0.00     0.003 A 
HETATM   33  C   UNL     1      -6.975   3.028 -32.292  1.00  0.00     0.029 A 
ENDBRANCH  25  27
ENDBRANCH  24  25
ENDBRANCH  20  24
ENDBRANCH   1  18
TORSDOF 8
ENDMDL
MODEL 7
REMARK VINA RESULT:      -8.7      5.407      7.142
REMARK  8 active torsions:
REMARK  status: ('A' for Active; 'I' for Inactive)
REMARK    1  A    between atoms: C_5  and  C_6 
REMARK       I    between atoms: C_6  and  N_7 
REMARK    2  A    between atoms: N_7  and  N_8 
REMARK       I    between atoms: N_8  and  C_9 
REMARK    3  A    between atoms: C_9  and  C_10 
REMARK    4  A    between atoms: C_10  and  S_11 
REMARK    5  A    between atoms: S_11  and  C_12 
REMARK    6  A    between atoms: C_14  and  C_15 
REMARK    7  A    between atoms: C_15  and  N_16 
REMARK    8  A    between atoms: N_16  and  C_17 
ROOT
HETATM    1  S   UNL     1     -11.974   3.273 -33.583  1.00  0.00    -0.081 SA
ENDROOT
BRANCH   1   2
HETATM    2  C   UNL     1     -11.578   1.819 -34.596  1.00  0.00     0.187 C 
BRANCH   2   3
HETATM    3  C   UNL     1     -10.567   0.897 -33.930  1.00  0.00     0.245 C 
HETATM    4  N   UNL     1      -9.296   1.007 -34.466  1.00  0.00    -0.267 N 
HETATM    5  H   UNL     1      -9.129   1.431 -35.381  1.00  0.00     0.190 HD
HETATM    6  O   UNL     1     -10.819   0.118 -33.008  1.00  0.00    -0.271 OA
BRANCH   4   7
HETATM    7  N   UNL     1      -8.353   0.032 -34.093  1.00  0.00    -0.263 N 
HETATM    8  C   UNL     1      -7.240  -0.101 -34.902  1.00  0.00     0.270 C 
HETATM    9  O   UNL     1      -7.013   0.685 -35.821  1.00  0.00    -0.266 OA
HETATM   10  H   UNL     1      -8.710  -0.733 -33.522  1.00  0.00     0.190 HD
BRANCH   8  11
HETATM   11  C   UNL     1      -6.342  -1.261 -34.639  1.00  0.00     0.033 A 
HETATM   12  C   UNL     1      -6.649  -2.565 -35.050  1.00  0.00     0.017 A 
HETATM   13  C   UNL     1      -5.768  -3.615 -34.773  1.00  0.00     0.007 A 
HETATM   14  C   UNL     1      -4.572  -3.380 -34.085  1.00  0.00    -0.062 A 
HETATM   15  C   UNL     1      -3.641  -4.510 -33.756  1.00  0.00     0.048 C 
HETATM   16  C   UNL     1      -4.279  -2.081 -33.654  1.00  0.00     0.007 A 
HETATM   17  C   UNL     1      -5.156  -1.030 -33.931  1.00  0.00     0.017 A 
ENDBRANCH   8  11
ENDBRANCH   4   7
ENDBRANCH   2   3
ENDBRANCH   1   2
BRANCH   1  18
HETATM   18  C   UNL     1     -10.497   4.147 -33.702  1.00  0.00     0.185 A 
HETATM   19  N   UNL     1      -9.467   4.092 -32.898  1.00  0.00    -0.204 NA
HETATM   20  C   UNL     1      -8.579   4.969 -33.486  1.00  0.00     0.166 A 
HETATM   21  N   UNL     1      -9.019   5.536 -34.623  1.00  0.00    -0.155 NA
HETATM   22  N   UNL     1     -10.253   5.010 -34.724  1.00  0.00    -0.254 N 
HETATM   23  H   UNL     1     -10.842   5.216 -35.525  1.00  0.00     0.191 HD
BRANCH  20  24
HETATM   24  C   UNL     1      -7.235   5.283 -32.876  1.00  0.00     0.202 C 
BRANCH  24  25
HETATM   25  N   UNL     1      -6.149   5.558 -33.826  1.00  0.00    -0.383 N 
HETATM   26  H   UNL     1      -6.151   6.530 -34.124  1.00  0.00     0.160 HD
BRANCH  25  27
HETATM   27  C   UNL     1      -4.867   5.058 -33.607  1.00  0.00     0.028 A 
HETATM   28  C   UNL     1      -3.749   5.420 -34.371  1.00  0.00     0.036 A 
HETATM   29  C   UNL     1      -2.462   4.946 -34.065  1.00  0.00    -0.060 A 
HETATM   30  C   UNL     1      -1.278   5.338 -34.899  1.00  0.00     0.048 C 
HETATM   31  C   UNL     1      -2.284   4.126 -32.947  1.00  0.00     0.007 A 
HETATM   32  C   UNL     1      -3.373   3.791 -32.148  1.00  0.00     0.003 A 
HETATM   33  C   UNL     1      -4.647   4.264 -32.473  1.00  0.00     0.029 A 
ENDBRANCH  25  27
ENDBRANCH  24  25
ENDBRANCH  20  24
ENDBRANCH   1  18
TORSDOF 8
ENDMDL
MODEL 8
REMARK VINA RESULT:      -8.7      4.010      7.808
REMARK  8 active torsions:
REMARK  status: ('A' for Active; 'I' for Inactive)
REMARK    1  A    between atoms: C_5  and  C_6 
REMARK       I    between atoms: C_6  and  N_7 
REMARK    2  A    between atoms: N_7  and  N_8 
REMARK       I    between atoms: N_8  and  C_9 
REMARK    3  A    between atoms: C_9  and  C_10 
REMARK    4  A    between atoms: C_10  and  S_11 
REMARK    5  A    between atoms: S_11  and  C_12 
REMARK    6  A    between atoms: C_14  and  C_15 
REMARK    7  A    between atoms: C_15  and  N_16 
REMARK    8  A    between atoms: N_16  and  C_17 
ROOT
HETATM    1  S   UNL     1      -3.595   6.293 -31.422  1.00  0.00    -0.081 SA
ENDROOT
BRANCH   1   2
HETATM    2  C   UNL     1      -2.603   4.787 -31.200  1.00  0.00     0.187 C 
BRANCH   2   3
HETATM    3  C   UNL     1      -2.988   3.681 -32.171  1.00  0.00     0.245 C 
HETATM    4  N   UNL     1      -3.635   2.622 -31.559  1.00  0.00    -0.267 N 
HETATM    5  H   UNL     1      -3.592   2.471 -30.550  1.00  0.00     0.190 HD
HETATM    6  O   UNL     1      -2.761   3.693 -33.382  1.00  0.00    -0.271 OA
BRANCH   4   7
HETATM    7  N   UNL     1      -3.812   1.450 -32.318  1.00  0.00    -0.263 N 
HETATM    8  C   UNL     1      -5.065   1.247 -32.867  1.00  0.00     0.270 C 
HETATM    9  O   UNL     1      -5.939   2.110 -32.816  1.00  0.00    -0.266 OA
HETATM   10  H   UNL     1      -3.178   0.684 -32.101  1.00  0.00     0.190 HD
BRANCH   8  11
HETATM   11  C   UNL     1      -5.325  -0.080 -33.494  1.00  0.00     0.033 A 
HETATM   12  C   UNL     1      -6.486  -0.355 -34.229  1.00  0.00     0.017 A 
HETATM   13  C   UNL     1      -6.677  -1.622 -34.792  1.00  0.00     0.007 A 
HETATM   14  C   UNL     1      -5.716  -2.627 -34.631  1.00  0.00    -0.062 A 
HETATM   15  C   UNL     1      -5.935  -3.996 -35.205  1.00  0.00     0.048 C 
HETATM   16  C   UNL     1      -4.570  -2.357 -33.875  1.00  0.00     0.007 A 
HETATM   17  C   UNL     1      -4.376  -1.093 -33.312  1.00  0.00     0.017 A 
ENDBRANCH   8  11
ENDBRANCH   4   7
ENDBRANCH   2   3
ENDBRANCH   1   2
BRANCH   1  18
HETATM   18  C   UNL     1      -5.180   5.624 -31.406  1.00  0.00     0.185 A 
HETATM   19  N   UNL     1      -5.752   4.942 -30.449  1.00  0.00    -0.204 NA
HETATM   20  C   UNL     1      -7.006   4.688 -30.966  1.00  0.00     0.166 A 
HETATM   21  N   UNL     1      -7.223   5.205 -32.189  1.00  0.00    -0.155 NA
HETATM   22  N   UNL     1      -6.035   5.777 -32.452  1.00  0.00    -0.254 N 
HETATM   23  H   UNL     1      -5.890   6.304 -33.309  1.00  0.00     0.191 HD
BRANCH  20  24
HETATM   24  C   UNL     1      -8.032   3.867 -30.225  1.00  0.00     0.202 C 
BRANCH  24  25
HETATM   25  N   UNL     1      -8.052   2.433 -30.538  1.00  0.00    -0.383 N 
HETATM   26  H   UNL     1      -7.947   1.866 -29.701  1.00  0.00     0.160 HD
BRANCH  25  27
HETATM   27  C   UNL     1      -8.982   1.912 -31.437  1.00  0.00     0.028 A 
HETATM   28  C   UNL     1      -9.838   2.701 -32.216  1.00  0.00     0.036 A 
HETATM   29  C   UNL     1     -10.707   2.132 -33.163  1.00  0.00    -0.060 A 
HETATM   30  C   UNL     1     -11.622   2.992 -33.983  1.00  0.00     0.048 C 
HETATM   31  C   UNL     1     -10.688   0.749 -33.362  1.00  0.00     0.007 A 
HETATM   32  C   UNL     1      -9.814  -0.049 -32.630  1.00  0.00     0.003 A 
HETATM   33  C   UNL     1      -8.963   0.533 -31.687  1.00  0.00     0.029 A 
ENDBRANCH  25  27
ENDBRANCH  24  25
ENDBRANCH  20  24
ENDBRANCH   1  18
TORSDOF 8
ENDMDL
MODEL 9
REMARK VINA RESULT:      -8.7      2.300     10.322
REMARK  8 active torsions:
REMARK  status: ('A' for Active; 'I' for Inactive)
REMARK    1  A    between atoms: C_5  and  C_6 
REMARK       I    between atoms: C_6  and  N_7 
REMARK    2  A    between atoms: N_7  and  N_8 
REMARK       I    between atoms: N_8  and  C_9 
REMARK    3  A    between atoms: C_9  and  C_10 
REMARK    4  A    between atoms: C_10  and  S_11 
REMARK    5  A    between atoms: S_11  and  C_12 
REMARK    6  A    between atoms: C_14  and  C_15 
REMARK    7  A    between atoms: C_15  and  N_16 
REMARK    8  A    between atoms: N_16  and  C_17 
ROOT
HETATM    1  S   UNL     1      -4.233   4.780 -33.806  1.00  0.00    -0.081 SA
ENDROOT
BRANCH   1   2
HETATM    2  C   UNL     1      -2.625   4.100 -33.303  1.00  0.00     0.187 C 
BRANCH   2   3
HETATM    3  C   UNL     1      -1.806   5.080 -32.476  1.00  0.00     0.245 C 
HETATM    4  N   UNL     1      -1.880   4.838 -31.116  1.00  0.00    -0.267 N 
HETATM    5  H   UNL     1      -2.620   4.265 -30.707  1.00  0.00     0.190 HD
HETATM    6  O   UNL     1      -1.137   6.008 -32.936  1.00  0.00    -0.271 OA
BRANCH   4   7
HETATM    7  N   UNL     1      -1.363   5.825 -30.256  1.00  0.00    -0.263 N 
HETATM    8  C   UNL     1      -0.106   5.597 -29.729  1.00  0.00     0.270 C 
HETATM    9  O   UNL     1       0.587   4.650 -30.099  1.00  0.00    -0.266 OA
HETATM   10  H   UNL     1      -2.055   6.411 -29.791  1.00  0.00     0.190 HD
BRANCH   8  11
HETATM   11  C   UNL     1       0.364   6.526 -28.662  1.00  0.00     0.033 A 
HETATM   12  C   UNL     1       0.998   7.743 -28.943  1.00  0.00     0.017 A 
HETATM   13  C   UNL     1       1.419   8.573 -27.899  1.00  0.00     0.007 A 
HETATM   14  C   UNL     1       1.214   8.202 -26.565  1.00  0.00    -0.062 A 
HETATM   15  C   UNL     1       1.695   9.075 -25.443  1.00  0.00     0.048 C 
HETATM   16  C   UNL     1       0.602   6.974 -26.287  1.00  0.00     0.007 A 
HETATM   17  C   UNL     1       0.179   6.144 -27.328  1.00  0.00     0.017 A 
ENDBRANCH   8  11
ENDBRANCH   4   7
ENDBRANCH   2   3
ENDBRANCH   1   2
BRANCH   1  18
HETATM   18  C   UNL     1      -5.269   3.989 -32.684  1.00  0.00     0.185 A 
HETATM   19  N   UNL     1      -4.927   3.231 -31.675  1.00  0.00    -0.204 NA
HETATM   20  C   UNL     1      -6.146   2.897 -31.121  1.00  0.00     0.166 A 
HETATM   21  N   UNL     1      -7.210   3.437 -31.741  1.00  0.00    -0.155 NA
HETATM   22  N   UNL     1      -6.622   4.109 -32.746  1.00  0.00    -0.254 N 
HETATM   23  H   UNL     1      -7.172   4.675 -33.386  1.00  0.00     0.191 HD
BRANCH  20  24
HETATM   24  C   UNL     1      -6.265   1.972 -29.935  1.00  0.00     0.202 C 
BRANCH  24  25
HETATM   25  N   UNL     1      -6.682   0.597 -30.234  1.00  0.00    -0.383 N 
HETATM   26  H   UNL     1      -7.695   0.511 -30.261  1.00  0.00     0.160 HD
BRANCH  25  27
HETATM   27  C   UNL     1      -6.046  -0.140 -31.232  1.00  0.00     0.028 A 
HETATM   28  C   UNL     1      -6.674  -0.554 -32.415  1.00  0.00     0.036 A 
HETATM   29  C   UNL     1      -5.970  -1.231 -33.425  1.00  0.00    -0.060 A 
HETATM   30  C   UNL     1      -6.661  -1.674 -34.681  1.00  0.00     0.048 C 
HETATM   31  C   UNL     1      -4.601  -1.462 -33.266  1.00  0.00     0.007 A 
HETATM   32  C   UNL     1      -3.948  -1.020 -32.119  1.00  0.00     0.003 A 
HETATM   33  C   UNL     1      -4.666  -0.356 -31.121  1.00  0.00     0.029 A 
ENDBRANCH  25  27
ENDBRANCH  24  25
ENDBRANCH  20  24
ENDBRANCH   1  18
TORSDOF 8
ENDMDL
MODEL 10
REMARK VINA RESULT:      -8.7      2.330     10.457
REMARK  8 active torsions:
REMARK  status: ('A' for Active; 'I' for Inactive)
REMARK    1  A    between atoms: C_5  and  C_6 
REMARK       I    between atoms: C_6  and  N_7 
REMARK    2  A    between atoms: N_7  and  N_8 
REMARK       I    between atoms: N_8  and  C_9 
REMARK    3  A    between atoms: C_9  and  C_10 
REMARK    4  A    between atoms: C_10  and  S_11 
REMARK    5  A    between atoms: S_11  and  C_12 
REMARK    6  A    between atoms: C_14  and  C_15 
REMARK    7  A    between atoms: C_15  and  N_16 
REMARK    8  A    between atoms: N_16  and  C_17 
ROOT
HETATM    1  S   UNL     1      -3.665   5.261 -34.349  1.00  0.00    -0.081 SA
ENDROOT
BRANCH   1   2
HETATM    2  C   UNL     1      -1.861   5.455 -34.433  1.00  0.00     0.187 C 
BRANCH   2   3
HETATM    3  C   UNL     1      -1.356   6.618 -33.592  1.00  0.00     0.245 C 
HETATM    4  N   UNL     1      -0.698   6.213 -32.444  1.00  0.00    -0.267 N 
HETATM    5  H   UNL     1      -0.800   5.270 -32.065  1.00  0.00     0.190 HD
HETATM    6  O   UNL     1      -1.502   7.809 -33.873  1.00  0.00    -0.271 OA
BRANCH   4   7
HETATM    7  N   UNL     1      -0.411   7.201 -31.484  1.00  0.00    -0.263 N 
HETATM    8  C   UNL     1      -0.096   6.760 -30.212  1.00  0.00     0.270 C 
HETATM    9  O   UNL     1       0.064   5.566 -29.964  1.00  0.00    -0.266 OA
HETATM   10  H   UNL     1      -0.813   8.120 -31.662  1.00  0.00     0.190 HD
BRANCH   8  11
HETATM   11  C   UNL     1       0.006   7.792 -29.140  1.00  0.00     0.033 A 
HETATM   12  C   UNL     1       1.163   7.975 -28.373  1.00  0.00     0.017 A 
HETATM   13  C   UNL     1       1.199   8.958 -27.379  1.00  0.00     0.007 A 
HETATM   14  C   UNL     1       0.084   9.770 -27.138  1.00  0.00    -0.062 A 
HETATM   15  C   UNL     1       0.108  10.802 -26.049  1.00  0.00     0.048 C 
HETATM   16  C   UNL     1      -1.079   9.568 -27.889  1.00  0.00     0.007 A 
HETATM   17  C   UNL     1      -1.118   8.588 -28.883  1.00  0.00     0.017 A 
ENDBRANCH   8  11
ENDBRANCH   4   7
ENDBRANCH   2   3
ENDBRANCH   1   2
BRANCH   1  18
HETATM   18  C   UNL     1      -3.794   4.098 -33.087  1.00  0.00     0.185 A 
HETATM   19  N   UNL     1      -4.883   3.632 -32.536  1.00  0.00    -0.204 NA
HETATM   20  C   UNL     1      -4.393   2.727 -31.616  1.00  0.00     0.166 A 
HETATM   21  N   UNL     1      -3.053   2.612 -31.602  1.00  0.00    -0.155 NA
HETATM   22  N   UNL     1      -2.698   3.514 -32.534  1.00  0.00    -0.254 N 
HETATM   23  H   UNL     1      -1.723   3.636 -32.795  1.00  0.00     0.191 HD
BRANCH  20  24
HETATM   24  C   UNL     1      -5.296   1.958 -30.684  1.00  0.00     0.202 C 
BRANCH  24  25
HETATM   25  N   UNL     1      -4.977   0.535 -30.513  1.00  0.00    -0.383 N 
HETATM   26  H   UNL     1      -5.414   0.151 -29.680  1.00  0.00     0.160 HD
BRANCH  25  27
HETATM   27  C   UNL     1      -5.012  -0.339 -31.598  1.00  0.00     0.028 A 
HETATM   28  C   UNL     1      -6.050  -0.371 -32.539  1.00  0.00     0.036 A 
HETATM   29  C   UNL     1      -6.004  -1.219 -33.659  1.00  0.00    -0.060 A 
HETATM   30  C   UNL     1      -7.128  -1.246 -34.652  1.00  0.00     0.048 C 
HETATM   31  C   UNL     1      -4.878  -2.021 -33.862  1.00  0.00     0.007 A 
HETATM   32  C   UNL     1      -3.816  -1.972 -32.964  1.00  0.00     0.003 A 
HETATM   33  C   UNL     1      -3.883  -1.129 -31.852  1.00  0.00     0.029 A 
ENDBRANCH  25  27
ENDBRANCH  24  25
ENDBRANCH  20  24
ENDBRANCH   1  18
TORSDOF 8
ENDMDL
