MODEL 1
REMARK VINA RESULT:      -9.6      0.000      0.000
REMARK  5 active torsions:
REMARK  status: ('A' for Active; 'I' for Inactive)
REMARK    1  A    between atoms: C_3  and  C_4 
REMARK    2  A    between atoms: C_9  and  C_10 
REMARK    3  A    between atoms: C_10  and  C_11 
REMARK       I    between atoms: C_11  and  N_12 
REMARK    4  A    between atoms: N_12  and  C_13 
REMARK    5  A    between atoms: C_20  and  C_21 
REMARK       I    between atoms: C_21  and  N_22 
ROOT
HETATM    1  C   UNL     1     -10.233   2.269 -33.937  1.00  0.00     0.035 A 
HETATM    2  C   UNL     1     -11.442   1.571 -34.062  1.00  0.00     0.046 A 
HETATM    3  C   UNL     1     -12.612   2.082 -33.457  1.00  0.00     0.030 A 
HETATM    4  C   UNL     1     -12.531   3.270 -32.741  1.00  0.00     0.063 A 
HETATM    5  N   UNL     1     -13.799   3.506 -32.286  1.00  0.00    -0.277 N 
HETATM    6  H   UNL     1     -14.114   4.290 -31.726  1.00  0.00     0.189 HD
HETATM    7  N   UNL     1     -14.701   2.576 -32.643  1.00  0.00    -0.168 NA
HETATM    8  C   UNL     1     -13.982   1.689 -33.369  1.00  0.00     0.156 A 
HETATM    9  C   UNL     1     -11.345   3.990 -32.591  1.00  0.00     0.034 A 
HETATM   10  C   UNL     1     -10.200   3.465 -33.206  1.00  0.00     0.032 A 
ENDROOT
BRANCH   1  11
HETATM   11  N   UNL     1      -9.023   1.856 -34.538  1.00  0.00    -0.327 N 
HETATM   12  C   UNL     1      -8.053   1.029 -33.993  1.00  0.00     0.226 C 
HETATM   13  O   UNL     1      -8.015   0.616 -32.839  1.00  0.00    -0.273 OA
HETATM   14  H   UNL     1      -8.834   2.228 -35.460  1.00  0.00     0.169 HD
BRANCH  12  15
HETATM   15  C   UNL     1      -6.966   0.649 -34.989  1.00  0.00     0.141 C 
BRANCH  15  16
HETATM   16  C   UNL     1      -6.070  -0.495 -34.573  1.00  0.00    -0.049 A 
HETATM   17  C   UNL     1      -6.457  -1.810 -34.885  1.00  0.00     0.023 A 
HETATM   18  C   UNL     1      -5.704  -2.917 -34.457  1.00  0.00     0.048 A 
HETATM   19  C   UNL     1      -4.539  -2.694 -33.711  1.00  0.00     0.016 A 
HETATM   20  C   UNL     1      -4.151  -1.396 -33.383  1.00  0.00     0.001 A 
HETATM   21  C   UNL     1      -4.917  -0.305 -33.801  1.00  0.00     0.007 A 
BRANCH  18  22
HETATM   22  C   UNL     1      -6.149  -4.315 -34.807  1.00  0.00     0.417 C 
HETATM   23  F   UNL     1      -6.263  -4.536 -36.146  1.00  0.00    -0.166 F 
HETATM   24  F   UNL     1      -5.294  -5.270 -34.344  1.00  0.00    -0.166 F 
HETATM   25  F   UNL     1      -7.366  -4.617 -34.273  1.00  0.00    -0.166 F 
ENDBRANCH  18  22
ENDBRANCH  15  16
ENDBRANCH  12  15
ENDBRANCH   1  11
BRANCH   8  26
HETATM   26  C   UNL     1     -14.614   0.501 -33.960  1.00  0.00     0.270 C 
HETATM   27  N   UNL     1     -14.125  -0.686 -33.486  1.00  0.00    -0.365 N 
HETATM   28  H   UNL     1     -13.394  -0.666 -32.786  1.00  0.00     0.159 HD
HETATM   29  H   UNL     1     -14.503  -1.554 -33.832  1.00  0.00     0.159 HD
HETATM   30  O   UNL     1     -15.505   0.529 -34.803  1.00  0.00    -0.266 OA
ENDBRANCH   8  26
TORSDOF 5
ENDMDL
MODEL 2
REMARK VINA RESULT:      -9.6      1.729      2.503
REMARK  5 active torsions:
REMARK  status: ('A' for Active; 'I' for Inactive)
REMARK    1  A    between atoms: C_3  and  C_4 
REMARK    2  A    between atoms: C_9  and  C_10 
REMARK    3  A    between atoms: C_10  and  C_11 
REMARK       I    between atoms: C_11  and  N_12 
REMARK    4  A    between atoms: N_12  and  C_13 
REMARK    5  A    between atoms: C_20  and  C_21 
REMARK       I    between atoms: C_21  and  N_22 
ROOT
HETATM    1  C   UNL     1     -11.138   1.913 -34.311  1.00  0.00     0.035 A 
HETATM    2  C   UNL     1     -11.479   2.690 -33.196  1.00  0.00     0.046 A 
HETATM    3  C   UNL     1     -12.835   2.822 -32.821  1.00  0.00     0.030 A 
HETATM    4  C   UNL     1     -13.804   2.177 -33.578  1.00  0.00     0.063 A 
HETATM    5  N   UNL     1     -14.995   2.483 -32.980  1.00  0.00    -0.277 N 
HETATM    6  H   UNL     1     -15.920   2.181 -33.263  1.00  0.00     0.189 HD
HETATM    7  N   UNL     1     -14.888   3.270 -31.896  1.00  0.00    -0.168 NA
HETATM    8  C   UNL     1     -13.557   3.488 -31.784  1.00  0.00     0.156 A 
HETATM    9  C   UNL     1     -13.505   1.398 -34.698  1.00  0.00     0.034 A 
HETATM   10  C   UNL     1     -12.152   1.280 -35.045  1.00  0.00     0.032 A 
ENDROOT
BRANCH   1  11
HETATM   11  N   UNL     1      -9.810   1.693 -34.738  1.00  0.00    -0.327 N 
HETATM   12  C   UNL     1      -8.938   0.709 -34.300  1.00  0.00     0.226 C 
HETATM   13  O   UNL     1      -9.125  -0.064 -33.366  1.00  0.00    -0.273 OA
HETATM   14  H   UNL     1      -9.448   2.345 -35.423  1.00  0.00     0.169 HD
BRANCH  12  15
HETATM   15  C   UNL     1      -7.648   0.654 -35.105  1.00  0.00     0.141 C 
BRANCH  15  16
HETATM   16  C   UNL     1      -6.623  -0.352 -34.631  1.00  0.00    -0.049 A 
HETATM   17  C   UNL     1      -6.816  -1.711 -34.933  1.00  0.00     0.023 A 
HETATM   18  C   UNL     1      -5.939  -2.699 -34.453  1.00  0.00     0.048 A 
HETATM   19  C   UNL     1      -4.847  -2.310 -33.665  1.00  0.00     0.016 A 
HETATM   20  C   UNL     1      -4.653  -0.967 -33.348  1.00  0.00     0.001 A 
HETATM   21  C   UNL     1      -5.540   0.004 -33.817  1.00  0.00     0.007 A 
BRANCH  18  22
HETATM   22  C   UNL     1      -6.177  -4.150 -34.792  1.00  0.00     0.417 C 
HETATM   23  F   UNL     1      -6.175  -4.408 -36.129  1.00  0.00    -0.166 F 
HETATM   24  F   UNL     1      -5.236  -4.977 -34.253  1.00  0.00    -0.166 F 
HETATM   25  F   UNL     1      -7.376  -4.599 -34.326  1.00  0.00    -0.166 F 
ENDBRANCH  18  22
ENDBRANCH  15  16
ENDBRANCH  12  15
ENDBRANCH   1  11
BRANCH   8  26
HETATM   26  C   UNL     1     -13.011   4.314 -30.698  1.00  0.00     0.270 C 
HETATM   27  N   UNL     1     -12.281   3.613 -29.776  1.00  0.00    -0.365 N 
HETATM   28  H   UNL     1     -12.169   2.615 -29.902  1.00  0.00     0.159 HD
HETATM   29  H   UNL     1     -11.864   4.099 -28.997  1.00  0.00     0.159 HD
HETATM   30  O   UNL     1     -13.169   5.526 -30.593  1.00  0.00    -0.266 OA
ENDBRANCH   8  26
TORSDOF 5
ENDMDL
MODEL 3
REMARK VINA RESULT:      -9.3      1.978      2.503
REMARK  5 active torsions:
REMARK  status: ('A' for Active; 'I' for Inactive)
REMARK    1  A    between atoms: C_3  and  C_4 
REMARK    2  A    between atoms: C_9  and  C_10 
REMARK    3  A    between atoms: C_10  and  C_11 
REMARK       I    between atoms: C_11  and  N_12 
REMARK    4  A    between atoms: N_12  and  C_13 
REMARK    5  A    between atoms: C_20  and  C_21 
REMARK       I    between atoms: C_21  and  N_22 
ROOT
HETATM    1  C   UNL     1     -10.058   1.975 -34.057  1.00  0.00     0.035 A 
HETATM    2  C   UNL     1     -11.312   1.353 -34.131  1.00  0.00     0.046 A 
HETATM    3  C   UNL     1     -12.446   1.996 -33.585  1.00  0.00     0.030 A 
HETATM    4  C   UNL     1     -12.286   3.236 -32.979  1.00  0.00     0.063 A 
HETATM    5  N   UNL     1     -13.536   3.598 -32.559  1.00  0.00    -0.277 N 
HETATM    6  H   UNL     1     -13.798   4.449 -32.075  1.00  0.00     0.189 HD
HETATM    7  N   UNL     1     -14.498   2.704 -32.840  1.00  0.00    -0.168 NA
HETATM    8  C   UNL     1     -13.840   1.707 -33.476  1.00  0.00     0.156 A 
HETATM    9  C   UNL     1     -11.053   3.884 -32.882  1.00  0.00     0.034 A 
HETATM   10  C   UNL     1      -9.945   3.227 -33.436  1.00  0.00     0.032 A 
ENDROOT
BRANCH   1  11
HETATM   11  N   UNL     1      -8.877   1.428 -34.606  1.00  0.00    -0.327 N 
HETATM   12  C   UNL     1      -8.243   0.252 -34.234  1.00  0.00     0.226 C 
HETATM   13  O   UNL     1      -8.525  -0.452 -33.271  1.00  0.00    -0.273 OA
HETATM   14  H   UNL     1      -8.432   1.970 -35.336  1.00  0.00     0.169 HD
BRANCH  12  15
HETATM   15  C   UNL     1      -7.095  -0.124 -35.160  1.00  0.00     0.141 C 
BRANCH  15  16
HETATM   16  C   UNL     1      -6.170  -1.205 -34.648  1.00  0.00    -0.049 A 
HETATM   17  C   UNL     1      -5.220  -0.877 -33.666  1.00  0.00     0.023 A 
HETATM   18  C   UNL     1      -4.283  -1.820 -33.209  1.00  0.00     0.048 A 
HETATM   19  C   UNL     1      -4.310  -3.115 -33.744  1.00  0.00     0.016 A 
HETATM   20  C   UNL     1      -5.238  -3.449 -34.730  1.00  0.00     0.001 A 
HETATM   21  C   UNL     1      -6.154  -2.498 -35.187  1.00  0.00     0.007 A 
BRANCH  18  22
HETATM   22  C   UNL     1      -3.275  -1.434 -32.156  1.00  0.00     0.417 C 
HETATM   23  F   UNL     1      -2.312  -0.580 -32.604  1.00  0.00    -0.166 F 
HETATM   24  F   UNL     1      -3.846  -0.819 -31.081  1.00  0.00    -0.166 F 
HETATM   25  F   UNL     1      -2.612  -2.514 -31.655  1.00  0.00    -0.166 F 
ENDBRANCH  18  22
ENDBRANCH  15  16
ENDBRANCH  12  15
ENDBRANCH   1  11
BRANCH   8  26
HETATM   26  C   UNL     1     -14.551   0.517 -33.964  1.00  0.00     0.270 C 
HETATM   27  N   UNL     1     -14.102  -0.660 -33.429  1.00  0.00    -0.365 N 
HETATM   28  H   UNL     1     -13.345  -0.631 -32.757  1.00  0.00     0.159 HD
HETATM   29  H   UNL     1     -14.534  -1.529 -33.703  1.00  0.00     0.159 HD
HETATM   30  O   UNL     1     -15.470   0.534 -34.775  1.00  0.00    -0.266 OA
ENDBRANCH   8  26
TORSDOF 5
ENDMDL
MODEL 4
REMARK VINA RESULT:      -9.0      5.486      8.723
REMARK  5 active torsions:
REMARK  status: ('A' for Active; 'I' for Inactive)
REMARK    1  A    between atoms: C_3  and  C_4 
REMARK    2  A    between atoms: C_9  and  C_10 
REMARK    3  A    between atoms: C_10  and  C_11 
REMARK       I    between atoms: C_11  and  N_12 
REMARK    4  A    between atoms: N_12  and  C_13 
REMARK    5  A    between atoms: C_20  and  C_21 
REMARK       I    between atoms: C_21  and  N_22 
ROOT
HETATM    1  C   UNL     1      -3.869   3.353 -32.334  1.00  0.00     0.035 A 
HETATM    2  C   UNL     1      -2.653   3.673 -31.715  1.00  0.00     0.046 A 
HETATM    3  C   UNL     1      -1.973   4.857 -32.077  1.00  0.00     0.030 A 
HETATM    4  C   UNL     1      -2.529   5.678 -33.050  1.00  0.00     0.063 A 
HETATM    5  N   UNL     1      -1.660   6.727 -33.180  1.00  0.00    -0.277 N 
HETATM    6  H   UNL     1      -1.747   7.523 -33.801  1.00  0.00     0.189 HD
HETATM    7  N   UNL     1      -0.587   6.663 -32.375  1.00  0.00    -0.168 NA
HETATM    8  C   UNL     1      -0.766   5.513 -31.685  1.00  0.00     0.156 A 
HETATM    9  C   UNL     1      -3.735   5.391 -33.692  1.00  0.00     0.034 A 
HETATM   10  C   UNL     1      -4.392   4.213 -33.310  1.00  0.00     0.032 A 
ENDROOT
BRANCH   1  11
HETATM   11  N   UNL     1      -4.638   2.213 -32.011  1.00  0.00    -0.327 N 
HETATM   12  C   UNL     1      -5.762   2.159 -31.201  1.00  0.00     0.226 C 
HETATM   13  O   UNL     1      -6.209   3.073 -30.516  1.00  0.00    -0.273 OA
HETATM   14  H   UNL     1      -4.315   1.334 -32.395  1.00  0.00     0.169 HD
BRANCH  12  15
HETATM   15  C   UNL     1      -6.443   0.798 -31.218  1.00  0.00     0.141 C 
BRANCH  15  16
HETATM   16  C   UNL     1      -6.743   0.234 -32.588  1.00  0.00    -0.049 A 
HETATM   17  C   UNL     1      -6.190  -1.008 -32.947  1.00  0.00     0.023 A 
HETATM   18  C   UNL     1      -6.370  -1.545 -34.234  1.00  0.00     0.048 A 
HETATM   19  C   UNL     1      -7.126  -0.825 -35.168  1.00  0.00     0.016 A 
HETATM   20  C   UNL     1      -7.668   0.414 -34.829  1.00  0.00     0.001 A 
HETATM   21  C   UNL     1      -7.468   0.945 -33.552  1.00  0.00     0.007 A 
BRANCH  18  22
HETATM   22  C   UNL     1      -5.760  -2.878 -34.588  1.00  0.00     0.417 C 
HETATM   23  F   UNL     1      -4.721  -3.238 -33.783  1.00  0.00    -0.166 F 
HETATM   24  F   UNL     1      -6.657  -3.903 -34.515  1.00  0.00    -0.166 F 
HETATM   25  F   UNL     1      -5.273  -2.903 -35.860  1.00  0.00    -0.166 F 
ENDBRANCH  18  22
ENDBRANCH  15  16
ENDBRANCH  12  15
ENDBRANCH   1  11
BRANCH   8  26
HETATM   26  C   UNL     1       0.207   5.073 -30.675  1.00  0.00     0.270 C 
HETATM   27  N   UNL     1      -0.173   5.330 -29.385  1.00  0.00    -0.365 N 
HETATM   28  H   UNL     1      -1.064   5.782 -29.221  1.00  0.00     0.159 HD
HETATM   29  H   UNL     1       0.431   5.058 -28.625  1.00  0.00     0.159 HD
HETATM   30  O   UNL     1       1.273   4.520 -30.923  1.00  0.00    -0.266 OA
ENDBRANCH   8  26
TORSDOF 5
ENDMDL
MODEL 5
REMARK VINA RESULT:      -8.9      6.995      9.392
REMARK  5 active torsions:
REMARK  status: ('A' for Active; 'I' for Inactive)
REMARK    1  A    between atoms: C_3  and  C_4 
REMARK    2  A    between atoms: C_9  and  C_10 
REMARK    3  A    between atoms: C_10  and  C_11 
REMARK       I    between atoms: C_11  and  N_12 
REMARK    4  A    between atoms: N_12  and  C_13 
REMARK    5  A    between atoms: C_20  and  C_21 
REMARK       I    between atoms: C_21  and  N_22 
ROOT
HETATM    1  C   UNL     1      -5.561   0.136 -33.323  1.00  0.00     0.035 A 
HETATM    2  C   UNL     1      -4.836  -1.056 -33.185  1.00  0.00     0.046 A 
HETATM    3  C   UNL     1      -5.234  -2.206 -33.904  1.00  0.00     0.030 A 
HETATM    4  C   UNL     1      -6.347  -2.126 -34.732  1.00  0.00     0.063 A 
HETATM    5  N   UNL     1      -6.479  -3.370 -35.283  1.00  0.00    -0.277 N 
HETATM    6  H   UNL     1      -7.186  -3.678 -35.941  1.00  0.00     0.189 HD
HETATM    7  N   UNL     1      -5.548  -4.255 -34.890  1.00  0.00    -0.168 NA
HETATM    8  C   UNL     1      -4.769  -3.549 -34.037  1.00  0.00     0.156 A 
HETATM    9  C   UNL     1      -7.097  -0.959 -34.891  1.00  0.00     0.034 A 
HETATM   10  C   UNL     1      -6.677   0.168 -34.171  1.00  0.00     0.032 A 
ENDROOT
BRANCH   1  11
HETATM   11  N   UNL     1      -5.216   1.343 -32.675  1.00  0.00    -0.327 N 
HETATM   12  C   UNL     1      -3.958   1.741 -32.254  1.00  0.00     0.226 C 
HETATM   13  O   UNL     1      -2.941   1.055 -32.252  1.00  0.00    -0.273 OA
HETATM   14  H   UNL     1      -5.981   1.975 -32.475  1.00  0.00     0.169 HD
BRANCH  12  15
HETATM   15  C   UNL     1      -3.923   3.179 -31.756  1.00  0.00     0.141 C 
BRANCH  15  16
HETATM   16  C   UNL     1      -2.836   4.049 -32.346  1.00  0.00    -0.049 A 
HETATM   17  C   UNL     1      -1.779   4.468 -31.520  1.00  0.00     0.023 A 
HETATM   18  C   UNL     1      -0.783   5.341 -31.992  1.00  0.00     0.048 A 
HETATM   19  C   UNL     1      -0.848   5.789 -33.317  1.00  0.00     0.016 A 
HETATM   20  C   UNL     1      -1.899   5.392 -34.143  1.00  0.00     0.001 A 
HETATM   21  C   UNL     1      -2.892   4.537 -33.658  1.00  0.00     0.007 A 
BRANCH  18  22
HETATM   22  C   UNL     1       0.336   5.774 -31.078  1.00  0.00     0.417 C 
HETATM   23  F   UNL     1       0.903   6.963 -31.429  1.00  0.00    -0.166 F 
HETATM   24  F   UNL     1      -0.069   5.924 -29.785  1.00  0.00    -0.166 F 
HETATM   25  F   UNL     1       1.355   4.870 -31.044  1.00  0.00    -0.166 F 
ENDBRANCH  18  22
ENDBRANCH  15  16
ENDBRANCH  12  15
ENDBRANCH   1  11
BRANCH   8  26
HETATM   26  C   UNL     1      -3.609  -4.167 -33.380  1.00  0.00     0.270 C 
HETATM   27  N   UNL     1      -3.105  -5.254 -34.041  1.00  0.00    -0.365 N 
HETATM   28  H   UNL     1      -3.545  -5.544 -34.906  1.00  0.00     0.159 HD
HETATM   29  H   UNL     1      -2.305  -5.739 -33.665  1.00  0.00     0.159 HD
HETATM   30  O   UNL     1      -3.105  -3.772 -32.333  1.00  0.00    -0.266 OA
ENDBRANCH   8  26
TORSDOF 5
ENDMDL
MODEL 6
REMARK VINA RESULT:      -8.9      2.828      3.725
REMARK  5 active torsions:
REMARK  status: ('A' for Active; 'I' for Inactive)
REMARK    1  A    between atoms: C_3  and  C_4 
REMARK    2  A    between atoms: C_9  and  C_10 
REMARK    3  A    between atoms: C_10  and  C_11 
REMARK       I    between atoms: C_11  and  N_12 
REMARK    4  A    between atoms: N_12  and  C_13 
REMARK    5  A    between atoms: C_20  and  C_21 
REMARK       I    between atoms: C_21  and  N_22 
ROOT
HETATM    1  C   UNL     1     -11.273   1.903 -34.259  1.00  0.00     0.035 A 
HETATM    2  C   UNL     1     -11.565   2.678 -33.128  1.00  0.00     0.046 A 
HETATM    3  C   UNL     1     -12.908   2.860 -32.731  1.00  0.00     0.030 A 
HETATM    4  C   UNL     1     -13.915   2.266 -33.482  1.00  0.00     0.063 A 
HETATM    5  N   UNL     1     -15.083   2.613 -32.862  1.00  0.00    -0.277 N 
HETATM    6  H   UNL     1     -16.024   2.353 -33.135  1.00  0.00     0.189 HD
HETATM    7  N   UNL     1     -14.927   3.380 -31.770  1.00  0.00    -0.168 NA
HETATM    8  C   UNL     1     -13.587   3.541 -31.675  1.00  0.00     0.156 A 
HETATM    9  C   UNL     1     -13.664   1.492 -34.616  1.00  0.00     0.034 A 
HETATM   10  C   UNL     1     -12.322   1.322 -34.985  1.00  0.00     0.032 A 
ENDROOT
BRANCH   1  11
HETATM   11  N   UNL     1      -9.961   1.634 -34.708  1.00  0.00    -0.327 N 
HETATM   12  C   UNL     1      -9.085   0.676 -34.222  1.00  0.00     0.226 C 
HETATM   13  O   UNL     1      -9.250  -0.020 -33.225  1.00  0.00    -0.273 OA
HETATM   14  H   UNL     1      -9.615   2.226 -35.453  1.00  0.00     0.169 HD
BRANCH  12  15
HETATM   15  C   UNL     1      -7.822   0.543 -35.060  1.00  0.00     0.141 C 
BRANCH  15  16
HETATM   16  C   UNL     1      -6.762  -0.380 -34.504  1.00  0.00    -0.049 A 
HETATM   17  C   UNL     1      -5.769   0.154 -33.665  1.00  0.00     0.023 A 
HETATM   18  C   UNL     1      -4.714  -0.640 -33.181  1.00  0.00     0.048 A 
HETATM   19  C   UNL     1      -4.665  -1.993 -33.541  1.00  0.00     0.016 A 
HETATM   20  C   UNL     1      -5.637  -2.532 -34.384  1.00  0.00     0.001 A 
HETATM   21  C   UNL     1      -6.671  -1.729 -34.871  1.00  0.00     0.007 A 
BRANCH  18  22
HETATM   22  C   UNL     1      -3.662  -0.035 -32.285  1.00  0.00     0.417 C 
HETATM   23  F   UNL     1      -3.572   1.321 -32.384  1.00  0.00    -0.166 F 
HETATM   24  F   UNL     1      -3.882  -0.297 -30.965  1.00  0.00    -0.166 F 
HETATM   25  F   UNL     1      -2.416  -0.513 -32.556  1.00  0.00    -0.166 F 
ENDBRANCH  18  22
ENDBRANCH  15  16
ENDBRANCH  12  15
ENDBRANCH   1  11
BRANCH   8  26
HETATM   26  C   UNL     1     -12.992   4.329 -30.587  1.00  0.00     0.270 C 
HETATM   27  N   UNL     1     -12.213   3.598 -29.730  1.00  0.00    -0.365 N 
HETATM   28  H   UNL     1     -12.102   2.607 -29.900  1.00  0.00     0.159 HD
HETATM   29  H   UNL     1     -11.760   4.057 -28.955  1.00  0.00     0.159 HD
HETATM   30  O   UNL     1     -13.151   5.534 -30.427  1.00  0.00    -0.266 OA
ENDBRANCH   8  26
TORSDOF 5
ENDMDL
MODEL 7
REMARK VINA RESULT:      -8.7      1.786      1.997
REMARK  5 active torsions:
REMARK  status: ('A' for Active; 'I' for Inactive)
REMARK    1  A    between atoms: C_3  and  C_4 
REMARK    2  A    between atoms: C_9  and  C_10 
REMARK    3  A    between atoms: C_10  and  C_11 
REMARK       I    between atoms: C_11  and  N_12 
REMARK    4  A    between atoms: N_12  and  C_13 
REMARK    5  A    between atoms: C_20  and  C_21 
REMARK       I    between atoms: C_21  and  N_22 
ROOT
HETATM    1  C   UNL     1      -9.169   1.788 -33.289  1.00  0.00     0.035 A 
HETATM    2  C   UNL     1     -10.375   1.076 -33.344  1.00  0.00     0.046 A 
HETATM    3  C   UNL     1     -11.481   1.624 -34.030  1.00  0.00     0.030 A 
HETATM    4  C   UNL     1     -11.346   2.869 -34.633  1.00  0.00     0.063 A 
HETATM    5  N   UNL     1     -12.559   3.126 -35.209  1.00  0.00    -0.277 N 
HETATM    6  H   UNL     1     -12.825   3.949 -35.739  1.00  0.00     0.189 HD
HETATM    7  N   UNL     1     -13.474   2.158 -35.037  1.00  0.00    -0.168 NA
HETATM    8  C   UNL     1     -12.822   1.221 -34.311  1.00  0.00     0.156 A 
HETATM    9  C   UNL     1     -10.163   3.609 -34.595  1.00  0.00     0.034 A 
HETATM   10  C   UNL     1      -9.079   3.041 -33.913  1.00  0.00     0.032 A 
ENDROOT
BRANCH   1  11
HETATM   11  N   UNL     1      -8.000   1.305 -32.659  1.00  0.00    -0.327 N 
HETATM   12  C   UNL     1      -6.693   1.425 -33.106  1.00  0.00     0.226 C 
HETATM   13  O   UNL     1      -6.335   1.859 -34.196  1.00  0.00    -0.273 OA
HETATM   14  H   UNL     1      -8.137   0.791 -31.798  1.00  0.00     0.169 HD
BRANCH  12  15
HETATM   15  C   UNL     1      -5.669   0.945 -32.089  1.00  0.00     0.141 C 
BRANCH  15  16
HETATM   16  C   UNL     1      -4.971  -0.354 -32.426  1.00  0.00    -0.049 A 
HETATM   17  C   UNL     1      -5.545  -1.204 -33.387  1.00  0.00     0.023 A 
HETATM   18  C   UNL     1      -4.983  -2.457 -33.684  1.00  0.00     0.048 A 
HETATM   19  C   UNL     1      -3.821  -2.856 -33.009  1.00  0.00     0.016 A 
HETATM   20  C   UNL     1      -3.250  -2.028 -32.044  1.00  0.00     0.001 A 
HETATM   21  C   UNL     1      -3.827  -0.791 -31.746  1.00  0.00     0.007 A 
BRANCH  18  22
HETATM   22  C   UNL     1      -5.625  -3.347 -34.719  1.00  0.00     0.417 C 
HETATM   23  F   UNL     1      -5.199  -3.107 -35.990  1.00  0.00    -0.166 F 
HETATM   24  F   UNL     1      -5.391  -4.671 -34.492  1.00  0.00    -0.166 F 
HETATM   25  F   UNL     1      -6.981  -3.210 -34.747  1.00  0.00    -0.166 F 
ENDBRANCH  18  22
ENDBRANCH  15  16
ENDBRANCH  12  15
ENDBRANCH   1  11
BRANCH   8  26
HETATM   26  C   UNL     1     -13.486  -0.027 -33.909  1.00  0.00     0.270 C 
HETATM   27  N   UNL     1     -14.812  -0.086 -34.241  1.00  0.00    -0.365 N 
HETATM   28  H   UNL     1     -15.228   0.700 -34.725  1.00  0.00     0.159 HD
HETATM   29  H   UNL     1     -15.348  -0.908 -34.009  1.00  0.00     0.159 HD
HETATM   30  O   UNL     1     -12.936  -0.958 -33.329  1.00  0.00    -0.266 OA
ENDBRANCH   8  26
TORSDOF 5
ENDMDL
MODEL 8
REMARK VINA RESULT:      -8.5      2.283      2.731
REMARK  5 active torsions:
REMARK  status: ('A' for Active; 'I' for Inactive)
REMARK    1  A    between atoms: C_3  and  C_4 
REMARK    2  A    between atoms: C_9  and  C_10 
REMARK    3  A    between atoms: C_10  and  C_11 
REMARK       I    between atoms: C_11  and  N_12 
REMARK    4  A    between atoms: N_12  and  C_13 
REMARK    5  A    between atoms: C_20  and  C_21 
REMARK       I    between atoms: C_21  and  N_22 
ROOT
HETATM    1  C   UNL     1      -9.653   2.552 -31.454  1.00  0.00     0.035 A 
HETATM    2  C   UNL     1     -10.404   2.399 -32.628  1.00  0.00     0.046 A 
HETATM    3  C   UNL     1     -11.434   3.321 -32.926  1.00  0.00     0.030 A 
HETATM    4  C   UNL     1     -11.681   4.359 -32.036  1.00  0.00     0.063 A 
HETATM    5  N   UNL     1     -12.710   5.071 -32.587  1.00  0.00    -0.277 N 
HETATM    6  H   UNL     1     -13.153   5.902 -32.211  1.00  0.00     0.189 HD
HETATM    7  N   UNL     1     -13.156   4.589 -33.759  1.00  0.00    -0.168 NA
HETATM    8  C   UNL     1     -12.375   3.507 -33.983  1.00  0.00     0.156 A 
HETATM    9  C   UNL     1     -10.957   4.541 -30.856  1.00  0.00     0.034 A 
HETATM   10  C   UNL     1      -9.939   3.616 -30.587  1.00  0.00     0.032 A 
ENDROOT
BRANCH   1  11
HETATM   11  N   UNL     1      -8.583   1.704 -31.093  1.00  0.00    -0.327 N 
HETATM   12  C   UNL     1      -7.228   1.944 -31.259  1.00  0.00     0.226 C 
HETATM   13  O   UNL     1      -6.725   2.881 -31.871  1.00  0.00    -0.273 OA
HETATM   14  H   UNL     1      -8.837   0.811 -30.690  1.00  0.00     0.169 HD
BRANCH  12  15
HETATM   15  C   UNL     1      -6.351   0.895 -30.591  1.00  0.00     0.141 C 
BRANCH  15  16
HETATM   16  C   UNL     1      -5.590  -0.014 -31.530  1.00  0.00    -0.049 A 
HETATM   17  C   UNL     1      -6.274  -0.608 -32.604  1.00  0.00     0.023 A 
HETATM   18  C   UNL     1      -5.638  -1.522 -33.462  1.00  0.00     0.048 A 
HETATM   19  C   UNL     1      -4.291  -1.835 -33.239  1.00  0.00     0.016 A 
HETATM   20  C   UNL     1      -3.605  -1.264 -32.168  1.00  0.00     0.001 A 
HETATM   21  C   UNL     1      -4.252  -0.370 -31.313  1.00  0.00     0.007 A 
BRANCH  18  22
HETATM   22  C   UNL     1      -6.403  -2.143 -34.605  1.00  0.00     0.417 C 
HETATM   23  F   UNL     1      -7.197  -1.263 -35.277  1.00  0.00    -0.166 F 
HETATM   24  F   UNL     1      -5.585  -2.697 -35.544  1.00  0.00    -0.166 F 
HETATM   25  F   UNL     1      -7.225  -3.147 -34.190  1.00  0.00    -0.166 F 
ENDBRANCH  18  22
ENDBRANCH  15  16
ENDBRANCH  12  15
ENDBRANCH   1  11
BRANCH   8  26
HETATM   26  C   UNL     1     -12.541   2.686 -35.191  1.00  0.00     0.270 C 
HETATM   27  N   UNL     1     -11.834   3.136 -36.273  1.00  0.00    -0.365 N 
HETATM   28  H   UNL     1     -11.265   3.967 -36.171  1.00  0.00     0.159 HD
HETATM   29  H   UNL     1     -11.885   2.633 -37.145  1.00  0.00     0.159 HD
HETATM   30  O   UNL     1     -13.239   1.680 -35.264  1.00  0.00    -0.266 OA
ENDBRANCH   8  26
TORSDOF 5
ENDMDL
MODEL 9
REMARK VINA RESULT:      -8.5      2.667      3.687
REMARK  5 active torsions:
REMARK  status: ('A' for Active; 'I' for Inactive)
REMARK    1  A    between atoms: C_3  and  C_4 
REMARK    2  A    between atoms: C_9  and  C_10 
REMARK    3  A    between atoms: C_10  and  C_11 
REMARK       I    between atoms: C_11  and  N_12 
REMARK    4  A    between atoms: N_12  and  C_13 
REMARK    5  A    between atoms: C_20  and  C_21 
REMARK       I    between atoms: C_21  and  N_22 
ROOT
HETATM    1  C   UNL     1      -7.588   0.904 -33.504  1.00  0.00     0.035 A 
HETATM    2  C   UNL     1      -8.138   2.118 -33.937  1.00  0.00     0.046 A 
HETATM    3  C   UNL     1      -9.526   2.346 -33.803  1.00  0.00     0.030 A 
HETATM    4  C   UNL     1     -10.317   1.349 -33.247  1.00  0.00     0.063 A 
HETATM    5  N   UNL     1     -11.589   1.852 -33.247  1.00  0.00    -0.277 N 
HETATM    6  H   UNL     1     -12.430   1.397 -32.910  1.00  0.00     0.189 HD
HETATM    7  N   UNL     1     -11.696   3.092 -33.753  1.00  0.00    -0.168 NA
HETATM    8  C   UNL     1     -10.428   3.412 -34.101  1.00  0.00     0.156 A 
HETATM    9  C   UNL     1      -9.807   0.125 -32.809  1.00  0.00     0.034 A 
HETATM   10  C   UNL     1      -8.426  -0.073 -32.948  1.00  0.00     0.032 A 
ENDROOT
BRANCH   1  11
HETATM   11  N   UNL     1      -6.209   0.602 -33.562  1.00  0.00    -0.327 N 
HETATM   12  C   UNL     1      -5.311   0.566 -32.506  1.00  0.00     0.226 C 
HETATM   13  O   UNL     1      -5.531   0.920 -31.353  1.00  0.00    -0.273 OA
HETATM   14  H   UNL     1      -5.832   0.417 -34.483  1.00  0.00     0.169 HD
BRANCH  12  15
HETATM   15  C   UNL     1      -3.944   0.028 -32.905  1.00  0.00     0.141 C 
BRANCH  15  16
HETATM   16  C   UNL     1      -3.808  -1.478 -32.902  1.00  0.00    -0.049 A 
HETATM   17  C   UNL     1      -4.576  -2.231 -33.807  1.00  0.00     0.023 A 
HETATM   18  C   UNL     1      -4.549  -3.636 -33.797  1.00  0.00     0.048 A 
HETATM   19  C   UNL     1      -3.729  -4.291 -32.869  1.00  0.00     0.016 A 
HETATM   20  C   UNL     1      -2.972  -3.556 -31.957  1.00  0.00     0.001 A 
HETATM   21  C   UNL     1      -3.020  -2.159 -31.966  1.00  0.00     0.007 A 
BRANCH  18  22
HETATM   22  C   UNL     1      -5.388  -4.415 -34.779  1.00  0.00     0.417 C 
HETATM   23  F   UNL     1      -4.864  -5.629 -35.107  1.00  0.00    -0.166 F 
HETATM   24  F   UNL     1      -6.644  -4.666 -34.314  1.00  0.00    -0.166 F 
HETATM   25  F   UNL     1      -5.556  -3.750 -35.957  1.00  0.00    -0.166 F 
ENDBRANCH  18  22
ENDBRANCH  15  16
ENDBRANCH  12  15
ENDBRANCH   1  11
BRANCH   8  26
HETATM   26  C   UNL     1     -10.110   4.716 -34.698  1.00  0.00     0.270 C 
HETATM   27  N   UNL     1     -11.158   5.301 -35.355  1.00  0.00    -0.365 N 
HETATM   28  H   UNL     1     -12.047   4.816 -35.380  1.00  0.00     0.159 HD
HETATM   29  H   UNL     1     -11.033   6.200 -35.793  1.00  0.00     0.159 HD
HETATM   30  O   UNL     1      -9.016   5.268 -34.633  1.00  0.00    -0.266 OA
ENDBRANCH   8  26
TORSDOF 5
ENDMDL
MODEL 10
REMARK VINA RESULT:      -8.4      4.791      7.486
REMARK  5 active torsions:
REMARK  status: ('A' for Active; 'I' for Inactive)
REMARK    1  A    between atoms: C_3  and  C_4 
REMARK    2  A    between atoms: C_9  and  C_10 
REMARK    3  A    between atoms: C_10  and  C_11 
REMARK       I    between atoms: C_11  and  N_12 
REMARK    4  A    between atoms: N_12  and  C_13 
REMARK    5  A    between atoms: C_20  and  C_21 
REMARK       I    between atoms: C_21  and  N_22 
ROOT
HETATM    1  C   UNL     1      -5.689   3.403 -31.465  1.00  0.00     0.035 A 
HETATM    2  C   UNL     1      -4.353   3.717 -31.749  1.00  0.00     0.046 A 
HETATM    3  C   UNL     1      -3.768   4.871 -31.181  1.00  0.00     0.030 A 
HETATM    4  C   UNL     1      -4.542   5.675 -30.352  1.00  0.00     0.063 A 
HETATM    5  N   UNL     1      -3.716   6.692 -29.961  1.00  0.00    -0.277 N 
HETATM    6  H   UNL     1      -3.945   7.467 -29.348  1.00  0.00     0.189 HD
HETATM    7  N   UNL     1      -2.471   6.622 -30.460  1.00  0.00    -0.168 NA
HETATM    8  C   UNL     1      -2.487   5.500 -31.216  1.00  0.00     0.156 A 
HETATM    9  C   UNL     1      -5.876   5.397 -30.050  1.00  0.00     0.034 A 
HETATM   10  C   UNL     1      -6.430   4.243 -30.622  1.00  0.00     0.032 A 
ENDROOT
BRANCH   1  11
HETATM   11  N   UNL     1      -6.346   2.252 -31.956  1.00  0.00    -0.327 N 
HETATM   12  C   UNL     1      -6.586   1.922 -33.280  1.00  0.00     0.226 C 
HETATM   13  O   UNL     1      -6.385   2.639 -34.256  1.00  0.00    -0.273 OA
HETATM   14  H   UNL     1      -6.702   1.611 -31.258  1.00  0.00     0.169 HD
BRANCH  12  15
HETATM   15  C   UNL     1      -7.157   0.522 -33.451  1.00  0.00     0.141 C 
BRANCH  15  16
HETATM   16  C   UNL     1      -6.144  -0.572 -33.704  1.00  0.00    -0.049 A 
HETATM   17  C   UNL     1      -6.596  -1.825 -34.151  1.00  0.00     0.023 A 
HETATM   18  C   UNL     1      -5.710  -2.902 -34.329  1.00  0.00     0.048 A 
HETATM   19  C   UNL     1      -4.348  -2.709 -34.061  1.00  0.00     0.016 A 
HETATM   20  C   UNL     1      -3.890  -1.474 -33.604  1.00  0.00     0.001 A 
HETATM   21  C   UNL     1      -4.783  -0.417 -33.416  1.00  0.00     0.007 A 
BRANCH  18  22
HETATM   22  C   UNL     1      -6.228  -4.236 -34.807  1.00  0.00     0.417 C 
HETATM   23  F   UNL     1      -5.446  -5.291 -34.442  1.00  0.00    -0.166 F 
HETATM   24  F   UNL     1      -7.475  -4.516 -34.332  1.00  0.00    -0.166 F 
HETATM   25  F   UNL     1      -6.327  -4.295 -36.164  1.00  0.00    -0.166 F 
ENDBRANCH  18  22
ENDBRANCH  15  16
ENDBRANCH  12  15
ENDBRANCH   1  11
BRANCH   8  26
HETATM   26  C   UNL     1      -1.289   5.057 -31.943  1.00  0.00     0.270 C 
HETATM   27  N   UNL     1      -1.442   5.022 -33.302  1.00  0.00    -0.365 N 
HETATM   28  H   UNL     1      -2.331   5.298 -33.699  1.00  0.00     0.159 HD
HETATM   29  H   UNL     1      -0.670   4.734 -33.883  1.00  0.00     0.159 HD
HETATM   30  O   UNL     1      -0.228   4.739 -31.416  1.00  0.00    -0.266 OA
ENDBRANCH   8  26
TORSDOF 5
ENDMDL
