MODEL 1
REMARK VINA RESULT:      -8.2      0.000      0.000
REMARK  4 active torsions:
REMARK  status: ('A' for Active; 'I' for Inactive)
REMARK    1  A    between atoms: C_9  and  C_10 
REMARK    2  A    between atoms: C_17  and  C_18 
REMARK       I    between atoms: C_18  and  N_19 
REMARK    3  A    between atoms: N_19  and  C_20 
REMARK    4  A    between atoms: C_23  and  O_24 
ROOT
HETATM    1  C   UNL     1      -7.603   3.944 -29.698  1.00  0.00     0.070 C 
HETATM    2  C   UNL     1      -7.060   3.699 -31.085  1.00  0.00     0.037 C 
HETATM    3  N   UNL     1      -5.836   4.303 -31.360  1.00  0.00    -0.192 N 
HETATM    4  C   UNL     1      -5.372   4.469 -32.616  1.00  0.00     0.725 A 
HETATM    5  N   UNL     1      -6.005   3.838 -33.652  1.00  0.00    -0.084 N 
HETATM    6  N   UNL     1      -5.468   4.185 -34.840  1.00  0.00    -0.149 NA
HETATM    7  C   UNL     1      -4.486   4.999 -34.437  1.00  0.00     0.275 A 
HETATM    8  N   UNL     1      -4.389   5.194 -33.082  1.00  0.00    -0.054 NA
HETATM    9  C   UNL     1      -7.147   2.932 -33.483  1.00  0.00     0.202 C 
HETATM   10  C   UNL     1      -7.712   3.024 -32.067  1.00  0.00     0.062 C 
HETATM   11  H   UNL     1      -5.429   4.888 -30.633  1.00  0.00     0.184 HD
ENDROOT
BRANCH  10  12
HETATM   12  C   UNL     1      -9.084   2.462 -31.937  1.00  0.00     0.256 C 
HETATM   13  N   UNL     1     -10.047   3.149 -32.642  1.00  0.00    -0.323 N 
HETATM   14  H   UNL     1      -9.760   3.996 -33.116  1.00  0.00     0.169 HD
HETATM   15  O   UNL     1      -9.250   1.495 -31.203  1.00  0.00    -0.267 OA
BRANCH  13  16
HETATM   16  C   UNL     1     -11.397   2.772 -32.820  1.00  0.00     0.035 A 
HETATM   17  C   UNL     1     -12.477   3.443 -32.247  1.00  0.00     0.032 A 
HETATM   18  C   UNL     1     -13.784   2.985 -32.447  1.00  0.00     0.039 A 
HETATM   19  C   UNL     1     -14.038   1.852 -33.220  1.00  0.00     0.068 A 
HETATM   20  C   UNL     1     -12.965   1.174 -33.793  1.00  0.00     0.039 A 
HETATM   21  C   UNL     1     -11.654   1.634 -33.597  1.00  0.00     0.032 A 
BRANCH  19  22
HETATM   22  O   UNL     1     -15.358   1.517 -33.327  1.00  0.00    -0.356 OA
HETATM   23  C   UNL     1     -16.269   2.206 -32.482  1.00  0.00     0.210 C 
ENDBRANCH  19  22
ENDBRANCH  13  16
ENDBRANCH  10  12
BRANCH   9  24
HETATM   24  C   UNL     1      -6.747   1.501 -33.849  1.00  0.00    -0.028 A 
HETATM   25  C   UNL     1      -5.693   0.834 -33.197  1.00  0.00     0.011 A 
HETATM   26  C   UNL     1      -5.333  -0.464 -33.566  1.00  0.00     0.024 A 
HETATM   27  C   UNL     1      -6.033  -1.115 -34.580  1.00  0.00     0.034 A 
HETATM   28 CL   UNL     1      -5.581  -2.709 -35.040  1.00  0.00    -0.084 Cl
HETATM   29  C   UNL     1      -7.093  -0.480 -35.222  1.00  0.00     0.024 A 
HETATM   30  C   UNL     1      -7.452   0.819 -34.856  1.00  0.00     0.011 A 
ENDBRANCH   9  24
TORSDOF 4
ENDMDL
MODEL 2
REMARK VINA RESULT:      -8.2      4.694      6.395
REMARK  4 active torsions:
REMARK  status: ('A' for Active; 'I' for Inactive)
REMARK    1  A    between atoms: C_9  and  C_10 
REMARK    2  A    between atoms: C_17  and  C_18 
REMARK       I    between atoms: C_18  and  N_19 
REMARK    3  A    between atoms: N_19  and  C_20 
REMARK    4  A    between atoms: C_23  and  O_24 
ROOT
HETATM    1  C   UNL     1      -5.997   1.345 -29.375  1.00  0.00     0.070 C 
HETATM    2  C   UNL     1      -5.810   2.694 -30.025  1.00  0.00     0.037 C 
HETATM    3  N   UNL     1      -5.626   3.759 -29.145  1.00  0.00    -0.192 N 
HETATM    4  C   UNL     1      -5.775   5.046 -29.519  1.00  0.00     0.725 A 
HETATM    5  N   UNL     1      -5.897   5.348 -30.848  1.00  0.00    -0.084 N 
HETATM    6  N   UNL     1      -6.128   6.664 -31.034  1.00  0.00    -0.149 NA
HETATM    7  C   UNL     1      -6.090   7.100 -29.770  1.00  0.00     0.275 A 
HETATM    8  N   UNL     1      -5.870   6.143 -28.813  1.00  0.00    -0.054 NA
HETATM    9  C   UNL     1      -5.824   4.351 -31.923  1.00  0.00     0.202 C 
HETATM   10  C   UNL     1      -5.896   2.934 -31.360  1.00  0.00     0.062 C 
HETATM   11  H   UNL     1      -5.673   3.555 -28.149  1.00  0.00     0.184 HD
ENDROOT
BRANCH  10  12
HETATM   12  C   UNL     1      -6.234   1.905 -32.380  1.00  0.00     0.256 C 
HETATM   13  N   UNL     1      -5.261   0.947 -32.564  1.00  0.00    -0.323 N 
HETATM   14  H   UNL     1      -4.393   1.065 -32.057  1.00  0.00     0.169 HD
HETATM   15  O   UNL     1      -7.293   2.012 -32.986  1.00  0.00    -0.267 OA
BRANCH  13  16
HETATM   16  C   UNL     1      -5.359  -0.220 -33.354  1.00  0.00     0.035 A 
HETATM   17  C   UNL     1      -6.463  -0.535 -34.146  1.00  0.00     0.032 A 
HETATM   18  C   UNL     1      -6.495  -1.729 -34.875  1.00  0.00     0.039 A 
HETATM   19  C   UNL     1      -5.430  -2.628 -34.827  1.00  0.00     0.068 A 
HETATM   20  C   UNL     1      -4.325  -2.323 -34.036  1.00  0.00     0.039 A 
HETATM   21  C   UNL     1      -4.290  -1.124 -33.307  1.00  0.00     0.032 A 
BRANCH  19  22
HETATM   22  O   UNL     1      -5.597  -3.754 -35.584  1.00  0.00    -0.356 OA
HETATM   23  C   UNL     1      -6.704  -4.586 -35.266  1.00  0.00     0.210 C 
ENDBRANCH  19  22
ENDBRANCH  13  16
ENDBRANCH  10  12
BRANCH   9  24
HETATM   24  C   UNL     1      -4.563   4.571 -32.763  1.00  0.00    -0.028 A 
HETATM   25  C   UNL     1      -3.280   4.260 -32.273  1.00  0.00     0.011 A 
HETATM   26  C   UNL     1      -2.145   4.491 -33.053  1.00  0.00     0.024 A 
HETATM   27  C   UNL     1      -2.279   5.020 -34.335  1.00  0.00     0.034 A 
HETATM   28 CL   UNL     1      -0.878   5.314 -35.288  1.00  0.00    -0.084 Cl
HETATM   29  C   UNL     1      -3.541   5.312 -34.845  1.00  0.00     0.024 A 
HETATM   30  C   UNL     1      -4.678   5.085 -34.066  1.00  0.00     0.011 A 
ENDBRANCH   9  24
TORSDOF 4
ENDMDL
MODEL 3
REMARK VINA RESULT:      -8.0      3.473      7.031
REMARK  4 active torsions:
REMARK  status: ('A' for Active; 'I' for Inactive)
REMARK    1  A    between atoms: C_9  and  C_10 
REMARK    2  A    between atoms: C_17  and  C_18 
REMARK       I    between atoms: C_18  and  N_19 
REMARK    3  A    between atoms: N_19  and  C_20 
REMARK    4  A    between atoms: C_23  and  O_24 
ROOT
HETATM    1  C   UNL     1     -11.398   0.442 -33.475  1.00  0.00     0.070 C 
HETATM    2  C   UNL     1     -10.608   1.727 -33.514  1.00  0.00     0.037 C 
HETATM    3  N   UNL     1     -11.324   2.855 -33.909  1.00  0.00    -0.192 N 
HETATM    4  C   UNL     1     -10.725   3.993 -34.315  1.00  0.00     0.725 A 
HETATM    5  N   UNL     1      -9.377   4.140 -34.134  1.00  0.00    -0.084 N 
HETATM    6  N   UNL     1      -8.931   5.292 -34.677  1.00  0.00    -0.149 NA
HETATM    7  C   UNL     1     -10.078   5.808 -35.132  1.00  0.00     0.275 A 
HETATM    8  N   UNL     1     -11.200   5.047 -34.925  1.00  0.00    -0.054 NA
HETATM    9  C   UNL     1      -8.527   3.146 -33.467  1.00  0.00     0.202 C 
HETATM   10  C   UNL     1      -9.274   1.828 -33.280  1.00  0.00     0.062 C 
HETATM   11  H   UNL     1     -12.297   2.720 -34.178  1.00  0.00     0.184 HD
ENDROOT
BRANCH  10  12
HETATM   12  C   UNL     1      -8.379   0.673 -32.994  1.00  0.00     0.256 C 
HETATM   13  N   UNL     1      -7.755   0.150 -34.106  1.00  0.00    -0.323 N 
HETATM   14  H   UNL     1      -8.009   0.538 -35.005  1.00  0.00     0.169 HD
HETATM   15  O   UNL     1      -8.305   0.265 -31.841  1.00  0.00    -0.267 OA
BRANCH  13  16
HETATM   16  C   UNL     1      -6.754  -0.846 -34.125  1.00  0.00     0.035 A 
HETATM   17  C   UNL     1      -5.453  -0.654 -33.659  1.00  0.00     0.032 A 
HETATM   18  C   UNL     1      -4.510  -1.684 -33.743  1.00  0.00     0.039 A 
HETATM   19  C   UNL     1      -4.845  -2.921 -34.293  1.00  0.00     0.068 A 
HETATM   20  C   UNL     1      -6.141  -3.120 -34.764  1.00  0.00     0.039 A 
HETATM   21  C   UNL     1      -7.089  -2.089 -34.676  1.00  0.00     0.032 A 
BRANCH  19  22
HETATM   22  O   UNL     1      -3.827  -3.832 -34.316  1.00  0.00    -0.356 OA
HETATM   23  C   UNL     1      -3.418  -4.374 -33.067  1.00  0.00     0.210 C 
ENDBRANCH  19  22
ENDBRANCH  13  16
ENDBRANCH  10  12
BRANCH   9  24
HETATM   24  C   UNL     1      -8.003   3.702 -32.141  1.00  0.00    -0.028 A 
HETATM   25  C   UNL     1      -8.870   4.062 -31.092  1.00  0.00     0.011 A 
HETATM   26  C   UNL     1      -8.366   4.588 -29.900  1.00  0.00     0.024 A 
HETATM   27  C   UNL     1      -6.991   4.745 -29.738  1.00  0.00     0.034 A 
HETATM   28 CL   UNL     1      -6.375   5.403 -28.273  1.00  0.00    -0.084 Cl
HETATM   29  C   UNL     1      -6.117   4.373 -30.755  1.00  0.00     0.024 A 
HETATM   30  C   UNL     1      -6.619   3.850 -31.949  1.00  0.00     0.011 A 
ENDBRANCH   9  24
TORSDOF 4
ENDMDL
MODEL 4
REMARK VINA RESULT:      -8.0      2.656      7.119
REMARK  4 active torsions:
REMARK  status: ('A' for Active; 'I' for Inactive)
REMARK    1  A    between atoms: C_9  and  C_10 
REMARK    2  A    between atoms: C_17  and  C_18 
REMARK       I    between atoms: C_18  and  N_19 
REMARK    3  A    between atoms: N_19  and  C_20 
REMARK    4  A    between atoms: C_23  and  O_24 
ROOT
HETATM    1  C   UNL     1      -9.189   5.237 -34.593  1.00  0.00     0.070 C 
HETATM    2  C   UNL     1      -9.474   3.790 -34.272  1.00  0.00     0.037 C 
HETATM    3  N   UNL     1     -10.617   3.262 -34.869  1.00  0.00    -0.192 N 
HETATM    4  C   UNL     1     -11.199   2.121 -34.444  1.00  0.00     0.725 A 
HETATM    5  N   UNL     1     -10.540   1.329 -33.544  1.00  0.00    -0.084 N 
HETATM    6  N   UNL     1     -11.301   0.283 -33.162  1.00  0.00    -0.149 NA
HETATM    7  C   UNL     1     -12.392   0.488 -33.908  1.00  0.00     0.275 A 
HETATM    8  N   UNL     1     -12.367   1.599 -34.711  1.00  0.00    -0.054 NA
HETATM    9  C   UNL     1      -9.193   1.614 -33.036  1.00  0.00     0.202 C 
HETATM   10  C   UNL     1      -8.759   3.031 -33.402  1.00  0.00     0.062 C 
HETATM   11  H   UNL     1     -11.185   3.893 -35.430  1.00  0.00     0.184 HD
ENDROOT
BRANCH  10  12
HETATM   12  C   UNL     1      -7.611   3.528 -32.596  1.00  0.00     0.256 C 
HETATM   13  N   UNL     1      -6.375   3.262 -33.145  1.00  0.00    -0.323 N 
HETATM   14  H   UNL     1      -6.354   2.702 -33.988  1.00  0.00     0.169 HD
HETATM   15  O   UNL     1      -7.844   4.076 -31.526  1.00  0.00    -0.267 OA
BRANCH  13  16
HETATM   16  C   UNL     1      -5.125   3.730 -32.684  1.00  0.00     0.035 A 
HETATM   17  C   UNL     1      -4.635   5.014 -32.924  1.00  0.00     0.032 A 
HETATM   18  C   UNL     1      -3.370   5.389 -32.458  1.00  0.00     0.039 A 
HETATM   19  C   UNL     1      -2.572   4.493 -31.747  1.00  0.00     0.068 A 
HETATM   20  C   UNL     1      -3.052   3.208 -31.506  1.00  0.00     0.039 A 
HETATM   21  C   UNL     1      -4.323   2.832 -31.969  1.00  0.00     0.032 A 
BRANCH  19  22
HETATM   22  O   UNL     1      -1.360   4.990 -31.357  1.00  0.00    -0.356 OA
HETATM   23  C   UNL     1      -0.875   6.127 -32.059  1.00  0.00     0.210 C 
ENDBRANCH  19  22
ENDBRANCH  13  16
ENDBRANCH  10  12
BRANCH   9  24
HETATM   24  C   UNL     1      -8.203   0.562 -33.543  1.00  0.00    -0.028 A 
HETATM   25  C   UNL     1      -8.036   0.299 -34.915  1.00  0.00     0.011 A 
HETATM   26  C   UNL     1      -7.141  -0.682 -35.350  1.00  0.00     0.024 A 
HETATM   27  C   UNL     1      -6.394  -1.399 -34.419  1.00  0.00     0.034 A 
HETATM   28 CL   UNL     1      -5.301  -2.614 -34.956  1.00  0.00    -0.084 Cl
HETATM   29  C   UNL     1      -6.528  -1.138 -33.058  1.00  0.00     0.024 A 
HETATM   30  C   UNL     1      -7.425  -0.160 -32.621  1.00  0.00     0.011 A 
ENDBRANCH   9  24
TORSDOF 4
ENDMDL
MODEL 5
REMARK VINA RESULT:      -8.0      2.188      2.929
REMARK  4 active torsions:
REMARK  status: ('A' for Active; 'I' for Inactive)
REMARK    1  A    between atoms: C_9  and  C_10 
REMARK    2  A    between atoms: C_17  and  C_18 
REMARK       I    between atoms: C_18  and  N_19 
REMARK    3  A    between atoms: N_19  and  C_20 
REMARK    4  A    between atoms: C_23  and  O_24 
ROOT
HETATM    1  C   UNL     1      -6.064   4.894 -29.170  1.00  0.00     0.070 C 
HETATM    2  C   UNL     1      -5.219   4.311 -30.276  1.00  0.00     0.037 C 
HETATM    3  N   UNL     1      -3.950   4.870 -30.414  1.00  0.00    -0.192 N 
HETATM    4  C   UNL     1      -3.203   4.714 -31.526  1.00  0.00     0.725 A 
HETATM    5  N   UNL     1      -3.591   3.803 -32.471  1.00  0.00    -0.084 N 
HETATM    6  N   UNL     1      -2.786   3.843 -33.552  1.00  0.00    -0.149 NA
HETATM    7  C   UNL     1      -1.906   4.774 -33.168  1.00  0.00     0.275 A 
HETATM    8  N   UNL     1      -2.122   5.328 -31.931  1.00  0.00    -0.054 NA
HETATM    9  C   UNL     1      -4.762   2.929 -32.332  1.00  0.00     0.202 C 
HETATM   10  C   UNL     1      -5.638   3.371 -31.163  1.00  0.00     0.062 C 
HETATM   11  H   UNL     1      -3.711   5.644 -29.798  1.00  0.00     0.184 HD
ENDROOT
BRANCH  10  12
HETATM   12  C   UNL     1      -7.016   2.808 -31.205  1.00  0.00     0.256 C 
HETATM   13  N   UNL     1      -7.634   2.914 -32.431  1.00  0.00    -0.323 N 
HETATM   14  H   UNL     1      -7.141   3.418 -33.157  1.00  0.00     0.169 HD
HETATM   15  O   UNL     1      -7.489   2.351 -30.172  1.00  0.00    -0.267 OA
BRANCH  13  16
HETATM   16  C   UNL     1      -8.874   2.350 -32.806  1.00  0.00     0.035 A 
HETATM   17  C   UNL     1      -9.136   0.980 -32.818  1.00  0.00     0.032 A 
HETATM   18  C   UNL     1     -10.383   0.500 -33.234  1.00  0.00     0.039 A 
HETATM   19  C   UNL     1     -11.388   1.375 -33.645  1.00  0.00     0.068 A 
HETATM   20  C   UNL     1     -11.133   2.744 -33.641  1.00  0.00     0.039 A 
HETATM   21  C   UNL     1      -9.885   3.227 -33.219  1.00  0.00     0.032 A 
BRANCH  19  22
HETATM   22  O   UNL     1     -12.552   0.770 -34.029  1.00  0.00    -0.356 OA
HETATM   23  C   UNL     1     -13.614   1.619 -34.443  1.00  0.00     0.210 C 
ENDBRANCH  19  22
ENDBRANCH  13  16
ENDBRANCH  10  12
BRANCH   9  24
HETATM   24  C   UNL     1      -4.319   1.470 -32.197  1.00  0.00    -0.028 A 
HETATM   25  C   UNL     1      -3.332   1.075 -31.275  1.00  0.00     0.011 A 
HETATM   26  C   UNL     1      -2.931  -0.260 -31.188  1.00  0.00     0.024 A 
HETATM   27  C   UNL     1      -3.522  -1.217 -32.010  1.00  0.00     0.034 A 
HETATM   28 CL   UNL     1      -3.019  -2.858 -31.908  1.00  0.00    -0.084 Cl
HETATM   29  C   UNL     1      -4.517  -0.850 -32.912  1.00  0.00     0.024 A 
HETATM   30  C   UNL     1      -4.917   0.486 -33.003  1.00  0.00     0.011 A 
ENDBRANCH   9  24
TORSDOF 4
ENDMDL
MODEL 6
REMARK VINA RESULT:      -7.9      3.086      6.768
REMARK  4 active torsions:
REMARK  status: ('A' for Active; 'I' for Inactive)
REMARK    1  A    between atoms: C_9  and  C_10 
REMARK    2  A    between atoms: C_17  and  C_18 
REMARK       I    between atoms: C_18  and  N_19 
REMARK    3  A    between atoms: N_19  and  C_20 
REMARK    4  A    between atoms: C_23  and  O_24 
ROOT
HETATM    1  C   UNL     1      -5.460   4.463 -34.294  1.00  0.00     0.070 C 
HETATM    2  C   UNL     1      -6.631   4.132 -33.401  1.00  0.00     0.037 C 
HETATM    3  N   UNL     1      -7.089   5.180 -32.607  1.00  0.00    -0.192 N 
HETATM    4  C   UNL     1      -7.884   4.987 -31.534  1.00  0.00     0.725 A 
HETATM    5  N   UNL     1      -8.448   3.757 -31.332  1.00  0.00    -0.084 N 
HETATM    6  N   UNL     1      -9.135   3.717 -30.171  1.00  0.00    -0.149 NA
HETATM    7  C   UNL     1      -8.976   4.976 -29.749  1.00  0.00     0.275 A 
HETATM    8  N   UNL     1      -8.223   5.788 -30.557  1.00  0.00    -0.054 NA
HETATM    9  C   UNL     1      -8.284   2.622 -32.247  1.00  0.00     0.202 C 
HETATM   10  C   UNL     1      -7.185   2.898 -33.270  1.00  0.00     0.062 C 
HETATM   11  H   UNL     1      -6.581   6.061 -32.657  1.00  0.00     0.184 HD
ENDROOT
BRANCH  10  12
HETATM   12  C   UNL     1      -6.687   1.674 -33.954  1.00  0.00     0.256 C 
HETATM   13  N   UNL     1      -6.154   0.727 -33.107  1.00  0.00    -0.323 N 
HETATM   14  H   UNL     1      -6.081   0.971 -32.128  1.00  0.00     0.169 HD
HETATM   15  O   UNL     1      -6.749   1.625 -35.177  1.00  0.00    -0.267 OA
BRANCH  13  16
HETATM   16  C   UNL     1      -5.737  -0.578 -33.451  1.00  0.00     0.035 A 
HETATM   17  C   UNL     1      -4.460  -1.080 -33.203  1.00  0.00     0.032 A 
HETATM   18  C   UNL     1      -4.117  -2.376 -33.604  1.00  0.00     0.039 A 
HETATM   19  C   UNL     1      -5.039  -3.193 -34.258  1.00  0.00     0.068 A 
HETATM   20  C   UNL     1      -6.316  -2.698 -34.513  1.00  0.00     0.039 A 
HETATM   21  C   UNL     1      -6.662  -1.400 -34.107  1.00  0.00     0.032 A 
BRANCH  19  22
HETATM   22  O   UNL     1      -4.569  -4.430 -34.596  1.00  0.00    -0.356 OA
HETATM   23  C   UNL     1      -3.469  -4.929 -33.846  1.00  0.00     0.210 C 
ENDBRANCH  19  22
ENDBRANCH  13  16
ENDBRANCH  10  12
BRANCH   9  24
HETATM   24  C   UNL     1      -9.619   2.285 -32.917  1.00  0.00    -0.028 A 
HETATM   25  C   UNL     1     -10.384   3.263 -33.581  1.00  0.00     0.011 A 
HETATM   26  C   UNL     1     -11.610   2.933 -34.164  1.00  0.00     0.024 A 
HETATM   27  C   UNL     1     -12.076   1.622 -34.104  1.00  0.00     0.034 A 
HETATM   28 CL   UNL     1     -13.590   1.222 -34.814  1.00  0.00    -0.084 Cl
HETATM   29  C   UNL     1     -11.323   0.637 -33.472  1.00  0.00     0.024 A 
HETATM   30  C   UNL     1     -10.099   0.965 -32.884  1.00  0.00     0.011 A 
ENDBRANCH   9  24
TORSDOF 4
ENDMDL
MODEL 7
REMARK VINA RESULT:      -7.7      3.601      6.981
REMARK  4 active torsions:
REMARK  status: ('A' for Active; 'I' for Inactive)
REMARK    1  A    between atoms: C_9  and  C_10 
REMARK    2  A    between atoms: C_17  and  C_18 
REMARK       I    between atoms: C_18  and  N_19 
REMARK    3  A    between atoms: N_19  and  C_20 
REMARK    4  A    between atoms: C_23  and  O_24 
ROOT
HETATM    1  C   UNL     1     -10.079   0.334 -32.893  1.00  0.00     0.070 C 
HETATM    2  C   UNL     1      -9.533   1.712 -33.181  1.00  0.00     0.037 C 
HETATM    3  N   UNL     1     -10.363   2.770 -32.819  1.00  0.00    -0.192 N 
HETATM    4  C   UNL     1     -10.195   4.022 -33.291  1.00  0.00     0.725 A 
HETATM    5  N   UNL     1      -9.051   4.331 -33.975  1.00  0.00    -0.084 N 
HETATM    6  N   UNL     1      -9.089   5.593 -34.451  1.00  0.00    -0.149 NA
HETATM    7  C   UNL     1     -10.273   5.998 -33.976  1.00  0.00     0.275 A 
HETATM    8  N   UNL     1     -10.978   5.069 -33.255  1.00  0.00    -0.054 NA
HETATM    9  C   UNL     1      -7.948   3.388 -34.192  1.00  0.00     0.202 C 
HETATM   10  C   UNL     1      -8.365   1.966 -33.826  1.00  0.00     0.062 C 
HETATM   11  H   UNL     1     -11.276   2.537 -32.434  1.00  0.00     0.184 HD
ENDROOT
BRANCH  10  12
HETATM   12  C   UNL     1      -7.468   0.920 -34.389  1.00  0.00     0.256 C 
HETATM   13  N   UNL     1      -6.771   0.201 -33.443  1.00  0.00    -0.323 N 
HETATM   14  H   UNL     1      -6.870   0.489 -32.477  1.00  0.00     0.169 HD
HETATM   15  O   UNL     1      -7.390   0.813 -35.607  1.00  0.00    -0.267 OA
BRANCH  13  16
HETATM   16  C   UNL     1      -5.962  -0.934 -33.668  1.00  0.00     0.035 A 
HETATM   17  C   UNL     1      -6.308  -1.983 -34.520  1.00  0.00     0.032 A 
HETATM   18  C   UNL     1      -5.464  -3.089 -34.663  1.00  0.00     0.039 A 
HETATM   19  C   UNL     1      -4.261  -3.171 -33.961  1.00  0.00     0.068 A 
HETATM   20  C   UNL     1      -3.910  -2.130 -33.105  1.00  0.00     0.039 A 
HETATM   21  C   UNL     1      -4.754  -1.018 -32.963  1.00  0.00     0.032 A 
BRANCH  19  22
HETATM   22  O   UNL     1      -3.539  -4.307 -34.193  1.00  0.00    -0.356 OA
HETATM   23  C   UNL     1      -3.971  -5.491 -33.536  1.00  0.00     0.210 C 
ENDBRANCH  19  22
ENDBRANCH  13  16
ENDBRANCH  10  12
BRANCH   9  24
HETATM   24  C   UNL     1      -6.707   3.839 -33.418  1.00  0.00    -0.028 A 
HETATM   25  C   UNL     1      -6.624   3.730 -32.017  1.00  0.00     0.011 A 
HETATM   26  C   UNL     1      -5.488   4.170 -31.334  1.00  0.00     0.024 A 
HETATM   27  C   UNL     1      -4.417   4.709 -32.044  1.00  0.00     0.034 A 
HETATM   28 CL   UNL     1      -3.024   5.260 -31.198  1.00  0.00    -0.084 Cl
HETATM   29  C   UNL     1      -4.471   4.805 -33.431  1.00  0.00     0.024 A 
HETATM   30  C   UNL     1      -5.607   4.369 -34.117  1.00  0.00     0.011 A 
ENDBRANCH   9  24
TORSDOF 4
ENDMDL
MODEL 8
REMARK VINA RESULT:      -7.5      3.970      7.794
REMARK  4 active torsions:
REMARK  status: ('A' for Active; 'I' for Inactive)
REMARK    1  A    between atoms: C_9  and  C_10 
REMARK    2  A    between atoms: C_17  and  C_18 
REMARK       I    between atoms: C_18  and  N_19 
REMARK    3  A    between atoms: N_19  and  C_20 
REMARK    4  A    between atoms: C_23  and  O_24 
ROOT
HETATM    1  C   UNL     1      -3.240   0.237 -30.770  1.00  0.00     0.070 C 
HETATM    2  C   UNL     1      -4.140  -0.187 -31.906  1.00  0.00     0.037 C 
HETATM    3  N   UNL     1      -4.155  -1.553 -32.176  1.00  0.00    -0.192 N 
HETATM    4  C   UNL     1      -4.624  -2.061 -33.334  1.00  0.00     0.725 A 
HETATM    5  N   UNL     1      -5.310  -1.247 -34.193  1.00  0.00    -0.084 N 
HETATM    6  N   UNL     1      -5.625  -1.891 -35.335  1.00  0.00    -0.149 NA
HETATM    7  C   UNL     1      -5.132  -3.107 -35.075  1.00  0.00     0.275 A 
HETATM    8  N   UNL     1      -4.517  -3.254 -33.858  1.00  0.00    -0.054 NA
HETATM    9  C   UNL     1      -5.623   0.160 -33.913  1.00  0.00     0.202 C 
HETATM   10  C   UNL     1      -4.838   0.663 -32.704  1.00  0.00     0.062 C 
HETATM   11  H   UNL     1      -3.537  -2.145 -31.625  1.00  0.00     0.184 HD
ENDROOT
BRANCH  10  12
HETATM   12  C   UNL     1      -4.785   2.147 -32.605  1.00  0.00     0.256 C 
HETATM   13  N   UNL     1      -3.515   2.675 -32.680  1.00  0.00    -0.323 N 
HETATM   14  H   UNL     1      -2.743   2.022 -32.721  1.00  0.00     0.169 HD
HETATM   15  O   UNL     1      -5.832   2.757 -32.426  1.00  0.00    -0.267 OA
BRANCH  13  16
HETATM   16  C   UNL     1      -3.169   4.043 -32.757  1.00  0.00     0.035 A 
HETATM   17  C   UNL     1      -3.085   4.761 -33.949  1.00  0.00     0.032 A 
HETATM   18  C   UNL     1      -2.704   6.107 -33.941  1.00  0.00     0.039 A 
HETATM   19  C   UNL     1      -2.401   6.761 -32.746  1.00  0.00     0.068 A 
HETATM   20  C   UNL     1      -2.479   6.050 -31.552  1.00  0.00     0.039 A 
HETATM   21  C   UNL     1      -2.865   4.701 -31.558  1.00  0.00     0.032 A 
BRANCH  19  22
HETATM   22  O   UNL     1      -2.040   8.071 -32.887  1.00  0.00    -0.356 OA
HETATM   23  C   UNL     1      -2.017   8.863 -31.707  1.00  0.00     0.210 C 
ENDBRANCH  19  22
ENDBRANCH  13  16
ENDBRANCH  10  12
BRANCH   9  24
HETATM   24  C   UNL     1      -7.132   0.341 -33.734  1.00  0.00    -0.028 A 
HETATM   25  C   UNL     1      -7.795  -0.068 -32.561  1.00  0.00     0.011 A 
HETATM   26  C   UNL     1      -9.177   0.089 -32.433  1.00  0.00     0.024 A 
HETATM   27  C   UNL     1      -9.908   0.670 -33.467  1.00  0.00     0.034 A 
HETATM   28 CL   UNL     1     -11.611   0.852 -33.310  1.00  0.00    -0.084 Cl
HETATM   29  C   UNL     1      -9.267   1.101 -34.625  1.00  0.00     0.024 A 
HETATM   30  C   UNL     1      -7.885   0.942 -34.757  1.00  0.00     0.011 A 
ENDBRANCH   9  24
TORSDOF 4
ENDMDL
MODEL 9
REMARK VINA RESULT:      -7.5      2.997      4.547
REMARK  4 active torsions:
REMARK  status: ('A' for Active; 'I' for Inactive)
REMARK    1  A    between atoms: C_9  and  C_10 
REMARK    2  A    between atoms: C_17  and  C_18 
REMARK       I    between atoms: C_18  and  N_19 
REMARK    3  A    between atoms: N_19  and  C_20 
REMARK    4  A    between atoms: C_23  and  O_24 
ROOT
HETATM    1  C   UNL     1      -7.483  -0.914 -34.759  1.00  0.00     0.070 C 
HETATM    2  C   UNL     1      -6.523  -0.345 -33.742  1.00  0.00     0.037 C 
HETATM    3  N   UNL     1      -5.190  -0.710 -33.912  1.00  0.00    -0.192 N 
HETATM    4  C   UNL     1      -4.268  -0.576 -32.937  1.00  0.00     0.725 A 
HETATM    5  N   UNL     1      -4.582   0.140 -31.814  1.00  0.00    -0.084 N 
HETATM    6  N   UNL     1      -3.583   0.095 -30.908  1.00  0.00    -0.149 NA
HETATM    7  C   UNL     1      -2.680  -0.633 -31.575  1.00  0.00     0.275 A 
HETATM    8  N   UNL     1      -3.058  -1.058 -32.823  1.00  0.00    -0.054 NA
HETATM    9  C   UNL     1      -5.862   0.829 -31.614  1.00  0.00     0.202 C 
HETATM   10  C   UNL     1      -6.883   0.401 -32.665  1.00  0.00     0.062 C 
HETATM   11  H   UNL     1      -4.975  -1.356 -34.669  1.00  0.00     0.184 HD
ENDROOT
BRANCH  10  12
HETATM   12  C   UNL     1      -8.287   0.731 -32.300  1.00  0.00     0.256 C 
HETATM   13  N   UNL     1      -8.935   1.539 -33.208  1.00  0.00    -0.323 N 
HETATM   14  H   UNL     1      -8.392   1.890 -33.987  1.00  0.00     0.169 HD
HETATM   15  O   UNL     1      -8.726   0.309 -31.237  1.00  0.00    -0.267 OA
BRANCH  13  16
HETATM   16  C   UNL     1     -10.301   1.898 -33.199  1.00  0.00     0.035 A 
HETATM   17  C   UNL     1     -10.793   3.084 -32.655  1.00  0.00     0.032 A 
HETATM   18  C   UNL     1     -12.167   3.350 -32.658  1.00  0.00     0.039 A 
HETATM   19  C   UNL     1     -13.073   2.440 -33.202  1.00  0.00     0.068 A 
HETATM   20  C   UNL     1     -12.590   1.251 -33.745  1.00  0.00     0.039 A 
HETATM   21  C   UNL     1     -11.213   0.986 -33.746  1.00  0.00     0.032 A 
BRANCH  19  22
HETATM   22  O   UNL     1     -14.382   2.826 -33.134  1.00  0.00    -0.356 OA
HETATM   23  C   UNL     1     -15.258   2.002 -32.376  1.00  0.00     0.210 C 
ENDBRANCH  19  22
ENDBRANCH  13  16
ENDBRANCH  10  12
BRANCH   9  24
HETATM   24  C   UNL     1      -5.650   2.345 -31.604  1.00  0.00    -0.028 A 
HETATM   25  C   UNL     1      -5.310   3.056 -32.771  1.00  0.00     0.011 A 
HETATM   26  C   UNL     1      -5.101   4.436 -32.729  1.00  0.00     0.024 A 
HETATM   27  C   UNL     1      -5.243   5.123 -31.526  1.00  0.00     0.034 A 
HETATM   28 CL   UNL     1      -4.974   6.821 -31.475  1.00  0.00    -0.084 Cl
HETATM   29  C   UNL     1      -5.600   4.442 -30.366  1.00  0.00     0.024 A 
HETATM   30  C   UNL     1      -5.807   3.061 -30.405  1.00  0.00     0.011 A 
ENDBRANCH   9  24
TORSDOF 4
ENDMDL
MODEL 10
REMARK VINA RESULT:      -7.4      1.176      1.823
REMARK  4 active torsions:
REMARK  status: ('A' for Active; 'I' for Inactive)
REMARK    1  A    between atoms: C_9  and  C_10 
REMARK    2  A    between atoms: C_17  and  C_18 
REMARK       I    between atoms: C_18  and  N_19 
REMARK    3  A    between atoms: N_19  and  C_20 
REMARK    4  A    between atoms: C_23  and  O_24 
ROOT
HETATM    1  C   UNL     1      -7.290   5.617 -30.364  1.00  0.00     0.070 C 
HETATM    2  C   UNL     1      -6.602   5.004 -31.560  1.00  0.00     0.037 C 
HETATM    3  N   UNL     1      -5.419   5.627 -31.950  1.00  0.00    -0.192 N 
HETATM    4  C   UNL     1      -4.860   5.434 -33.162  1.00  0.00     0.725 A 
HETATM    5  N   UNL     1      -5.334   4.434 -33.966  1.00  0.00    -0.084 N 
HETATM    6  N   UNL     1      -4.726   4.441 -35.170  1.00  0.00    -0.149 NA
HETATM    7  C   UNL     1      -3.864   5.450 -35.003  1.00  0.00     0.275 A 
HETATM    8  N   UNL     1      -3.910   6.081 -33.786  1.00  0.00    -0.054 NA
HETATM    9  C   UNL     1      -6.398   3.502 -33.572  1.00  0.00     0.202 C 
HETATM   10  C   UNL     1      -7.096   3.977 -32.300  1.00  0.00     0.062 C 
HETATM   11  H   UNL     1      -5.137   6.458 -31.435  1.00  0.00     0.184 HD
ENDROOT
BRANCH  10  12
HETATM   12  C   UNL     1      -8.416   3.330 -32.068  1.00  0.00     0.256 C 
HETATM   13  N   UNL     1      -9.380   3.662 -32.994  1.00  0.00    -0.323 N 
HETATM   14  H   UNL     1      -9.136   4.355 -33.690  1.00  0.00     0.169 HD
HETATM   15  O   UNL     1      -8.548   2.614 -31.083  1.00  0.00    -0.267 OA
BRANCH  13  16
HETATM   16  C   UNL     1     -10.671   3.100 -33.112  1.00  0.00     0.035 A 
HETATM   17  C   UNL     1     -10.949   1.919 -33.800  1.00  0.00     0.032 A 
HETATM   18  C   UNL     1     -12.262   1.446 -33.896  1.00  0.00     0.039 A 
HETATM   19  C   UNL     1     -13.320   2.140 -33.309  1.00  0.00     0.068 A 
HETATM   20  C   UNL     1     -13.052   3.322 -32.623  1.00  0.00     0.039 A 
HETATM   21  C   UNL     1     -11.735   3.795 -32.522  1.00  0.00     0.032 A 
BRANCH  19  22
HETATM   22  O   UNL     1     -14.548   1.567 -33.486  1.00  0.00    -0.356 OA
HETATM   23  C   UNL     1     -15.564   1.920 -32.556  1.00  0.00     0.210 C 
ENDBRANCH  19  22
ENDBRANCH  13  16
ENDBRANCH  10  12
BRANCH   9  24
HETATM   24  C   UNL     1      -5.834   2.087 -33.423  1.00  0.00    -0.028 A 
HETATM   25  C   UNL     1      -6.331   1.006 -34.175  1.00  0.00     0.011 A 
HETATM   26  C   UNL     1      -5.814  -0.280 -34.004  1.00  0.00     0.024 A 
HETATM   27  C   UNL     1      -4.784  -0.496 -33.090  1.00  0.00     0.034 A 
HETATM   28 CL   UNL     1      -4.156  -2.082 -32.873  1.00  0.00    -0.084 Cl
HETATM   29  C   UNL     1      -4.264   0.564 -32.354  1.00  0.00     0.024 A 
HETATM   30  C   UNL     1      -4.782   1.850 -32.522  1.00  0.00     0.011 A 
ENDBRANCH   9  24
TORSDOF 4
ENDMDL
