MODEL 1
REMARK VINA RESULT:      -8.1      0.000      0.000
REMARK  3 active torsions:
REMARK  status: ('A' for Active; 'I' for Inactive)
REMARK    1  A    between atoms: C_7  and  C_8 
REMARK    2  A    between atoms: C_17  and  C_18 
REMARK       I    between atoms: C_18  and  N_19 
REMARK    3  A    between atoms: N_19  and  C_20 
ROOT
HETATM    1  C   UNL     1      -8.475   2.399 -32.598  1.00  0.00     0.206 C 
HETATM    2  N   UNL     1      -8.636   3.527 -31.676  1.00  0.00    -0.084 N 
HETATM    3  C   UNL     1      -7.960   4.711 -31.790  1.00  0.00     0.725 A 
HETATM    4  N   UNL     1      -8.312   5.510 -30.816  1.00  0.00    -0.054 NA
HETATM    5  C   UNL     1      -9.188   4.740 -30.094  1.00  0.00     0.275 A 
HETATM    6  N   UNL     1      -9.401   3.504 -30.562  1.00  0.00    -0.149 NA
HETATM    7  N   UNL     1      -7.053   4.864 -32.775  1.00  0.00    -0.192 N 
HETATM    8  C   UNL     1      -6.626   3.807 -33.575  1.00  0.00     0.037 C 
HETATM    9  C   UNL     1      -5.375   4.067 -34.377  1.00  0.00     0.070 C 
HETATM   10  C   UNL     1      -7.289   2.623 -33.531  1.00  0.00     0.063 C 
HETATM   11  H   UNL     1      -6.475   5.700 -32.756  1.00  0.00     0.184 HD
ENDROOT
BRANCH  10  12
HETATM   12  C   UNL     1      -6.867   1.400 -34.265  1.00  0.00     0.256 C 
HETATM   13  N   UNL     1      -6.397   0.399 -33.445  1.00  0.00    -0.323 N 
HETATM   14  H   UNL     1      -6.344   0.600 -32.455  1.00  0.00     0.169 HD
HETATM   15  O   UNL     1      -6.942   1.397 -35.487  1.00  0.00    -0.267 OA
BRANCH  13  16
HETATM   16  C   UNL     1      -6.022  -0.908 -33.823  1.00  0.00     0.035 A 
HETATM   17  C   UNL     1      -4.703  -1.366 -33.847  1.00  0.00     0.029 A 
HETATM   18  C   UNL     1      -4.411  -2.669 -34.262  1.00  0.00     0.002 A 
HETATM   19  C   UNL     1      -5.434  -3.526 -34.660  1.00  0.00     0.000 A 
HETATM   20  C   UNL     1      -6.753  -3.082 -34.637  1.00  0.00     0.002 A 
HETATM   21  C   UNL     1      -7.046  -1.781 -34.216  1.00  0.00     0.029 A 
ENDBRANCH  13  16
ENDBRANCH  10  12
BRANCH   1  22
HETATM   22  C   UNL     1      -9.765   2.200 -33.351  1.00  0.00     0.015 A 
HETATM   23  C   UNL     1     -10.539   1.005 -33.425  1.00  0.00     0.061 A 
HETATM   24  C   UNL     1     -10.263  -0.306 -32.783  1.00  0.00     0.073 C 
HETATM   25  N   UNL     1     -11.640   1.168 -34.167  1.00  0.00    -0.178 NA
HETATM   26  N   UNL     1     -11.605   2.457 -34.532  1.00  0.00    -0.284 N 
HETATM   27  C   UNL     1     -12.682   3.012 -35.314  1.00  0.00     0.179 C 
HETATM   28  C   UNL     1     -10.499   3.117 -34.087  1.00  0.00     0.123 A 
ENDBRANCH   1  22
TORSDOF 3
ENDMDL
MODEL 2
REMARK VINA RESULT:      -8.1      2.358      2.790
REMARK  3 active torsions:
REMARK  status: ('A' for Active; 'I' for Inactive)
REMARK    1  A    between atoms: C_7  and  C_8 
REMARK    2  A    between atoms: C_17  and  C_18 
REMARK       I    between atoms: C_18  and  N_19 
REMARK    3  A    between atoms: N_19  and  C_20 
ROOT
HETATM    1  C   UNL     1      -7.099   2.336 -30.730  1.00  0.00     0.206 C 
HETATM    2  N   UNL     1      -6.839   3.587 -30.013  1.00  0.00    -0.084 N 
HETATM    3  C   UNL     1      -5.611   4.185 -29.941  1.00  0.00     0.725 A 
HETATM    4  N   UNL     1      -5.699   5.279 -29.227  1.00  0.00    -0.054 NA
HETATM    5  C   UNL     1      -7.015   5.282 -28.841  1.00  0.00     0.275 A 
HETATM    6  N   UNL     1      -7.753   4.253 -29.273  1.00  0.00    -0.149 NA
HETATM    7  N   UNL     1      -4.548   3.589 -30.517  1.00  0.00    -0.192 N 
HETATM    8  C   UNL     1      -4.596   2.293 -31.024  1.00  0.00     0.037 C 
HETATM    9  C   UNL     1      -3.257   1.659 -31.308  1.00  0.00     0.070 C 
HETATM   10  C   UNL     1      -5.795   1.670 -31.157  1.00  0.00     0.063 C 
HETATM   11  H   UNL     1      -3.630   3.988 -30.335  1.00  0.00     0.184 HD
ENDROOT
BRANCH  10  12
HETATM   12  C   UNL     1      -5.960   0.258 -31.595  1.00  0.00     0.256 C 
HETATM   13  N   UNL     1      -5.797   0.078 -32.950  1.00  0.00    -0.323 N 
HETATM   14  H   UNL     1      -5.629   0.904 -33.509  1.00  0.00     0.169 HD
HETATM   15  O   UNL     1      -6.244  -0.584 -30.754  1.00  0.00    -0.267 OA
BRANCH  13  16
HETATM   16  C   UNL     1      -5.789  -1.146 -33.654  1.00  0.00     0.035 A 
HETATM   17  C   UNL     1      -6.939  -1.789 -34.115  1.00  0.00     0.029 A 
HETATM   18  C   UNL     1      -6.849  -3.016 -34.779  1.00  0.00     0.002 A 
HETATM   19  C   UNL     1      -5.608  -3.613 -34.986  1.00  0.00     0.000 A 
HETATM   20  C   UNL     1      -4.454  -2.980 -34.533  1.00  0.00     0.002 A 
HETATM   21  C   UNL     1      -4.544  -1.750 -33.875  1.00  0.00     0.029 A 
ENDBRANCH  13  16
ENDBRANCH  10  12
BRANCH   1  22
HETATM   22  C   UNL     1      -8.004   2.625 -31.900  1.00  0.00     0.015 A 
HETATM   23  C   UNL     1      -9.015   1.774 -32.434  1.00  0.00     0.061 A 
HETATM   24  C   UNL     1      -9.414   0.422 -31.966  1.00  0.00     0.073 C 
HETATM   25  N   UNL     1      -9.648   2.338 -33.468  1.00  0.00    -0.178 NA
HETATM   26  N   UNL     1      -9.088   3.551 -33.577  1.00  0.00    -0.284 N 
HETATM   27  C   UNL     1      -9.566   4.476 -34.575  1.00  0.00     0.179 C 
HETATM   28  C   UNL     1      -8.089   3.770 -32.677  1.00  0.00     0.123 A 
ENDBRANCH   1  22
TORSDOF 3
ENDMDL
MODEL 3
REMARK VINA RESULT:      -7.9      1.862      4.227
REMARK  3 active torsions:
REMARK  status: ('A' for Active; 'I' for Inactive)
REMARK    1  A    between atoms: C_7  and  C_8 
REMARK    2  A    between atoms: C_17  and  C_18 
REMARK       I    between atoms: C_18  and  N_19 
REMARK    3  A    between atoms: N_19  and  C_20 
ROOT
HETATM    1  C   UNL     1      -7.845   2.818 -33.137  1.00  0.00     0.206 C 
HETATM    2  N   UNL     1      -8.714   3.860 -33.691  1.00  0.00    -0.084 N 
HETATM    3  C   UNL     1     -10.071   3.738 -33.814  1.00  0.00     0.725 A 
HETATM    4  N   UNL     1     -10.561   4.828 -34.349  1.00  0.00    -0.054 NA
HETATM    5  C   UNL     1      -9.439   5.581 -34.580  1.00  0.00     0.275 A 
HETATM    6  N   UNL     1      -8.276   5.023 -34.221  1.00  0.00    -0.149 NA
HETATM    7  N   UNL     1     -10.669   2.585 -33.452  1.00  0.00    -0.192 N 
HETATM    8  C   UNL     1      -9.953   1.435 -33.134  1.00  0.00     0.037 C 
HETATM    9  C   UNL     1     -10.759   0.160 -33.096  1.00  0.00     0.070 C 
HETATM   10  C   UNL     1      -8.609   1.509 -32.959  1.00  0.00     0.063 C 
HETATM   11  H   UNL     1     -11.655   2.477 -33.677  1.00  0.00     0.184 HD
ENDROOT
BRANCH  10  12
HETATM   12  C   UNL     1      -7.730   0.334 -32.713  1.00  0.00     0.256 C 
HETATM   13  N   UNL     1      -7.235  -0.236 -33.865  1.00  0.00    -0.323 N 
HETATM   14  H   UNL     1      -7.542   0.160 -34.744  1.00  0.00     0.169 HD
HETATM   15  O   UNL     1      -7.552  -0.030 -31.558  1.00  0.00    -0.267 OA
BRANCH  13  16
HETATM   16  C   UNL     1      -6.302  -1.289 -33.963  1.00  0.00     0.035 A 
HETATM   17  C   UNL     1      -4.990  -1.217 -33.490  1.00  0.00     0.029 A 
HETATM   18  C   UNL     1      -4.116  -2.297 -33.652  1.00  0.00     0.002 A 
HETATM   19  C   UNL     1      -4.544  -3.457 -34.291  1.00  0.00     0.000 A 
HETATM   20  C   UNL     1      -5.851  -3.542 -34.764  1.00  0.00     0.002 A 
HETATM   21  C   UNL     1      -6.726  -2.466 -34.596  1.00  0.00     0.029 A 
ENDBRANCH  13  16
ENDBRANCH  10  12
BRANCH   1  22
HETATM   22  C   UNL     1      -7.254   3.316 -31.843  1.00  0.00     0.015 A 
HETATM   23  C   UNL     1      -5.898   3.197 -31.419  1.00  0.00     0.061 A 
HETATM   24  C   UNL     1      -4.763   2.569 -32.142  1.00  0.00     0.073 C 
HETATM   25  N   UNL     1      -5.699   3.760 -30.221  1.00  0.00    -0.178 NA
HETATM   26  N   UNL     1      -6.894   4.272 -29.894  1.00  0.00    -0.284 N 
HETATM   27  C   UNL     1      -7.047   5.010 -28.664  1.00  0.00     0.179 C 
HETATM   28  C   UNL     1      -7.863   4.022 -30.818  1.00  0.00     0.123 A 
ENDBRANCH   1  22
TORSDOF 3
ENDMDL
MODEL 4
REMARK VINA RESULT:      -7.9      3.093      6.441
REMARK  3 active torsions:
REMARK  status: ('A' for Active; 'I' for Inactive)
REMARK    1  A    between atoms: C_7  and  C_8 
REMARK    2  A    between atoms: C_17  and  C_18 
REMARK       I    between atoms: C_18  and  N_19 
REMARK    3  A    between atoms: N_19  and  C_20 
ROOT
HETATM    1  C   UNL     1      -5.700   1.992 -33.296  1.00  0.00     0.206 C 
HETATM    2  N   UNL     1      -6.194   0.747 -33.890  1.00  0.00    -0.084 N 
HETATM    3  C   UNL     1      -5.815  -0.501 -33.474  1.00  0.00     0.725 A 
HETATM    4  N   UNL     1      -6.419  -1.406 -34.203  1.00  0.00    -0.054 NA
HETATM    5  C   UNL     1      -7.133  -0.648 -35.094  1.00  0.00     0.275 A 
HETATM    6  N   UNL     1      -7.009   0.679 -34.965  1.00  0.00    -0.149 NA
HETATM    7  N   UNL     1      -4.902  -0.623 -32.490  1.00  0.00    -0.192 N 
HETATM    8  C   UNL     1      -4.177   0.459 -31.998  1.00  0.00     0.037 C 
HETATM    9  C   UNL     1      -2.971   0.104 -31.165  1.00  0.00     0.070 C 
HETATM   10  C   UNL     1      -4.538   1.720 -32.346  1.00  0.00     0.063 C 
HETATM   11  H   UNL     1      -4.546  -1.555 -32.294  1.00  0.00     0.184 HD
ENDROOT
BRANCH  10  12
HETATM   12  C   UNL     1      -3.783   2.943 -31.961  1.00  0.00     0.256 C 
HETATM   13  N   UNL     1      -2.973   3.429 -32.963  1.00  0.00    -0.323 N 
HETATM   14  H   UNL     1      -2.936   2.900 -33.824  1.00  0.00     0.169 HD
HETATM   15  O   UNL     1      -3.916   3.378 -30.825  1.00  0.00    -0.267 OA
BRANCH  13  16
HETATM   16  C   UNL     1      -2.215   4.620 -32.946  1.00  0.00     0.035 A 
HETATM   17  C   UNL     1      -1.241   4.912 -31.989  1.00  0.00     0.029 A 
HETATM   18  C   UNL     1      -0.554   6.130 -32.025  1.00  0.00     0.002 A 
HETATM   19  C   UNL     1      -0.836   7.067 -33.015  1.00  0.00     0.000 A 
HETATM   20  C   UNL     1      -1.804   6.786 -33.976  1.00  0.00     0.002 A 
HETATM   21  C   UNL     1      -2.486   5.566 -33.944  1.00  0.00     0.029 A 
ENDBRANCH  13  16
ENDBRANCH  10  12
BRANCH   1  22
HETATM   22  C   UNL     1      -6.847   2.692 -32.613  1.00  0.00     0.015 A 
HETATM   23  C   UNL     1      -7.247   4.049 -32.784  1.00  0.00     0.061 A 
HETATM   24  C   UNL     1      -6.641   5.079 -33.667  1.00  0.00     0.073 C 
HETATM   25  N   UNL     1      -8.315   4.353 -32.038  1.00  0.00    -0.178 NA
HETATM   26  N   UNL     1      -8.630   3.202 -31.428  1.00  0.00    -0.284 N 
HETATM   27  C   UNL     1      -9.783   3.137 -30.565  1.00  0.00     0.179 C 
HETATM   28  C   UNL     1      -7.775   2.181 -31.721  1.00  0.00     0.123 A 
ENDBRANCH   1  22
TORSDOF 3
ENDMDL
MODEL 5
REMARK VINA RESULT:      -7.8      1.738      4.071
REMARK  3 active torsions:
REMARK  status: ('A' for Active; 'I' for Inactive)
REMARK    1  A    between atoms: C_7  and  C_8 
REMARK    2  A    between atoms: C_17  and  C_18 
REMARK       I    between atoms: C_18  and  N_19 
REMARK    3  A    between atoms: N_19  and  C_20 
ROOT
HETATM    1  C   UNL     1      -7.681   2.877 -33.537  1.00  0.00     0.206 C 
HETATM    2  N   UNL     1      -8.623   3.885 -33.040  1.00  0.00    -0.084 N 
HETATM    3  C   UNL     1      -9.781   3.586 -32.376  1.00  0.00     0.725 A 
HETATM    4  N   UNL     1     -10.407   4.695 -32.071  1.00  0.00    -0.054 NA
HETATM    5  C   UNL     1      -9.600   5.658 -32.619  1.00  0.00     0.275 A 
HETATM    6  N   UNL     1      -8.506   5.214 -33.250  1.00  0.00    -0.149 NA
HETATM    7  N   UNL     1     -10.125   2.297 -32.189  1.00  0.00    -0.192 N 
HETATM    8  C   UNL     1      -9.456   1.243 -32.806  1.00  0.00     0.037 C 
HETATM    9  C   UNL     1     -10.171  -0.085 -32.774  1.00  0.00     0.070 C 
HETATM   10  C   UNL     1      -8.280   1.477 -33.442  1.00  0.00     0.063 C 
HETATM   11  H   UNL     1     -11.050   2.108 -31.811  1.00  0.00     0.184 HD
ENDROOT
BRANCH  10  12
HETATM   12  C   UNL     1      -7.529   0.453 -34.216  1.00  0.00     0.256 C 
HETATM   13  N   UNL     1      -6.988  -0.543 -33.433  1.00  0.00    -0.323 N 
HETATM   14  H   UNL     1      -7.113  -0.462 -32.432  1.00  0.00     0.169 HD
HETATM   15  O   UNL     1      -7.432   0.591 -35.428  1.00  0.00    -0.267 OA
BRANCH  13  16
HETATM   16  C   UNL     1      -6.314  -1.703 -33.872  1.00  0.00     0.035 A 
HETATM   17  C   UNL     1      -4.926  -1.852 -33.859  1.00  0.00     0.029 A 
HETATM   18  C   UNL     1      -4.333  -3.024 -34.339  1.00  0.00     0.002 A 
HETATM   19  C   UNL     1      -5.121  -4.056 -34.839  1.00  0.00     0.000 A 
HETATM   20  C   UNL     1      -6.507  -3.921 -34.855  1.00  0.00     0.002 A 
HETATM   21  C   UNL     1      -7.100  -2.752 -34.368  1.00  0.00     0.029 A 
ENDBRANCH  13  16
ENDBRANCH  10  12
BRANCH   1  22
HETATM   22  C   UNL     1      -6.390   3.000 -32.770  1.00  0.00     0.015 A 
HETATM   23  C   UNL     1      -6.177   2.694 -31.394  1.00  0.00     0.061 A 
HETATM   24  C   UNL     1      -7.163   2.185 -30.406  1.00  0.00     0.073 C 
HETATM   25  N   UNL     1      -4.907   2.900 -31.027  1.00  0.00    -0.178 NA
HETATM   26  N   UNL     1      -4.296   3.290 -32.155  1.00  0.00    -0.284 N 
HETATM   27  C   UNL     1      -2.879   3.557 -32.149  1.00  0.00     0.179 C 
HETATM   28  C   UNL     1      -5.138   3.384 -33.223  1.00  0.00     0.123 A 
ENDBRANCH   1  22
TORSDOF 3
ENDMDL
MODEL 6
REMARK VINA RESULT:      -7.6      3.448      5.378
REMARK  3 active torsions:
REMARK  status: ('A' for Active; 'I' for Inactive)
REMARK    1  A    between atoms: C_7  and  C_8 
REMARK    2  A    between atoms: C_17  and  C_18 
REMARK       I    between atoms: C_18  and  N_19 
REMARK    3  A    between atoms: N_19  and  C_20 
ROOT
HETATM    1  C   UNL     1      -5.362   3.480 -32.160  1.00  0.00     0.206 C 
HETATM    2  N   UNL     1      -6.144   4.454 -31.394  1.00  0.00    -0.084 N 
HETATM    3  C   UNL     1      -6.541   4.267 -30.098  1.00  0.00     0.725 A 
HETATM    4  N   UNL     1      -7.228   5.307 -29.697  1.00  0.00    -0.054 NA
HETATM    5  C   UNL     1      -7.262   6.096 -30.818  1.00  0.00     0.275 A 
HETATM    6  N   UNL     1      -6.636   5.608 -31.896  1.00  0.00    -0.149 NA
HETATM    7  N   UNL     1      -6.246   3.108 -29.476  1.00  0.00    -0.192 N 
HETATM    8  C   UNL     1      -5.721   2.007 -30.146  1.00  0.00     0.037 C 
HETATM    9  C   UNL     1      -5.779   0.702 -29.392  1.00  0.00     0.070 C 
HETATM   10  C   UNL     1      -5.273   2.149 -31.420  1.00  0.00     0.063 C 
HETATM   11  H   UNL     1      -6.665   2.946 -28.564  1.00  0.00     0.184 HD
ENDROOT
BRANCH  10  12
HETATM   12  C   UNL     1      -4.782   1.028 -32.265  1.00  0.00     0.256 C 
HETATM   13  N   UNL     1      -5.731   0.057 -32.499  1.00  0.00    -0.323 N 
HETATM   14  H   UNL     1      -6.631   0.173 -32.051  1.00  0.00     0.169 HD
HETATM   15  O   UNL     1      -3.617   1.045 -32.640  1.00  0.00    -0.267 OA
BRANCH  13  16
HETATM   16  C   UNL     1      -5.609  -1.071 -33.339  1.00  0.00     0.035 A 
HETATM   17  C   UNL     1      -4.423  -1.785 -33.520  1.00  0.00     0.029 A 
HETATM   18  C   UNL     1      -4.378  -2.876 -34.394  1.00  0.00     0.002 A 
HETATM   19  C   UNL     1      -5.516  -3.261 -35.097  1.00  0.00     0.000 A 
HETATM   20  C   UNL     1      -6.705  -2.558 -34.922  1.00  0.00     0.002 A 
HETATM   21  C   UNL     1      -6.752  -1.472 -34.043  1.00  0.00     0.029 A 
ENDBRANCH  13  16
ENDBRANCH  10  12
BRANCH   1  22
HETATM   22  C   UNL     1      -4.004   4.066 -32.449  1.00  0.00     0.015 A 
HETATM   23  C   UNL     1      -3.582   4.699 -33.655  1.00  0.00     0.061 A 
HETATM   24  C   UNL     1      -4.371   4.932 -34.892  1.00  0.00     0.073 C 
HETATM   25  N   UNL     1      -2.316   5.123 -33.579  1.00  0.00    -0.178 NA
HETATM   26  N   UNL     1      -1.936   4.811 -32.332  1.00  0.00    -0.284 N 
HETATM   27  C   UNL     1      -0.618   5.170 -31.871  1.00  0.00     0.179 C 
HETATM   28  C   UNL     1      -2.899   4.162 -31.619  1.00  0.00     0.123 A 
ENDBRANCH   1  22
TORSDOF 3
ENDMDL
MODEL 7
REMARK VINA RESULT:      -7.5      2.156      6.109
REMARK  3 active torsions:
REMARK  status: ('A' for Active; 'I' for Inactive)
REMARK    1  A    between atoms: C_7  and  C_8 
REMARK    2  A    between atoms: C_17  and  C_18 
REMARK       I    between atoms: C_18  and  N_19 
REMARK    3  A    between atoms: N_19  and  C_20 
ROOT
HETATM    1  C   UNL     1      -6.256   0.867 -31.789  1.00  0.00     0.206 C 
HETATM    2  N   UNL     1      -4.890   0.336 -31.794  1.00  0.00    -0.084 N 
HETATM    3  C   UNL     1      -4.409  -0.528 -32.741  1.00  0.00     0.725 A 
HETATM    4  N   UNL     1      -3.164  -0.825 -32.468  1.00  0.00    -0.054 NA
HETATM    5  C   UNL     1      -2.940  -0.142 -31.300  1.00  0.00     0.275 A 
HETATM    6  N   UNL     1      -3.974   0.564 -30.828  1.00  0.00    -0.149 NA
HETATM    7  N   UNL     1      -5.230  -0.967 -33.715  1.00  0.00    -0.192 N 
HETATM    8  C   UNL     1      -6.603  -0.737 -33.703  1.00  0.00     0.037 C 
HETATM    9  C   UNL     1      -7.409  -1.580 -34.660  1.00  0.00     0.070 C 
HETATM   10  C   UNL     1      -7.127   0.143 -32.812  1.00  0.00     0.063 C 
HETATM   11  H   UNL     1      -4.884  -1.705 -34.323  1.00  0.00     0.184 HD
ENDROOT
BRANCH  10  12
HETATM   12  C   UNL     1      -8.582   0.396 -32.642  1.00  0.00     0.256 C 
HETATM   13  N   UNL     1      -9.176   0.967 -33.746  1.00  0.00    -0.323 N 
HETATM   14  H   UNL     1      -8.575   1.194 -34.527  1.00  0.00     0.169 HD
HETATM   15  O   UNL     1      -9.103   0.115 -31.571  1.00  0.00    -0.267 OA
BRANCH  13  16
HETATM   16  C   UNL     1     -10.549   1.232 -33.935  1.00  0.00     0.035 A 
HETATM   17  C   UNL     1     -11.572   0.359 -33.562  1.00  0.00     0.029 A 
HETATM   18  C   UNL     1     -12.909   0.683 -33.812  1.00  0.00     0.002 A 
HETATM   19  C   UNL     1     -13.236   1.882 -34.439  1.00  0.00     0.000 A 
HETATM   20  C   UNL     1     -12.225   2.763 -34.813  1.00  0.00     0.002 A 
HETATM   21  C   UNL     1     -10.889   2.442 -34.557  1.00  0.00     0.029 A 
ENDBRANCH  13  16
ENDBRANCH  10  12
BRANCH   1  22
HETATM   22  C   UNL     1      -6.200   2.353 -32.035  1.00  0.00     0.015 A 
HETATM   23  C   UNL     1      -6.746   3.379 -31.211  1.00  0.00     0.061 A 
HETATM   24  C   UNL     1      -7.485   3.230 -29.930  1.00  0.00     0.073 C 
HETATM   25  N   UNL     1      -6.509   4.598 -31.708  1.00  0.00    -0.178 NA
HETATM   26  N   UNL     1      -5.785   4.369 -32.812  1.00  0.00    -0.284 N 
HETATM   27  C   UNL     1      -5.297   5.478 -33.595  1.00  0.00     0.179 C 
HETATM   28  C   UNL     1      -5.585   3.045 -33.065  1.00  0.00     0.123 A 
ENDBRANCH   1  22
TORSDOF 3
ENDMDL
MODEL 8
REMARK VINA RESULT:      -7.4      8.503     11.555
REMARK  3 active torsions:
REMARK  status: ('A' for Active; 'I' for Inactive)
REMARK    1  A    between atoms: C_7  and  C_8 
REMARK    2  A    between atoms: C_17  and  C_18 
REMARK       I    between atoms: C_18  and  N_19 
REMARK    3  A    between atoms: N_19  and  C_20 
ROOT
HETATM    1  C   UNL     1      -1.293   7.609 -30.316  1.00  0.00     0.206 C 
HETATM    2  N   UNL     1      -1.376   7.317 -31.750  1.00  0.00    -0.084 N 
HETATM    3  C   UNL     1      -0.898   6.171 -32.326  1.00  0.00     0.725 A 
HETATM    4  N   UNL     1      -1.113   6.209 -33.616  1.00  0.00    -0.054 NA
HETATM    5  C   UNL     1      -1.695   7.439 -33.789  1.00  0.00     0.275 A 
HETATM    6  N   UNL     1      -1.854   8.171 -32.681  1.00  0.00    -0.149 NA
HETATM    7  N   UNL     1      -0.270   5.256 -31.561  1.00  0.00    -0.192 N 
HETATM    8  C   UNL     1       0.090   5.502 -30.238  1.00  0.00     0.037 C 
HETATM    9  C   UNL     1       1.079   4.529 -29.645  1.00  0.00     0.070 C 
HETATM   10  C   UNL     1      -0.392   6.603 -29.606  1.00  0.00     0.063 C 
HETATM   11  H   UNL     1       0.187   4.482 -32.035  1.00  0.00     0.184 HD
ENDROOT
BRANCH  10  12
HETATM   12  C   UNL     1      -0.001   7.017 -28.232  1.00  0.00     0.256 C 
HETATM   13  N   UNL     1       0.849   8.100 -28.202  1.00  0.00    -0.323 N 
HETATM   14  H   UNL     1       1.152   8.473 -29.092  1.00  0.00     0.169 HD
HETATM   15  O   UNL     1      -0.425   6.369 -27.284  1.00  0.00    -0.267 OA
BRANCH  13  16
HETATM   16  C   UNL     1       1.313   8.790 -27.062  1.00  0.00     0.035 A 
HETATM   17  C   UNL     1       2.187   8.243 -26.121  1.00  0.00     0.029 A 
HETATM   18  C   UNL     1       2.578   8.983 -25.000  1.00  0.00     0.002 A 
HETATM   19  C   UNL     1       2.097  10.275 -24.809  1.00  0.00     0.000 A 
HETATM   20  C   UNL     1       1.226  10.832 -25.742  1.00  0.00     0.002 A 
HETATM   21  C   UNL     1       0.841  10.095 -26.865  1.00  0.00     0.029 A 
ENDBRANCH  13  16
ENDBRANCH  10  12
BRANCH   1  22
HETATM   22  C   UNL     1      -2.686   7.632 -29.743  1.00  0.00     0.015 A 
HETATM   23  C   UNL     1      -3.260   8.649 -28.926  1.00  0.00     0.061 A 
HETATM   24  C   UNL     1      -2.632   9.911 -28.458  1.00  0.00     0.073 C 
HETATM   25  N   UNL     1      -4.527   8.370 -28.597  1.00  0.00    -0.178 NA
HETATM   26  N   UNL     1      -4.784   7.214 -29.224  1.00  0.00    -0.284 N 
HETATM   27  C   UNL     1      -6.097   6.625 -29.135  1.00  0.00     0.179 C 
HETATM   28  C   UNL     1      -3.715   6.719 -29.909  1.00  0.00     0.123 A 
ENDBRANCH   1  22
TORSDOF 3
ENDMDL
MODEL 9
REMARK VINA RESULT:      -7.2      2.196      5.844
REMARK  3 active torsions:
REMARK  status: ('A' for Active; 'I' for Inactive)
REMARK    1  A    between atoms: C_7  and  C_8 
REMARK    2  A    between atoms: C_17  and  C_18 
REMARK       I    between atoms: C_18  and  N_19 
REMARK    3  A    between atoms: N_19  and  C_20 
ROOT
HETATM    1  C   UNL     1      -7.080   3.098 -33.546  1.00  0.00     0.206 C 
HETATM    2  N   UNL     1      -6.026   4.104 -33.696  1.00  0.00    -0.084 N 
HETATM    3  C   UNL     1      -5.794   5.108 -32.796  1.00  0.00     0.725 A 
HETATM    4  N   UNL     1      -4.795   5.845 -33.212  1.00  0.00    -0.054 NA
HETATM    5  C   UNL     1      -4.474   5.269 -34.413  1.00  0.00     0.275 A 
HETATM    6  N   UNL     1      -5.216   4.214 -34.772  1.00  0.00    -0.149 NA
HETATM    7  N   UNL     1      -6.594   5.230 -31.718  1.00  0.00    -0.192 N 
HETATM    8  C   UNL     1      -7.770   4.500 -31.568  1.00  0.00     0.037 C 
HETATM    9  C   UNL     1      -8.711   5.000 -30.500  1.00  0.00     0.070 C 
HETATM   10  C   UNL     1      -8.028   3.466 -32.408  1.00  0.00     0.063 C 
HETATM   11  H   UNL     1      -6.479   6.059 -31.140  1.00  0.00     0.184 HD
ENDROOT
BRANCH  10  12
HETATM   12  C   UNL     1      -9.290   2.679 -32.405  1.00  0.00     0.256 C 
HETATM   13  N   UNL     1     -10.269   3.202 -33.221  1.00  0.00    -0.323 N 
HETATM   14  H   UNL     1     -10.057   4.069 -33.698  1.00  0.00     0.169 HD
HETATM   15  O   UNL     1      -9.362   1.693 -31.684  1.00  0.00    -0.267 OA
BRANCH  13  16
HETATM   16  C   UNL     1     -11.529   2.637 -33.512  1.00  0.00     0.035 A 
HETATM   17  C   UNL     1     -12.700   2.941 -32.816  1.00  0.00     0.029 A 
HETATM   18  C   UNL     1     -13.906   2.316 -33.148  1.00  0.00     0.002 A 
HETATM   19  C   UNL     1     -13.952   1.378 -34.176  1.00  0.00     0.000 A 
HETATM   20  C   UNL     1     -12.791   1.068 -34.879  1.00  0.00     0.002 A 
HETATM   21  C   UNL     1     -11.587   1.698 -34.552  1.00  0.00     0.029 A 
ENDBRANCH  13  16
ENDBRANCH  10  12
BRANCH   1  22
HETATM   22  C   UNL     1      -6.440   1.749 -33.344  1.00  0.00     0.015 A 
HETATM   23  C   UNL     1      -6.636   0.579 -34.134  1.00  0.00     0.061 A 
HETATM   24  C   UNL     1      -7.501   0.417 -35.331  1.00  0.00     0.073 C 
HETATM   25  N   UNL     1      -5.904  -0.450 -33.693  1.00  0.00    -0.178 NA
HETATM   26  N   UNL     1      -5.212   0.054 -32.661  1.00  0.00    -0.284 N 
HETATM   27  C   UNL     1      -4.264  -0.774 -31.959  1.00  0.00     0.179 C 
HETATM   28  C   UNL     1      -5.506   1.358 -32.398  1.00  0.00     0.123 A 
ENDBRANCH   1  22
TORSDOF 3
ENDMDL
MODEL 10
REMARK VINA RESULT:      -7.0      3.936      7.014
REMARK  3 active torsions:
REMARK  status: ('A' for Active; 'I' for Inactive)
REMARK    1  A    between atoms: C_7  and  C_8 
REMARK    2  A    between atoms: C_17  and  C_18 
REMARK       I    between atoms: C_18  and  N_19 
REMARK    3  A    between atoms: N_19  and  C_20 
ROOT
HETATM    1  C   UNL     1      -5.777   3.231 -31.992  1.00  0.00     0.206 C 
HETATM    2  N   UNL     1      -6.866   2.257 -31.879  1.00  0.00    -0.084 N 
HETATM    3  C   UNL     1      -6.714   0.997 -31.367  1.00  0.00     0.725 A 
HETATM    4  N   UNL     1      -7.862   0.368 -31.408  1.00  0.00    -0.054 NA
HETATM    5  C   UNL     1      -8.687   1.285 -32.006  1.00  0.00     0.275 A 
HETATM    6  N   UNL     1      -8.121   2.451 -32.341  1.00  0.00    -0.149 NA
HETATM    7  N   UNL     1      -5.493   0.583 -30.973  1.00  0.00    -0.192 N 
HETATM    8  C   UNL     1      -4.333   1.307 -31.237  1.00  0.00     0.037 C 
HETATM    9  C   UNL     1      -3.042   0.551 -31.046  1.00  0.00     0.070 C 
HETATM   10  C   UNL     1      -4.428   2.577 -31.706  1.00  0.00     0.063 C 
HETATM   11  H   UNL     1      -5.388  -0.396 -30.721  1.00  0.00     0.184 HD
ENDROOT
BRANCH  10  12
HETATM   12  C   UNL     1      -3.264   3.408 -32.113  1.00  0.00     0.256 C 
HETATM   13  N   UNL     1      -2.808   4.245 -31.118  1.00  0.00    -0.323 N 
HETATM   14  H   UNL     1      -3.321   4.247 -30.246  1.00  0.00     0.169 HD
HETATM   15  O   UNL     1      -2.844   3.305 -33.258  1.00  0.00    -0.267 OA
BRANCH  13  16
HETATM   16  C   UNL     1      -1.668   5.075 -31.157  1.00  0.00     0.035 A 
HETATM   17  C   UNL     1      -0.429   4.727 -30.615  1.00  0.00     0.029 A 
HETATM   18  C   UNL     1       0.646   5.619 -30.669  1.00  0.00     0.002 A 
HETATM   19  C   UNL     1       0.493   6.869 -31.262  1.00  0.00     0.000 A 
HETATM   20  C   UNL     1      -0.736   7.227 -31.809  1.00  0.00     0.002 A 
HETATM   21  C   UNL     1      -1.809   6.332 -31.761  1.00  0.00     0.029 A 
ENDBRANCH  13  16
ENDBRANCH  10  12
BRANCH   1  22
HETATM   22  C   UNL     1      -6.060   4.385 -31.066  1.00  0.00     0.015 A 
HETATM   23  C   UNL     1      -6.030   5.773 -31.391  1.00  0.00     0.061 A 
HETATM   24  C   UNL     1      -5.722   6.400 -32.702  1.00  0.00     0.073 C 
HETATM   25  N   UNL     1      -6.346   6.539 -30.341  1.00  0.00    -0.178 NA
HETATM   26  N   UNL     1      -6.619   5.664 -29.363  1.00  0.00    -0.284 N 
HETATM   27  C   UNL     1      -7.053   6.139 -28.073  1.00  0.00     0.179 C 
HETATM   28  C   UNL     1      -6.448   4.364 -29.736  1.00  0.00     0.123 A 
ENDBRANCH   1  22
TORSDOF 3
ENDMDL
