MODEL 1
REMARK VINA RESULT:      -8.9      0.000      0.000
REMARK  7 active torsions:
REMARK  status: ('A' for Active; 'I' for Inactive)
REMARK    1  A    between atoms: O_2  and  C_3 
REMARK    2  A    between atoms: C_3  and  C_4 
REMARK    3  A    between atoms: C_8  and  C_9 
REMARK    4  A    between atoms: C_9  and  N_10 
REMARK    5  A    between atoms: C_13  and  C_14 
REMARK    6  A    between atoms: C_14  and  N_15 
REMARK       I    between atoms: N_15  and  C_16 
REMARK       I    between atoms: C_16  and  N_17 
REMARK    7  A    between atoms: N_17  and  C_18 
ROOT
HETATM    1  N   UNL     1      -1.027   5.592 -32.734  1.00  0.00    -0.067 N 
HETATM    2  H   UNL     1      -0.399   4.841 -33.047  1.00  0.00     0.280 HD
HETATM    3  C   UNL     1      -2.076   4.935 -31.859  1.00  0.00     0.241 C 
HETATM    4  C   UNL     1      -2.777   3.847 -32.672  1.00  0.00     0.029 C 
HETATM    5  C   UNL     1      -3.417   4.452 -33.932  1.00  0.00     0.009 C 
HETATM    6  C   UNL     1      -2.378   5.192 -34.768  1.00  0.00     0.028 C 
HETATM    7  C   UNL     1      -1.627   6.236 -33.954  1.00  0.00     0.235 C 
ENDROOT
BRANCH   4   8
HETATM    8  C   UNL     1      -3.828   3.078 -31.852  1.00  0.00     0.130 C 
BRANCH   8   9
HETATM    9  N   UNL     1      -4.713   2.188 -32.590  1.00  0.00    -0.342 N 
HETATM   10  C   UNL     1      -4.536   0.815 -32.619  1.00  0.00     0.320 C 
HETATM   11  N   UNL     1      -5.361   0.230 -33.551  1.00  0.00    -0.309 N 
HETATM   12  O   UNL     1      -3.778   0.244 -31.848  1.00  0.00    -0.247 OA
HETATM   13  H   UNL     1      -6.037   0.832 -33.997  1.00  0.00     0.170 HD
HETATM   14  H   UNL     1      -5.033   2.567 -33.473  1.00  0.00     0.164 HD
BRANCH  11  15
HETATM   15  C   UNL     1      -5.426  -1.135 -33.904  1.00  0.00     0.039 A 
HETATM   16  C   UNL     1      -4.330  -1.996 -33.892  1.00  0.00     0.071 A 
HETATM   17  C   UNL     1      -4.492  -3.327 -34.273  1.00  0.00     0.118 A 
HETATM   18  F   UNL     1      -3.432  -4.146 -34.258  1.00  0.00    -0.206 F 
HETATM   19  C   UNL     1      -5.727  -3.821 -34.668  1.00  0.00     0.042 A 
HETATM   20  C   UNL     1      -6.826  -2.969 -34.687  1.00  0.00     0.005 A 
HETATM   21  C   UNL     1      -6.676  -1.631 -34.308  1.00  0.00     0.030 A 
ENDBRANCH  11  15
ENDBRANCH   8   9
ENDBRANCH   4   8
BRANCH   1  22
HETATM   22  C   UNL     1      -0.148   6.554 -31.972  1.00  0.00     0.274 C 
BRANCH  22  23
HETATM   23  C   UNL     1       0.074   6.197 -30.539  1.00  0.00    -0.015 A 
HETATM   24  C   UNL     1       0.751   5.086 -30.071  1.00  0.00     0.097 A 
HETATM   25  N   UNL     1       0.716   5.094 -28.701  1.00  0.00    -0.360 N 
HETATM   26  C   UNL     1       0.030   6.199 -28.255  1.00  0.00     0.108 A 
HETATM   27  H   UNL     1       1.120   4.394 -28.085  1.00  0.00     0.165 HD
HETATM   28  C   UNL     1      -0.383   6.893 -29.379  1.00  0.00     0.046 A 
BRANCH  26  29
HETATM   29  C   UNL     1      -0.161   6.464 -26.847  1.00  0.00     0.309 C 
HETATM   30  O   UNL     1      -0.683   5.679 -26.067  1.00  0.00    -0.258 OA
BRANCH  29  31
HETATM   31  O   UNL     1       0.309   7.700 -26.537  1.00  0.00    -0.321 OA
HETATM   32  C   UNL     1       1.724   7.753 -26.342  1.00  0.00     0.213 C 
ENDBRANCH  29  31
ENDBRANCH  26  29
ENDBRANCH  22  23
ENDBRANCH   1  22
TORSDOF 7
ENDMDL
MODEL 2
REMARK VINA RESULT:      -8.9      2.209      3.412
REMARK  7 active torsions:
REMARK  status: ('A' for Active; 'I' for Inactive)
REMARK    1  A    between atoms: O_2  and  C_3 
REMARK    2  A    between atoms: C_3  and  C_4 
REMARK    3  A    between atoms: C_8  and  C_9 
REMARK    4  A    between atoms: C_9  and  N_10 
REMARK    5  A    between atoms: C_13  and  C_14 
REMARK    6  A    between atoms: C_14  and  N_15 
REMARK       I    between atoms: N_15  and  C_16 
REMARK       I    between atoms: C_16  and  N_17 
REMARK    7  A    between atoms: N_17  and  C_18 
ROOT
HETATM    1  N   UNL     1      -4.845   5.142 -34.054  1.00  0.00    -0.067 N 
HETATM    2  H   UNL     1      -5.516   5.284 -34.820  1.00  0.00     0.280 HD
HETATM    3  C   UNL     1      -5.072   3.734 -33.541  1.00  0.00     0.241 C 
HETATM    4  C   UNL     1      -6.533   3.603 -33.109  1.00  0.00     0.029 C 
HETATM    5  C   UNL     1      -6.864   4.641 -32.025  1.00  0.00     0.009 C 
HETATM    6  C   UNL     1      -6.549   6.053 -32.509  1.00  0.00     0.028 C 
HETATM    7  C   UNL     1      -5.115   6.182 -33.002  1.00  0.00     0.235 C 
ENDROOT
BRANCH   4   8
HETATM    8  C   UNL     1      -6.882   2.186 -32.621  1.00  0.00     0.130 C 
BRANCH   8   9
HETATM    9  N   UNL     1      -6.785   1.113 -33.599  1.00  0.00    -0.342 N 
HETATM   10  C   UNL     1      -6.471  -0.190 -33.249  1.00  0.00     0.320 C 
HETATM   11  N   UNL     1      -6.228  -0.957 -34.365  1.00  0.00    -0.309 N 
HETATM   12  O   UNL     1      -6.486  -0.570 -32.087  1.00  0.00    -0.247 OA
HETATM   13  H   UNL     1      -6.407  -0.523 -35.259  1.00  0.00     0.170 HD
HETATM   14  H   UNL     1      -6.377   1.397 -34.481  1.00  0.00     0.164 HD
BRANCH  11  15
HETATM   15  C   UNL     1      -5.829  -2.309 -34.408  1.00  0.00     0.039 A 
HETATM   16  C   UNL     1      -4.559  -2.759 -34.048  1.00  0.00     0.071 A 
HETATM   17  C   UNL     1      -4.253  -4.115 -34.140  1.00  0.00     0.118 A 
HETATM   18  F   UNL     1      -3.030  -4.536 -33.791  1.00  0.00    -0.206 F 
HETATM   19  C   UNL     1      -5.190  -5.039 -34.583  1.00  0.00     0.042 A 
HETATM   20  C   UNL     1      -6.458  -4.601 -34.947  1.00  0.00     0.005 A 
HETATM   21  C   UNL     1      -6.776  -3.242 -34.861  1.00  0.00     0.030 A 
ENDBRANCH  11  15
ENDBRANCH   8   9
ENDBRANCH   4   8
BRANCH   1  22
HETATM   22  C   UNL     1      -3.483   5.324 -34.680  1.00  0.00     0.274 C 
BRANCH  22  23
HETATM   23  C   UNL     1      -2.402   5.706 -33.723  1.00  0.00    -0.015 A 
HETATM   24  C   UNL     1      -1.726   6.911 -33.694  1.00  0.00     0.097 A 
HETATM   25  N   UNL     1      -0.790   6.868 -32.693  1.00  0.00    -0.360 N 
HETATM   26  C   UNL     1      -0.843   5.652 -32.053  1.00  0.00     0.108 A 
HETATM   27  H   UNL     1      -0.138   7.607 -32.448  1.00  0.00     0.165 HD
HETATM   28  C   UNL     1      -1.831   4.913 -32.680  1.00  0.00     0.046 A 
BRANCH  26  29
HETATM   29  C   UNL     1       0.034   5.330 -30.951  1.00  0.00     0.309 C 
HETATM   30  O   UNL     1       1.067   4.684 -31.063  1.00  0.00    -0.258 OA
BRANCH  29  31
HETATM   31  O   UNL     1      -0.467   5.836 -29.793  1.00  0.00    -0.321 OA
HETATM   32  C   UNL     1       0.366   6.821 -29.180  1.00  0.00     0.213 C 
ENDBRANCH  29  31
ENDBRANCH  26  29
ENDBRANCH  22  23
ENDBRANCH   1  22
TORSDOF 7
ENDMDL
MODEL 3
REMARK VINA RESULT:      -8.3      5.397      9.070
REMARK  7 active torsions:
REMARK  status: ('A' for Active; 'I' for Inactive)
REMARK    1  A    between atoms: O_2  and  C_3 
REMARK    2  A    between atoms: C_3  and  C_4 
REMARK    3  A    between atoms: C_8  and  C_9 
REMARK    4  A    between atoms: C_9  and  N_10 
REMARK    5  A    between atoms: C_13  and  C_14 
REMARK    6  A    between atoms: C_14  and  N_15 
REMARK       I    between atoms: N_15  and  C_16 
REMARK       I    between atoms: C_16  and  N_17 
REMARK    7  A    between atoms: N_17  and  C_18 
ROOT
HETATM    1  N   UNL     1      -8.619   4.349 -31.552  1.00  0.00    -0.067 N 
HETATM    2  H   UNL     1      -9.137   3.626 -31.036  1.00  0.00     0.280 HD
HETATM    3  C   UNL     1      -7.397   3.666 -32.133  1.00  0.00     0.241 C 
HETATM    4  C   UNL     1      -6.600   3.038 -30.990  1.00  0.00     0.029 C 
HETATM    5  C   UNL     1      -6.193   4.113 -29.971  1.00  0.00     0.009 C 
HETATM    6  C   UNL     1      -7.416   4.863 -29.452  1.00  0.00     0.028 C 
HETATM    7  C   UNL     1      -8.255   5.440 -30.583  1.00  0.00     0.235 C 
ENDROOT
BRANCH   4   8
HETATM    8  C   UNL     1      -5.362   2.270 -31.484  1.00  0.00     0.130 C 
BRANCH   8   9
HETATM    9  N   UNL     1      -5.545   1.404 -32.640  1.00  0.00    -0.342 N 
HETATM   10  C   UNL     1      -5.574   0.023 -32.541  1.00  0.00     0.320 C 
HETATM   11  N   UNL     1      -5.539  -0.563 -33.784  1.00  0.00    -0.309 N 
HETATM   12  O   UNL     1      -5.684  -0.546 -31.464  1.00  0.00    -0.247 OA
HETATM   13  H   UNL     1      -5.603   0.057 -34.578  1.00  0.00     0.170 HD
HETATM   14  H   UNL     1      -5.081   1.732 -33.477  1.00  0.00     0.164 HD
BRANCH  11  15
HETATM   15  C   UNL     1      -5.499  -1.941 -34.084  1.00  0.00     0.039 A 
HETATM   16  C   UNL     1      -4.359  -2.734 -33.957  1.00  0.00     0.071 A 
HETATM   17  C   UNL     1      -4.415  -4.085 -34.294  1.00  0.00     0.118 A 
HETATM   18  F   UNL     1      -3.314  -4.838 -34.168  1.00  0.00    -0.206 F 
HETATM   19  C   UNL     1      -5.587  -4.668 -34.755  1.00  0.00     0.042 A 
HETATM   20  C   UNL     1      -6.729  -3.885 -34.888  1.00  0.00     0.005 A 
HETATM   21  C   UNL     1      -6.685  -2.528 -34.555  1.00  0.00     0.030 A 
ENDBRANCH  11  15
ENDBRANCH   8   9
ENDBRANCH   4   8
BRANCH   1  22
HETATM   22  C   UNL     1      -9.575   4.842 -32.612  1.00  0.00     0.274 C 
BRANCH  22  23
HETATM   23  C   UNL     1     -10.320   3.766 -33.331  1.00  0.00    -0.015 A 
HETATM   24  C   UNL     1     -10.136   3.388 -34.648  1.00  0.00     0.097 A 
HETATM   25  N   UNL     1     -11.026   2.388 -34.947  1.00  0.00    -0.360 N 
HETATM   26  C   UNL     1     -11.792   2.095 -33.843  1.00  0.00     0.108 A 
HETATM   27  H   UNL     1     -11.129   1.925 -35.846  1.00  0.00     0.165 HD
HETATM   28  C   UNL     1     -11.375   2.943 -32.832  1.00  0.00     0.046 A 
BRANCH  26  29
HETATM   29  C   UNL     1     -12.815   1.075 -33.872  1.00  0.00     0.309 C 
HETATM   30  O   UNL     1     -12.653  -0.069 -33.470  1.00  0.00    -0.258 OA
BRANCH  29  31
HETATM   31  O   UNL     1     -13.956   1.574 -34.415  1.00  0.00    -0.321 OA
HETATM   32  C   UNL     1     -15.071   0.684 -34.347  1.00  0.00     0.213 C 
ENDBRANCH  29  31
ENDBRANCH  26  29
ENDBRANCH  22  23
ENDBRANCH   1  22
TORSDOF 7
ENDMDL
MODEL 4
REMARK VINA RESULT:      -8.2      5.082      7.358
REMARK  7 active torsions:
REMARK  status: ('A' for Active; 'I' for Inactive)
REMARK    1  A    between atoms: O_2  and  C_3 
REMARK    2  A    between atoms: C_3  and  C_4 
REMARK    3  A    between atoms: C_8  and  C_9 
REMARK    4  A    between atoms: C_9  and  N_10 
REMARK    5  A    between atoms: C_13  and  C_14 
REMARK    6  A    between atoms: C_14  and  N_15 
REMARK       I    between atoms: N_15  and  C_16 
REMARK       I    between atoms: C_16  and  N_17 
REMARK    7  A    between atoms: N_17  and  C_18 
ROOT
HETATM    1  N   UNL     1      -5.258   1.255 -32.065  1.00  0.00    -0.067 N 
HETATM    2  H   UNL     1      -5.830   0.792 -31.348  1.00  0.00     0.280 HD
HETATM    3  C   UNL     1      -6.096   1.287 -33.327  1.00  0.00     0.241 C 
HETATM    4  C   UNL     1      -6.491  -0.145 -33.686  1.00  0.00     0.029 C 
HETATM    5  C   UNL     1      -5.236  -1.010 -33.885  1.00  0.00     0.009 C 
HETATM    6  C   UNL     1      -4.345  -0.970 -32.647  1.00  0.00     0.028 C 
HETATM    7  C   UNL     1      -3.997   0.454 -32.240  1.00  0.00     0.235 C 
ENDROOT
BRANCH   4   8
HETATM    8  C   UNL     1      -7.395  -0.217 -34.929  1.00  0.00     0.130 C 
BRANCH   8   9
HETATM    9  N   UNL     1      -8.470   0.762 -35.015  1.00  0.00    -0.342 N 
HETATM   10  C   UNL     1      -9.614   0.684 -34.240  1.00  0.00     0.320 C 
HETATM   11  N   UNL     1     -10.560   1.589 -34.661  1.00  0.00    -0.309 N 
HETATM   12  O   UNL     1      -9.694  -0.066 -33.277  1.00  0.00    -0.247 OA
HETATM   13  H   UNL     1     -10.274   2.240 -35.377  1.00  0.00     0.170 HD
HETATM   14  H   UNL     1      -8.648   1.094 -35.955  1.00  0.00     0.164 HD
BRANCH  11  15
HETATM   15  C   UNL     1     -11.865   1.767 -34.154  1.00  0.00     0.039 A 
HETATM   16  C   UNL     1     -12.982   1.073 -34.618  1.00  0.00     0.071 A 
HETATM   17  C   UNL     1     -14.235   1.330 -34.064  1.00  0.00     0.118 A 
HETATM   18  F   UNL     1     -15.301   0.657 -34.517  1.00  0.00    -0.206 F 
HETATM   19  C   UNL     1     -14.401   2.267 -33.054  1.00  0.00     0.042 A 
HETATM   20  C   UNL     1     -13.293   2.967 -32.587  1.00  0.00     0.005 A 
HETATM   21  C   UNL     1     -12.031   2.719 -33.136  1.00  0.00     0.030 A 
ENDBRANCH  11  15
ENDBRANCH   8   9
ENDBRANCH   4   8
BRANCH   1  22
HETATM   22  C   UNL     1      -4.970   2.632 -31.517  1.00  0.00     0.274 C 
BRANCH  22  23
HETATM   23  C   UNL     1      -4.321   3.566 -32.484  1.00  0.00    -0.015 A 
HETATM   24  C   UNL     1      -4.964   4.313 -33.454  1.00  0.00     0.097 A 
HETATM   25  N   UNL     1      -4.025   5.021 -34.159  1.00  0.00    -0.360 N 
HETATM   26  C   UNL     1      -2.769   4.758 -33.664  1.00  0.00     0.108 A 
HETATM   27  H   UNL     1      -4.205   5.645 -34.940  1.00  0.00     0.165 HD
HETATM   28  C   UNL     1      -2.929   3.852 -32.630  1.00  0.00     0.046 A 
BRANCH  26  29
HETATM   29  C   UNL     1      -1.585   5.372 -34.219  1.00  0.00     0.309 C 
HETATM   30  O   UNL     1      -1.185   5.182 -35.360  1.00  0.00    -0.258 OA
BRANCH  29  31
HETATM   31  O   UNL     1      -0.992   6.167 -33.290  1.00  0.00    -0.321 OA
HETATM   32  C   UNL     1      -1.504   7.501 -33.254  1.00  0.00     0.213 C 
ENDBRANCH  29  31
ENDBRANCH  26  29
ENDBRANCH  22  23
ENDBRANCH   1  22
TORSDOF 7
ENDMDL
MODEL 5
REMARK VINA RESULT:      -8.1      3.045      4.991
REMARK  7 active torsions:
REMARK  status: ('A' for Active; 'I' for Inactive)
REMARK    1  A    between atoms: O_2  and  C_3 
REMARK    2  A    between atoms: C_3  and  C_4 
REMARK    3  A    between atoms: C_8  and  C_9 
REMARK    4  A    between atoms: C_9  and  N_10 
REMARK    5  A    between atoms: C_13  and  C_14 
REMARK    6  A    between atoms: C_14  and  N_15 
REMARK       I    between atoms: N_15  and  C_16 
REMARK       I    between atoms: C_16  and  N_17 
REMARK    7  A    between atoms: N_17  and  C_18 
ROOT
HETATM    1  N   UNL     1      -6.253   3.109 -31.624  1.00  0.00    -0.067 N 
HETATM    2  H   UNL     1      -6.497   4.087 -31.825  1.00  0.00     0.280 HD
HETATM    3  C   UNL     1      -6.700   2.300 -32.825  1.00  0.00     0.241 C 
HETATM    4  C   UNL     1      -8.197   2.528 -33.035  1.00  0.00     0.029 C 
HETATM    5  C   UNL     1      -8.980   2.120 -31.778  1.00  0.00     0.009 C 
HETATM    6  C   UNL     1      -8.469   2.868 -30.551  1.00  0.00     0.028 C 
HETATM    7  C   UNL     1      -6.968   2.702 -30.365  1.00  0.00     0.235 C 
ENDROOT
BRANCH   4   8
HETATM    8  C   UNL     1      -8.741   1.789 -34.271  1.00  0.00     0.130 C 
BRANCH   8   9
HETATM    9  N   UNL     1      -7.845   0.838 -34.913  1.00  0.00    -0.342 N 
HETATM   10  C   UNL     1      -7.601  -0.423 -34.396  1.00  0.00     0.320 C 
HETATM   11  N   UNL     1      -6.564  -1.037 -35.059  1.00  0.00    -0.309 N 
HETATM   12  O   UNL     1      -8.292  -0.904 -33.509  1.00  0.00    -0.247 OA
HETATM   13  H   UNL     1      -6.200  -0.559 -35.870  1.00  0.00     0.170 HD
HETATM   14  H   UNL     1      -7.025   1.262 -35.329  1.00  0.00     0.164 HD
BRANCH  11  15
HETATM   15  C   UNL     1      -5.995  -2.299 -34.783  1.00  0.00     0.039 A 
HETATM   16  C   UNL     1      -4.772  -2.478 -34.137  1.00  0.00     0.071 A 
HETATM   17  C   UNL     1      -4.285  -3.766 -33.924  1.00  0.00     0.118 A 
HETATM   18  F   UNL     1      -3.109  -3.927 -33.302  1.00  0.00    -0.206 F 
HETATM   19  C   UNL     1      -4.992  -4.885 -34.342  1.00  0.00     0.042 A 
HETATM   20  C   UNL     1      -6.210  -4.717 -34.990  1.00  0.00     0.005 A 
HETATM   21  C   UNL     1      -6.709  -3.429 -35.211  1.00  0.00     0.030 A 
ENDBRANCH  11  15
ENDBRANCH   8   9
ENDBRANCH   4   8
BRANCH   1  22
HETATM   22  C   UNL     1      -4.754   3.104 -31.439  1.00  0.00     0.274 C 
BRANCH  22  23
HETATM   23  C   UNL     1      -4.054   4.306 -31.980  1.00  0.00    -0.015 A 
HETATM   24  C   UNL     1      -4.657   5.455 -32.459  1.00  0.00     0.097 A 
HETATM   25  N   UNL     1      -3.682   6.315 -32.893  1.00  0.00    -0.360 N 
HETATM   26  C   UNL     1      -2.441   5.755 -32.703  1.00  0.00     0.108 A 
HETATM   27  H   UNL     1      -3.830   7.232 -33.307  1.00  0.00     0.165 HD
HETATM   28  C   UNL     1      -2.648   4.506 -32.144  1.00  0.00     0.046 A 
BRANCH  26  29
HETATM   29  C   UNL     1      -1.226   6.445 -33.070  1.00  0.00     0.309 C 
HETATM   30  O   UNL     1      -1.075   7.055 -34.120  1.00  0.00    -0.258 OA
BRANCH  29  31
HETATM   31  O   UNL     1      -0.293   6.300 -32.092  1.00  0.00    -0.321 OA
HETATM   32  C   UNL     1      -0.492   7.158 -30.967  1.00  0.00     0.213 C 
ENDBRANCH  29  31
ENDBRANCH  26  29
ENDBRANCH  22  23
ENDBRANCH   1  22
TORSDOF 7
ENDMDL
MODEL 6
REMARK VINA RESULT:      -8.1      4.325      7.305
REMARK  7 active torsions:
REMARK  status: ('A' for Active; 'I' for Inactive)
REMARK    1  A    between atoms: O_2  and  C_3 
REMARK    2  A    between atoms: C_3  and  C_4 
REMARK    3  A    between atoms: C_8  and  C_9 
REMARK    4  A    between atoms: C_9  and  N_10 
REMARK    5  A    between atoms: C_13  and  C_14 
REMARK    6  A    between atoms: C_14  and  N_15 
REMARK       I    between atoms: N_15  and  C_16 
REMARK       I    between atoms: C_16  and  N_17 
REMARK    7  A    between atoms: N_17  and  C_18 
ROOT
HETATM    1  N   UNL     1      -5.301   4.596 -32.791  1.00  0.00    -0.067 N 
HETATM    2  H   UNL     1      -5.759   4.825 -31.900  1.00  0.00     0.280 HD
HETATM    3  C   UNL     1      -4.899   3.138 -32.705  1.00  0.00     0.241 C 
HETATM    4  C   UNL     1      -3.996   2.953 -31.485  1.00  0.00     0.029 C 
HETATM    5  C   UNL     1      -2.757   3.856 -31.598  1.00  0.00     0.009 C 
HETATM    6  C   UNL     1      -3.162   5.316 -31.776  1.00  0.00     0.028 C 
HETATM    7  C   UNL     1      -4.114   5.506 -32.949  1.00  0.00     0.235 C 
ENDROOT
BRANCH   4   8
HETATM    8  C   UNL     1      -3.575   1.488 -31.277  1.00  0.00     0.130 C 
BRANCH   8   9
HETATM    9  N   UNL     1      -3.589   0.628 -32.451  1.00  0.00    -0.342 N 
HETATM   10  C   UNL     1      -4.294  -0.563 -32.496  1.00  0.00     0.320 C 
HETATM   11  N   UNL     1      -3.972  -1.286 -33.621  1.00  0.00    -0.309 N 
HETATM   12  O   UNL     1      -5.130  -0.852 -31.652  1.00  0.00    -0.247 OA
HETATM   13  H   UNL     1      -3.373  -0.831 -34.295  1.00  0.00     0.170 HD
HETATM   14  H   UNL     1      -2.702   0.584 -32.939  1.00  0.00     0.164 HD
BRANCH  11  15
HETATM   15  C   UNL     1      -4.442  -2.566 -33.983  1.00  0.00     0.039 A 
HETATM   16  C   UNL     1      -5.624  -2.793 -34.688  1.00  0.00     0.071 A 
HETATM   17  C   UNL     1      -6.013  -4.097 -34.985  1.00  0.00     0.118 A 
HETATM   18  F   UNL     1      -7.150  -4.303 -35.663  1.00  0.00    -0.206 F 
HETATM   19  C   UNL     1      -5.247  -5.187 -34.595  1.00  0.00     0.042 A 
HETATM   20  C   UNL     1      -4.069  -4.973 -33.888  1.00  0.00     0.005 A 
HETATM   21  C   UNL     1      -3.669  -3.668 -33.583  1.00  0.00     0.030 A 
ENDBRANCH  11  15
ENDBRANCH   8   9
ENDBRANCH   4   8
BRANCH   1  22
HETATM   22  C   UNL     1      -6.344   4.855 -33.852  1.00  0.00     0.274 C 
BRANCH  22  23
HETATM   23  C   UNL     1      -7.716   4.377 -33.508  1.00  0.00    -0.015 A 
HETATM   24  C   UNL     1      -8.637   5.040 -32.718  1.00  0.00     0.097 A 
HETATM   25  N   UNL     1      -9.765   4.267 -32.613  1.00  0.00    -0.360 N 
HETATM   26  C   UNL     1      -9.606   3.104 -33.329  1.00  0.00     0.108 A 
HETATM   27  H   UNL     1     -10.602   4.495 -32.084  1.00  0.00     0.165 HD
HETATM   28  C   UNL     1      -8.339   3.148 -33.885  1.00  0.00     0.046 A 
BRANCH  26  29
HETATM   29  C   UNL     1     -10.643   2.100 -33.396  1.00  0.00     0.309 C 
HETATM   30  O   UNL     1     -11.814   2.304 -33.107  1.00  0.00    -0.258 OA
BRANCH  29  31
HETATM   31  O   UNL     1     -10.119   0.916 -33.810  1.00  0.00    -0.321 OA
HETATM   32  C   UNL     1      -9.937  -0.038 -32.762  1.00  0.00     0.213 C 
ENDBRANCH  29  31
ENDBRANCH  26  29
ENDBRANCH  22  23
ENDBRANCH   1  22
TORSDOF 7
ENDMDL
MODEL 7
REMARK VINA RESULT:      -8.1      3.898      9.736
REMARK  7 active torsions:
REMARK  status: ('A' for Active; 'I' for Inactive)
REMARK    1  A    between atoms: O_2  and  C_3 
REMARK    2  A    between atoms: C_3  and  C_4 
REMARK    3  A    between atoms: C_8  and  C_9 
REMARK    4  A    between atoms: C_9  and  N_10 
REMARK    5  A    between atoms: C_13  and  C_14 
REMARK    6  A    between atoms: C_14  and  N_15 
REMARK       I    between atoms: N_15  and  C_16 
REMARK       I    between atoms: C_16  and  N_17 
REMARK    7  A    between atoms: N_17  and  C_18 
ROOT
HETATM    1  N   UNL     1      -7.502   0.964 -33.142  1.00  0.00    -0.067 N 
HETATM    2  H   UNL     1      -7.784   0.112 -32.640  1.00  0.00     0.280 HD
HETATM    3  C   UNL     1      -6.515   1.683 -32.244  1.00  0.00     0.241 C 
HETATM    4  C   UNL     1      -7.190   1.957 -30.900  1.00  0.00     0.029 C 
HETATM    5  C   UNL     1      -8.459   2.800 -31.103  1.00  0.00     0.009 C 
HETATM    6  C   UNL     1      -9.415   2.119 -32.079  1.00  0.00     0.028 C 
HETATM    7  C   UNL     1      -8.738   1.782 -33.400  1.00  0.00     0.235 C 
ENDROOT
BRANCH   4   8
HETATM    8  C   UNL     1      -6.249   2.640 -29.893  1.00  0.00     0.130 C 
BRANCH   8   9
HETATM    9  N   UNL     1      -4.858   2.793 -30.295  1.00  0.00    -0.342 N 
HETATM   10  C   UNL     1      -4.374   3.949 -30.883  1.00  0.00     0.320 C 
HETATM   11  N   UNL     1      -3.098   3.763 -31.363  1.00  0.00    -0.309 N 
HETATM   12  O   UNL     1      -5.016   4.990 -30.888  1.00  0.00    -0.247 OA
HETATM   13  H   UNL     1      -2.656   2.884 -31.141  1.00  0.00     0.170 HD
HETATM   14  H   UNL     1      -4.445   1.950 -30.676  1.00  0.00     0.164 HD
BRANCH  11  15
HETATM   15  C   UNL     1      -2.303   4.690 -32.069  1.00  0.00     0.039 A 
HETATM   16  C   UNL     1      -1.356   5.521 -31.470  1.00  0.00     0.071 A 
HETATM   17  C   UNL     1      -0.630   6.418 -32.251  1.00  0.00     0.118 A 
HETATM   18  F   UNL     1       0.277   7.211 -31.665  1.00  0.00    -0.206 F 
HETATM   19  C   UNL     1      -0.824   6.505 -33.622  1.00  0.00     0.042 A 
HETATM   20  C   UNL     1      -1.768   5.683 -34.229  1.00  0.00     0.005 A 
HETATM   21  C   UNL     1      -2.505   4.781 -33.456  1.00  0.00     0.030 A 
ENDBRANCH  11  15
ENDBRANCH   8   9
ENDBRANCH   4   8
BRANCH   1  22
HETATM   22  C   UNL     1      -6.878   0.479 -34.428  1.00  0.00     0.274 C 
BRANCH  22  23
HETATM   23  C   UNL     1      -6.134  -0.811 -34.314  1.00  0.00    -0.015 A 
HETATM   24  C   UNL     1      -4.851  -0.972 -33.824  1.00  0.00     0.097 A 
HETATM   25  N   UNL     1      -4.511  -2.297 -33.909  1.00  0.00    -0.360 N 
HETATM   26  C   UNL     1      -5.554  -3.017 -34.442  1.00  0.00     0.108 A 
HETATM   27  H   UNL     1      -3.623  -2.708 -33.634  1.00  0.00     0.165 HD
HETATM   28  C   UNL     1      -6.568  -2.114 -34.708  1.00  0.00     0.046 A 
BRANCH  26  29
HETATM   29  C   UNL     1      -5.472  -4.446 -34.645  1.00  0.00     0.309 C 
HETATM   30  O   UNL     1      -6.055  -5.046 -35.537  1.00  0.00    -0.258 OA
BRANCH  29  31
HETATM   31  O   UNL     1      -4.671  -5.005 -33.700  1.00  0.00    -0.321 OA
HETATM   32  C   UNL     1      -3.291  -5.061 -34.065  1.00  0.00     0.213 C 
ENDBRANCH  29  31
ENDBRANCH  26  29
ENDBRANCH  22  23
ENDBRANCH   1  22
TORSDOF 7
ENDMDL
MODEL 8
REMARK VINA RESULT:      -8.1      5.669      9.282
REMARK  7 active torsions:
REMARK  status: ('A' for Active; 'I' for Inactive)
REMARK    1  A    between atoms: O_2  and  C_3 
REMARK    2  A    between atoms: C_3  and  C_4 
REMARK    3  A    between atoms: C_8  and  C_9 
REMARK    4  A    between atoms: C_9  and  N_10 
REMARK    5  A    between atoms: C_13  and  C_14 
REMARK    6  A    between atoms: C_14  and  N_15 
REMARK       I    between atoms: N_15  and  C_16 
REMARK       I    between atoms: C_16  and  N_17 
REMARK    7  A    between atoms: N_17  and  C_18 
ROOT
HETATM    1  N   UNL     1      -8.893   4.103 -33.399  1.00  0.00    -0.067 N 
HETATM    2  H   UNL     1      -9.354   4.053 -32.482  1.00  0.00     0.280 HD
HETATM    3  C   UNL     1      -7.839   3.014 -33.408  1.00  0.00     0.241 C 
HETATM    4  C   UNL     1      -6.891   3.244 -32.231  1.00  0.00     0.029 C 
HETATM    5  C   UNL     1      -6.243   4.633 -32.332  1.00  0.00     0.009 C 
HETATM    6  C   UNL     1      -7.305   5.725 -32.414  1.00  0.00     0.028 C 
HETATM    7  C   UNL     1      -8.295   5.475 -33.543  1.00  0.00     0.235 C 
ENDROOT
BRANCH   4   8
HETATM    8  C   UNL     1      -5.811   2.154 -32.119  1.00  0.00     0.130 C 
BRANCH   8   9
HETATM    9  N   UNL     1      -5.761   1.167 -33.189  1.00  0.00    -0.342 N 
HETATM   10  C   UNL     1      -5.763  -0.196 -32.948  1.00  0.00     0.320 C 
HETATM   11  N   UNL     1      -5.492  -0.902 -34.097  1.00  0.00    -0.309 N 
HETATM   12  O   UNL     1      -6.040  -0.659 -31.850  1.00  0.00    -0.247 OA
HETATM   13  H   UNL     1      -5.437  -0.369 -34.952  1.00  0.00     0.170 HD
HETATM   14  H   UNL     1      -5.169   1.433 -33.966  1.00  0.00     0.164 HD
BRANCH  11  15
HETATM   15  C   UNL     1      -5.356  -2.300 -34.234  1.00  0.00     0.039 A 
HETATM   16  C   UNL     1      -4.205  -3.009 -33.893  1.00  0.00     0.071 A 
HETATM   17  C   UNL     1      -4.161  -4.388 -34.081  1.00  0.00     0.118 A 
HETATM   18  F   UNL     1      -3.050  -5.060 -33.749  1.00  0.00    -0.206 F 
HETATM   19  C   UNL     1      -5.243  -5.082 -34.603  1.00  0.00     0.042 A 
HETATM   20  C   UNL     1      -6.395  -4.384 -34.950  1.00  0.00     0.005 A 
HETATM   21  C   UNL     1      -6.451  -2.999 -34.768  1.00  0.00     0.030 A 
ENDBRANCH  11  15
ENDBRANCH   8   9
ENDBRANCH   4   8
BRANCH   1  22
HETATM   22  C   UNL     1      -9.990   3.866 -34.409  1.00  0.00     0.274 C 
BRANCH  22  23
HETATM   23  C   UNL     1     -11.121   3.025 -33.917  1.00  0.00    -0.015 A 
HETATM   24  C   UNL     1     -11.122   1.647 -33.800  1.00  0.00     0.097 A 
HETATM   25  N   UNL     1     -12.350   1.245 -33.341  1.00  0.00    -0.360 N 
HETATM   26  C   UNL     1     -13.160   2.339 -33.145  1.00  0.00     0.108 A 
HETATM   27  H   UNL     1     -12.644   0.287 -33.172  1.00  0.00     0.165 HD
HETATM   28  C   UNL     1     -12.420   3.453 -33.503  1.00  0.00     0.046 A 
BRANCH  26  29
HETATM   29  C   UNL     1     -14.515   2.210 -32.662  1.00  0.00     0.309 C 
HETATM   30  O   UNL     1     -15.340   1.437 -33.130  1.00  0.00    -0.258 OA
BRANCH  29  31
HETATM   31  O   UNL     1     -14.728   3.074 -31.634  1.00  0.00    -0.321 OA
HETATM   32  C   UNL     1     -15.623   4.143 -31.947  1.00  0.00     0.213 C 
ENDBRANCH  29  31
ENDBRANCH  26  29
ENDBRANCH  22  23
ENDBRANCH   1  22
TORSDOF 7
ENDMDL
MODEL 9
REMARK VINA RESULT:      -8.1      3.706     10.271
REMARK  7 active torsions:
REMARK  status: ('A' for Active; 'I' for Inactive)
REMARK    1  A    between atoms: O_2  and  C_3 
REMARK    2  A    between atoms: C_3  and  C_4 
REMARK    3  A    between atoms: C_8  and  C_9 
REMARK    4  A    between atoms: C_9  and  N_10 
REMARK    5  A    between atoms: C_13  and  C_14 
REMARK    6  A    between atoms: C_14  and  N_15 
REMARK       I    between atoms: N_15  and  C_16 
REMARK       I    between atoms: C_16  and  N_17 
REMARK    7  A    between atoms: N_17  and  C_18 
ROOT
HETATM    1  N   UNL     1      -5.972   2.074 -32.037  1.00  0.00    -0.067 N 
HETATM    2  H   UNL     1      -6.455   2.733 -31.414  1.00  0.00     0.280 HD
HETATM    3  C   UNL     1      -4.505   2.457 -32.012  1.00  0.00     0.241 C 
HETATM    4  C   UNL     1      -4.376   3.919 -32.443  1.00  0.00     0.029 C 
HETATM    5  C   UNL     1      -4.968   4.114 -33.848  1.00  0.00     0.009 C 
HETATM    6  C   UNL     1      -6.419   3.644 -33.898  1.00  0.00     0.028 C 
HETATM    7  C   UNL     1      -6.571   2.210 -33.410  1.00  0.00     0.235 C 
ENDROOT
BRANCH   4   8
HETATM    8  C   UNL     1      -2.923   4.423 -32.397  1.00  0.00     0.130 C 
BRANCH   8   9
HETATM    9  N   UNL     1      -2.643   5.535 -31.500  1.00  0.00    -0.342 N 
HETATM   10  C   UNL     1      -1.510   5.586 -30.706  1.00  0.00     0.320 C 
HETATM   11  N   UNL     1      -1.587   6.618 -29.800  1.00  0.00    -0.309 N 
HETATM   12  O   UNL     1      -0.566   4.827 -30.876  1.00  0.00    -0.247 OA
HETATM   13  H   UNL     1      -2.372   7.245 -29.895  1.00  0.00     0.170 HD
HETATM   14  H   UNL     1      -3.465   5.913 -31.045  1.00  0.00     0.164 HD
BRANCH  11  15
HETATM   15  C   UNL     1      -0.653   6.950 -28.795  1.00  0.00     0.039 A 
HETATM   16  C   UNL     1       0.384   7.865 -28.966  1.00  0.00     0.071 A 
HETATM   17  C   UNL     1       1.267   8.115 -27.917  1.00  0.00     0.118 A 
HETATM   18  F   UNL     1       2.260   8.997 -28.092  1.00  0.00    -0.206 F 
HETATM   19  C   UNL     1       1.138   7.470 -26.695  1.00  0.00     0.042 A 
HETATM   20  C   UNL     1       0.108   6.553 -26.515  1.00  0.00     0.005 A 
HETATM   21  C   UNL     1      -0.783   6.293 -27.561  1.00  0.00     0.030 A 
ENDBRANCH  11  15
ENDBRANCH   8   9
ENDBRANCH   4   8
BRANCH   1  22
HETATM   22  C   UNL     1      -6.231   0.708 -31.450  1.00  0.00     0.274 C 
BRANCH  22  23
HETATM   23  C   UNL     1      -5.445  -0.399 -32.074  1.00  0.00    -0.015 A 
HETATM   24  C   UNL     1      -4.147  -0.755 -31.759  1.00  0.00     0.097 A 
HETATM   25  N   UNL     1      -3.768  -1.796 -32.568  1.00  0.00    -0.360 N 
HETATM   26  C   UNL     1      -4.801  -2.138 -33.409  1.00  0.00     0.108 A 
HETATM   27  H   UNL     1      -2.862  -2.256 -32.570  1.00  0.00     0.165 HD
HETATM   28  C   UNL     1      -5.848  -1.279 -33.125  1.00  0.00     0.046 A 
BRANCH  26  29
HETATM   29  C   UNL     1      -4.680  -3.209 -34.371  1.00  0.00     0.309 C 
HETATM   30  O   UNL     1      -3.749  -4.001 -34.402  1.00  0.00    -0.258 OA
BRANCH  29  31
HETATM   31  O   UNL     1      -5.737  -3.188 -35.226  1.00  0.00    -0.321 OA
HETATM   32  C   UNL     1      -6.493  -4.400 -35.246  1.00  0.00     0.213 C 
ENDBRANCH  29  31
ENDBRANCH  26  29
ENDBRANCH  22  23
ENDBRANCH   1  22
TORSDOF 7
ENDMDL
MODEL 10
REMARK VINA RESULT:      -7.9      3.542      5.374
REMARK  7 active torsions:
REMARK  status: ('A' for Active; 'I' for Inactive)
REMARK    1  A    between atoms: O_2  and  C_3 
REMARK    2  A    between atoms: C_3  and  C_4 
REMARK    3  A    between atoms: C_8  and  C_9 
REMARK    4  A    between atoms: C_9  and  N_10 
REMARK    5  A    between atoms: C_13  and  C_14 
REMARK    6  A    between atoms: C_14  and  N_15 
REMARK       I    between atoms: N_15  and  C_16 
REMARK       I    between atoms: C_16  and  N_17 
REMARK    7  A    between atoms: N_17  and  C_18 
ROOT
HETATM    1  N   UNL     1      -7.861   4.585 -31.953  1.00  0.00    -0.067 N 
HETATM    2  H   UNL     1      -7.223   4.816 -32.725  1.00  0.00     0.280 HD
HETATM    3  C   UNL     1      -8.476   3.242 -32.292  1.00  0.00     0.241 C 
HETATM    4  C   UNL     1      -9.171   3.354 -33.650  1.00  0.00     0.029 C 
HETATM    5  C   UNL     1     -10.244   4.453 -33.610  1.00  0.00     0.009 C 
HETATM    6  C   UNL     1      -9.642   5.787 -33.179  1.00  0.00     0.028 C 
HETATM    7  C   UNL     1      -8.892   5.676 -31.860  1.00  0.00     0.235 C 
ENDROOT
BRANCH   4   8
HETATM    8  C   UNL     1      -9.784   2.021 -34.113  1.00  0.00     0.130 C 
BRANCH   8   9
HETATM    9  N   UNL     1      -8.906   1.110 -34.833  1.00  0.00    -0.342 N 
HETATM   10  C   UNL     1      -8.232   0.074 -34.209  1.00  0.00     0.320 C 
HETATM   11  N   UNL     1      -7.310  -0.496 -35.055  1.00  0.00    -0.309 N 
HETATM   12  O   UNL     1      -8.509  -0.288 -33.074  1.00  0.00    -0.247 OA
HETATM   13  H   UNL     1      -7.315  -0.175 -36.011  1.00  0.00     0.170 HD
HETATM   14  H   UNL     1      -8.363   1.554 -35.563  1.00  0.00     0.164 HD
BRANCH  11  15
HETATM   15  C   UNL     1      -6.402  -1.536 -34.760  1.00  0.00     0.039 A 
HETATM   16  C   UNL     1      -6.614  -2.874 -35.092  1.00  0.00     0.071 A 
HETATM   17  C   UNL     1      -5.664  -3.832 -34.744  1.00  0.00     0.118 A 
HETATM   18  F   UNL     1      -5.878  -5.114 -35.068  1.00  0.00    -0.206 F 
HETATM   19  C   UNL     1      -4.501  -3.486 -34.070  1.00  0.00     0.042 A 
HETATM   20  C   UNL     1      -4.282  -2.155 -33.731  1.00  0.00     0.005 A 
HETATM   21  C   UNL     1      -5.228  -1.185 -34.074  1.00  0.00     0.030 A 
ENDBRANCH  11  15
ENDBRANCH   8   9
ENDBRANCH   4   8
BRANCH   1  22
HETATM   22  C   UNL     1      -6.990   4.536 -30.720  1.00  0.00     0.274 C 
BRANCH  22  23
HETATM   23  C   UNL     1      -5.570   4.150 -30.973  1.00  0.00    -0.015 A 
HETATM   24  C   UNL     1      -4.926   3.035 -30.470  1.00  0.00     0.097 A 
HETATM   25  N   UNL     1      -3.625   3.045 -30.904  1.00  0.00    -0.360 N 
HETATM   26  C   UNL     1      -3.401   4.149 -31.693  1.00  0.00     0.108 A 
HETATM   27  H   UNL     1      -2.912   2.356 -30.680  1.00  0.00     0.165 HD
HETATM   28  C   UNL     1      -4.592   4.852 -31.743  1.00  0.00     0.046 A 
BRANCH  26  29
HETATM   29  C   UNL     1      -2.112   4.413 -32.289  1.00  0.00     0.309 C 
HETATM   30  O   UNL     1      -1.935   4.599 -33.485  1.00  0.00    -0.258 OA
BRANCH  29  31
HETATM   31  O   UNL     1      -1.146   4.410 -31.333  1.00  0.00    -0.321 OA
HETATM   32  C   UNL     1      -0.875   5.698 -30.775  1.00  0.00     0.213 C 
ENDBRANCH  29  31
ENDBRANCH  26  29
ENDBRANCH  22  23
ENDBRANCH   1  22
TORSDOF 7
ENDMDL
