MODEL 1
REMARK VINA RESULT:      -8.6      0.000      0.000
REMARK  2 active torsions:
REMARK  status: ('A' for Active; 'I' for Inactive)
REMARK    1  A    between atoms: C_2  and  N_3 
REMARK    2  A    between atoms: N_3  and  C_4 
ROOT
HETATM    1  N   UNL     1      -5.711   1.099 -32.180  1.00  0.00    -0.340 N 
HETATM    2  H   UNL     1      -5.769   1.162 -31.175  1.00  0.00     0.167 HD
ENDROOT
BRANCH   1   3
HETATM    3  C   UNL     1      -5.195  -0.118 -32.656  1.00  0.00     0.036 A 
HETATM    4  C   UNL     1      -4.071  -0.747 -32.108  1.00  0.00     0.032 A 
HETATM    5  C   UNL     1      -3.614  -1.974 -32.604  1.00  0.00     0.042 A 
HETATM    6  C   UNL     1      -4.305  -2.615 -33.626  1.00  0.00     0.102 A 
HETATM    7  C   UNL     1      -5.435  -2.013 -34.177  1.00  0.00     0.104 A 
HETATM    8  O   UNL     1      -3.767  -3.778 -34.104  1.00  0.00    -0.348 OA
HETATM    9  C   UNL     1      -5.863  -0.768 -33.706  1.00  0.00     0.069 A 
HETATM   10  O   UNL     1      -6.122  -2.537 -35.238  1.00  0.00    -0.348 OA
HETATM   11  C   UNL     1      -6.699  -3.807 -34.928  1.00  0.00     0.178 C 
HETATM   12  C   UNL     1      -5.694  -4.941 -35.057  1.00  0.00     0.053 C 
HETATM   13  C   UNL     1      -4.655  -4.884 -33.948  1.00  0.00     0.178 C 
ENDBRANCH   1   3
BRANCH   1  14
HETATM   14  C   UNL     1      -6.120   2.265 -32.843  1.00  0.00     0.143 A 
HETATM   15  N   UNL     1      -5.230   3.239 -33.153  1.00  0.00    -0.223 NA
HETATM   16  C   UNL     1      -5.658   4.367 -33.739  1.00  0.00     0.236 A 
HETATM   17  N   UNL     1      -6.908   4.685 -34.080  1.00  0.00    -0.234 NA
HETATM   18  C   UNL     1      -7.778   3.710 -33.773  1.00  0.00     0.114 A 
HETATM   19  C   UNL     1      -7.478   2.488 -33.168  1.00  0.00     0.053 A 
HETATM   20  S   UNL     1      -9.453   3.907 -34.119  1.00  0.00    -0.073 SA
HETATM   21  C   UNL     1      -8.677   1.729 -33.029  1.00  0.00    -0.028 A 
HETATM   22  C   UNL     1      -9.778   2.394 -33.496  1.00  0.00    -0.008 A 
HETATM   23  C   UNL     1      -9.057   0.389 -32.510  1.00  0.00     0.041 C 
HETATM   24  C   UNL     1     -11.047   1.641 -33.367  1.00  0.00     0.047 C 
HETATM   25  C   UNL     1     -10.508   0.213 -33.057  1.00  0.00     0.010 C 
ENDBRANCH   1  14
TORSDOF 2
ENDMDL
MODEL 2
REMARK VINA RESULT:      -8.5      4.180      7.434
REMARK  2 active torsions:
REMARK  status: ('A' for Active; 'I' for Inactive)
REMARK    1  A    between atoms: C_2  and  N_3 
REMARK    2  A    between atoms: N_3  and  C_4 
ROOT
HETATM    1  N   UNL     1      -5.402   2.694 -32.684  1.00  0.00    -0.340 N 
HETATM    2  H   UNL     1      -5.793   2.769 -31.757  1.00  0.00     0.167 HD
ENDROOT
BRANCH   1   3
HETATM    3  C   UNL     1      -4.413   3.647 -32.976  1.00  0.00     0.036 A 
HETATM    4  C   UNL     1      -4.558   4.634 -33.958  1.00  0.00     0.032 A 
HETATM    5  C   UNL     1      -3.550   5.577 -34.191  1.00  0.00     0.042 A 
HETATM    6  C   UNL     1      -2.400   5.578 -33.410  1.00  0.00     0.102 A 
HETATM    7  C   UNL     1      -2.241   4.613 -32.418  1.00  0.00     0.104 A 
HETATM    8  O   UNL     1      -1.431   6.487 -33.734  1.00  0.00    -0.348 OA
HETATM    9  C   UNL     1      -3.232   3.647 -32.216  1.00  0.00     0.069 A 
HETATM   10  O   UNL     1      -1.106   4.494 -31.662  1.00  0.00    -0.348 OA
HETATM   11  C   UNL     1      -0.874   5.653 -30.858  1.00  0.00     0.178 C 
HETATM   12  C   UNL     1      -0.199   6.768 -31.641  1.00  0.00     0.053 C 
HETATM   13  C   UNL     1      -1.152   7.381 -32.657  1.00  0.00     0.178 C 
ENDBRANCH   1   3
BRANCH   1  14
HETATM   14  C   UNL     1      -5.982   1.679 -33.461  1.00  0.00     0.143 A 
HETATM   15  N   UNL     1      -7.041   1.938 -34.266  1.00  0.00    -0.223 NA
HETATM   16  C   UNL     1      -7.609   0.938 -34.956  1.00  0.00     0.236 A 
HETATM   17  N   UNL     1      -7.260  -0.349 -34.962  1.00  0.00    -0.234 NA
HETATM   18  C   UNL     1      -6.207  -0.590 -34.165  1.00  0.00     0.114 A 
HETATM   19  C   UNL     1      -5.516   0.347 -33.395  1.00  0.00     0.053 A 
HETATM   20  S   UNL     1      -5.587  -2.189 -34.014  1.00  0.00    -0.073 SA
HETATM   21  C   UNL     1      -4.454  -0.310 -32.704  1.00  0.00    -0.028 A 
HETATM   22  C   UNL     1      -4.412  -1.654 -32.960  1.00  0.00    -0.008 A 
HETATM   23  C   UNL     1      -3.365   0.081 -31.772  1.00  0.00     0.041 C 
HETATM   24  C   UNL     1      -3.323  -2.374 -32.259  1.00  0.00     0.047 C 
HETATM   25  C   UNL     1      -2.445  -1.180 -31.780  1.00  0.00     0.010 C 
ENDBRANCH   1  14
TORSDOF 2
ENDMDL
MODEL 3
REMARK VINA RESULT:      -8.5      3.331      6.648
REMARK  2 active torsions:
REMARK  status: ('A' for Active; 'I' for Inactive)
REMARK    1  A    between atoms: C_2  and  N_3 
REMARK    2  A    between atoms: N_3  and  C_4 
ROOT
HETATM    1  N   UNL     1      -6.687   1.568 -33.732  1.00  0.00    -0.340 N 
HETATM    2  H   UNL     1      -6.341   2.090 -34.523  1.00  0.00     0.167 HD
ENDROOT
BRANCH   1   3
HETATM    3  C   UNL     1      -8.081   1.399 -33.713  1.00  0.00     0.036 A 
HETATM    4  C   UNL     1      -8.723   0.355 -33.038  1.00  0.00     0.032 A 
HETATM    5  C   UNL     1     -10.119   0.247 -33.030  1.00  0.00     0.042 A 
HETATM    6  C   UNL     1     -10.898   1.213 -33.658  1.00  0.00     0.102 A 
HETATM    7  C   UNL     1     -10.279   2.269 -34.324  1.00  0.00     0.104 A 
HETATM    8  O   UNL     1     -12.250   1.011 -33.664  1.00  0.00    -0.348 OA
HETATM    9  C   UNL     1      -8.884   2.350 -34.365  1.00  0.00     0.069 A 
HETATM   10  O   UNL     1     -10.970   3.214 -35.035  1.00  0.00    -0.348 OA
HETATM   11  C   UNL     1     -11.840   3.981 -34.201  1.00  0.00     0.178 C 
HETATM   12  C   UNL     1     -13.155   3.266 -33.933  1.00  0.00     0.053 C 
HETATM   13  C   UNL     1     -12.953   2.070 -33.015  1.00  0.00     0.178 C 
ENDBRANCH   1   3
BRANCH   1  14
HETATM   14  C   UNL     1      -5.686   1.182 -32.828  1.00  0.00     0.143 A 
HETATM   15  N   UNL     1      -5.235   2.040 -31.880  1.00  0.00    -0.223 NA
HETATM   16  C   UNL     1      -4.239   1.663 -31.065  1.00  0.00     0.236 A 
HETATM   17  N   UNL     1      -3.592   0.498 -31.053  1.00  0.00    -0.234 NA
HETATM   18  C   UNL     1      -4.051  -0.344 -31.993  1.00  0.00     0.114 A 
HETATM   19  C   UNL     1      -5.079  -0.092 -32.904  1.00  0.00     0.053 A 
HETATM   20  S   UNL     1      -3.356  -1.909 -32.164  1.00  0.00    -0.073 SA
HETATM   21  C   UNL     1      -5.271  -1.245 -33.721  1.00  0.00    -0.028 A 
HETATM   22  C   UNL     1      -4.405  -2.259 -33.413  1.00  0.00    -0.008 A 
HETATM   23  C   UNL     1      -6.176  -1.649 -34.828  1.00  0.00     0.041 C 
HETATM   24  C   UNL     1      -4.570  -3.476 -34.240  1.00  0.00     0.047 C 
HETATM   25  C   UNL     1      -5.950  -3.191 -34.905  1.00  0.00     0.010 C 
ENDBRANCH   1  14
TORSDOF 2
ENDMDL
MODEL 4
REMARK VINA RESULT:      -8.4      3.249      6.709
REMARK  2 active torsions:
REMARK  status: ('A' for Active; 'I' for Inactive)
REMARK    1  A    between atoms: C_2  and  N_3 
REMARK    2  A    between atoms: N_3  and  C_4 
ROOT
HETATM    1  N   UNL     1      -5.865   0.415 -33.712  1.00  0.00    -0.340 N 
HETATM    2  H   UNL     1      -5.721   0.494 -34.708  1.00  0.00     0.167 HD
ENDROOT
BRANCH   1   3
HETATM    3  C   UNL     1      -7.002   1.088 -33.235  1.00  0.00     0.036 A 
HETATM    4  C   UNL     1      -6.955   2.350 -32.632  1.00  0.00     0.032 A 
HETATM    5  C   UNL     1      -8.121   2.989 -32.197  1.00  0.00     0.042 A 
HETATM    6  C   UNL     1      -9.362   2.395 -32.403  1.00  0.00     0.102 A 
HETATM    7  C   UNL     1      -9.432   1.144 -33.013  1.00  0.00     0.104 A 
HETATM    8  O   UNL     1     -10.453   3.045 -31.896  1.00  0.00    -0.348 OA
HETATM    9  C   UNL     1      -8.261   0.492 -33.409  1.00  0.00     0.069 A 
HETATM   10  O   UNL     1     -10.604   0.456 -33.179  1.00  0.00    -0.348 OA
HETATM   11  C   UNL     1     -11.518   1.150 -34.030  1.00  0.00     0.178 C 
HETATM   12  C   UNL     1     -12.291   2.227 -33.284  1.00  0.00     0.053 C 
HETATM   13  C   UNL     1     -11.389   3.395 -32.914  1.00  0.00     0.178 C 
ENDBRANCH   1   3
BRANCH   1  14
HETATM   14  C   UNL     1      -4.864  -0.314 -33.054  1.00  0.00     0.143 A 
HETATM   15  N   UNL     1      -4.014   0.293 -32.190  1.00  0.00    -0.223 NA
HETATM   16  C   UNL     1      -3.033  -0.417 -31.615  1.00  0.00     0.236 A 
HETATM   17  N   UNL     1      -2.757  -1.711 -31.783  1.00  0.00    -0.234 NA
HETATM   18  C   UNL     1      -3.609  -2.302 -32.636  1.00  0.00     0.114 A 
HETATM   19  C   UNL     1      -4.674  -1.693 -33.302  1.00  0.00     0.053 A 
HETATM   20  S   UNL     1      -3.438  -3.974 -33.008  1.00  0.00    -0.073 SA
HETATM   21  C   UNL     1      -5.342  -2.666 -34.103  1.00  0.00    -0.028 A 
HETATM   22  C   UNL     1      -4.760  -3.903 -34.022  1.00  0.00    -0.008 A 
HETATM   23  C   UNL     1      -6.517  -2.700 -35.011  1.00  0.00     0.041 C 
HETATM   24  C   UNL     1      -5.422  -4.944 -34.842  1.00  0.00     0.047 C 
HETATM   25  C   UNL     1      -6.762  -4.230 -35.191  1.00  0.00     0.010 C 
ENDBRANCH   1  14
TORSDOF 2
ENDMDL
MODEL 5
REMARK VINA RESULT:      -8.4      3.502      6.708
REMARK  2 active torsions:
REMARK  status: ('A' for Active; 'I' for Inactive)
REMARK    1  A    between atoms: C_2  and  N_3 
REMARK    2  A    between atoms: N_3  and  C_4 
ROOT
HETATM    1  N   UNL     1      -8.406   0.409 -31.463  1.00  0.00    -0.340 N 
HETATM    2  H   UNL     1      -8.817  -0.167 -30.743  1.00  0.00     0.167 HD
ENDROOT
BRANCH   1   3
HETATM    3  C   UNL     1      -9.312   0.849 -32.441  1.00  0.00     0.036 A 
HETATM    4  C   UNL     1     -10.443   0.121 -32.830  1.00  0.00     0.032 A 
HETATM    5  C   UNL     1     -11.329   0.619 -33.793  1.00  0.00     0.042 A 
HETATM    6  C   UNL     1     -11.123   1.877 -34.348  1.00  0.00     0.102 A 
HETATM    7  C   UNL     1     -10.010   2.624 -33.966  1.00  0.00     0.104 A 
HETATM    8  O   UNL     1     -11.991   2.272 -35.328  1.00  0.00    -0.348 OA
HETATM    9  C   UNL     1      -9.106   2.106 -33.034  1.00  0.00     0.069 A 
HETATM   10  O   UNL     1      -9.692   3.833 -34.524  1.00  0.00    -0.348 OA
HETATM   11  C   UNL     1     -10.695   4.819 -34.274  1.00  0.00     0.178 C 
HETATM   12  C   UNL     1     -11.859   4.711 -35.247  1.00  0.00     0.053 C 
HETATM   13  C   UNL     1     -12.689   3.466 -34.976  1.00  0.00     0.178 C 
ENDBRANCH   1   3
BRANCH   1  14
HETATM   14  C   UNL     1      -7.021   0.585 -31.322  1.00  0.00     0.143 A 
HETATM   15  N   UNL     1      -6.518   1.449 -30.407  1.00  0.00    -0.223 NA
HETATM   16  C   UNL     1      -5.193   1.638 -30.332  1.00  0.00     0.236 A 
HETATM   17  N   UNL     1      -4.244   1.063 -31.072  1.00  0.00    -0.234 NA
HETATM   18  C   UNL     1      -4.755   0.206 -31.970  1.00  0.00     0.114 A 
HETATM   19  C   UNL     1      -6.106  -0.093 -32.159  1.00  0.00     0.053 A 
HETATM   20  S   UNL     1      -3.711  -0.649 -33.039  1.00  0.00    -0.073 SA
HETATM   21  C   UNL     1      -6.228  -1.062 -33.199  1.00  0.00    -0.028 A 
HETATM   22  C   UNL     1      -5.019  -1.416 -33.733  1.00  0.00    -0.008 A 
HETATM   23  C   UNL     1      -7.331  -1.803 -33.863  1.00  0.00     0.041 C 
HETATM   24  C   UNL     1      -5.102  -2.419 -34.820  1.00  0.00     0.047 C 
HETATM   25  C   UNL     1      -6.567  -2.918 -34.644  1.00  0.00     0.010 C 
ENDBRANCH   1  14
TORSDOF 2
ENDMDL
MODEL 6
REMARK VINA RESULT:      -8.2      1.869      3.618
REMARK  2 active torsions:
REMARK  status: ('A' for Active; 'I' for Inactive)
REMARK    1  A    between atoms: C_2  and  N_3 
REMARK    2  A    between atoms: N_3  and  C_4 
ROOT
HETATM    1  N   UNL     1      -4.979   0.780 -31.352  1.00  0.00    -0.340 N 
HETATM    2  H   UNL     1      -4.369   0.969 -30.571  1.00  0.00     0.167 HD
ENDROOT
BRANCH   1   3
HETATM    3  C   UNL     1      -4.665  -0.391 -32.063  1.00  0.00     0.036 A 
HETATM    4  C   UNL     1      -3.620  -1.252 -31.708  1.00  0.00     0.032 A 
HETATM    5  C   UNL     1      -3.365  -2.420 -32.436  1.00  0.00     0.042 A 
HETATM    6  C   UNL     1      -4.186  -2.771 -33.503  1.00  0.00     0.102 A 
HETATM    7  C   UNL     1      -5.240  -1.935 -33.864  1.00  0.00     0.104 A 
HETATM    8  O   UNL     1      -3.841  -3.891 -34.207  1.00  0.00    -0.348 OA
HETATM    9  C   UNL     1      -5.465  -0.748 -33.160  1.00  0.00     0.069 A 
HETATM   10  O   UNL     1      -6.042  -2.166 -34.949  1.00  0.00    -0.348 OA
HETATM   11  C   UNL     1      -6.781  -3.382 -34.820  1.00  0.00     0.178 C 
HETATM   12  C   UNL     1      -5.955  -4.599 -35.210  1.00  0.00     0.053 C 
HETATM   13  C   UNL     1      -4.871  -4.879 -34.181  1.00  0.00     0.178 C 
ENDBRANCH   1   3
BRANCH   1  14
HETATM   14  C   UNL     1      -5.960   1.762 -31.554  1.00  0.00     0.143 A 
HETATM   15  N   UNL     1      -7.245   1.550 -31.178  1.00  0.00    -0.223 NA
HETATM   16  C   UNL     1      -8.172   2.485 -31.431  1.00  0.00     0.236 A 
HETATM   17  N   UNL     1      -8.001   3.660 -32.037  1.00  0.00    -0.234 NA
HETATM   18  C   UNL     1      -6.723   3.860 -32.398  1.00  0.00     0.114 A 
HETATM   19  C   UNL     1      -5.656   2.983 -32.197  1.00  0.00     0.053 A 
HETATM   20  S   UNL     1      -6.271   5.313 -33.202  1.00  0.00    -0.073 SA
HETATM   21  C   UNL     1      -4.464   3.573 -32.713  1.00  0.00    -0.028 A 
HETATM   22  C   UNL     1      -4.684   4.803 -33.271  1.00  0.00    -0.008 A 
HETATM   23  C   UNL     1      -3.027   3.207 -32.803  1.00  0.00     0.041 C 
HETATM   24  C   UNL     1      -3.471   5.450 -33.822  1.00  0.00     0.047 C 
HETATM   25  C   UNL     1      -2.357   4.562 -33.192  1.00  0.00     0.010 C 
ENDBRANCH   1  14
TORSDOF 2
ENDMDL
MODEL 7
REMARK VINA RESULT:      -8.2      2.649      4.022
REMARK  2 active torsions:
REMARK  status: ('A' for Active; 'I' for Inactive)
REMARK    1  A    between atoms: C_2  and  N_3 
REMARK    2  A    between atoms: N_3  and  C_4 
ROOT
HETATM    1  N   UNL     1      -9.566   1.075 -34.485  1.00  0.00    -0.340 N 
HETATM    2  H   UNL     1     -10.261   0.551 -34.995  1.00  0.00     0.167 HD
ENDROOT
BRANCH   1   3
HETATM    3  C   UNL     1      -8.360   0.386 -34.273  1.00  0.00     0.036 A 
HETATM    4  C   UNL     1      -7.592  -0.160 -35.308  1.00  0.00     0.032 A 
HETATM    5  C   UNL     1      -6.383  -0.814 -35.045  1.00  0.00     0.042 A 
HETATM    6  C   UNL     1      -5.899  -0.890 -33.743  1.00  0.00     0.102 A 
HETATM    7  C   UNL     1      -6.642  -0.341 -32.700  1.00  0.00     0.104 A 
HETATM    8  O   UNL     1      -4.745  -1.599 -33.551  1.00  0.00    -0.348 OA
HETATM    9  C   UNL     1      -7.869   0.275 -32.963  1.00  0.00     0.069 A 
HETATM   10  O   UNL     1      -6.277  -0.445 -31.384  1.00  0.00    -0.348 OA
HETATM   11  C   UNL     1      -5.036   0.212 -31.119  1.00  0.00     0.178 C 
HETATM   12  C   UNL     1      -3.839  -0.651 -31.488  1.00  0.00     0.053 C 
HETATM   13  C   UNL     1      -3.707  -0.791 -32.996  1.00  0.00     0.178 C 
ENDBRANCH   1   3
BRANCH   1  14
HETATM   14  C   UNL     1     -10.002   2.345 -34.080  1.00  0.00     0.143 A 
HETATM   15  N   UNL     1      -9.143   3.392 -34.028  1.00  0.00    -0.223 NA
HETATM   16  C   UNL     1      -9.574   4.582 -33.585  1.00  0.00     0.236 A 
HETATM   17  N   UNL     1     -10.799   4.901 -33.164  1.00  0.00    -0.234 NA
HETATM   18  C   UNL     1     -11.641   3.857 -33.226  1.00  0.00     0.114 A 
HETATM   19  C   UNL     1     -11.335   2.568 -33.666  1.00  0.00     0.053 A 
HETATM   20  S   UNL     1     -13.278   4.037 -32.725  1.00  0.00    -0.073 SA
HETATM   21  C   UNL     1     -12.507   1.758 -33.589  1.00  0.00    -0.028 A 
HETATM   22  C   UNL     1     -13.587   2.441 -33.098  1.00  0.00    -0.008 A 
HETATM   23  C   UNL     1     -12.877   0.355 -33.909  1.00  0.00     0.041 C 
HETATM   24  C   UNL     1     -14.826   1.636 -32.999  1.00  0.00     0.047 C 
HETATM   25  C   UNL     1     -14.437   0.397 -33.860  1.00  0.00     0.010 C 
ENDBRANCH   1  14
TORSDOF 2
ENDMDL
MODEL 8
REMARK VINA RESULT:      -8.2      2.833      4.358
REMARK  2 active torsions:
REMARK  status: ('A' for Active; 'I' for Inactive)
REMARK    1  A    between atoms: C_2  and  N_3 
REMARK    2  A    between atoms: N_3  and  C_4 
ROOT
HETATM    1  N   UNL     1     -10.100   0.917 -32.422  1.00  0.00    -0.340 N 
HETATM    2  H   UNL     1     -10.331   1.048 -31.449  1.00  0.00     0.167 HD
ENDROOT
BRANCH   1   3
HETATM    3  C   UNL     1      -8.755   0.591 -32.660  1.00  0.00     0.036 A 
HETATM    4  C   UNL     1      -7.696   1.063 -31.874  1.00  0.00     0.032 A 
HETATM    5  C   UNL     1      -6.374   0.686 -32.139  1.00  0.00     0.042 A 
HETATM    6  C   UNL     1      -6.095  -0.210 -33.166  1.00  0.00     0.102 A 
HETATM    7  C   UNL     1      -7.135  -0.702 -33.951  1.00  0.00     0.104 A 
HETATM    8  O   UNL     1      -4.777  -0.484 -33.408  1.00  0.00    -0.348 OA
HETATM    9  C   UNL     1      -8.450  -0.291 -33.709  1.00  0.00     0.069 A 
HETATM   10  O   UNL     1      -6.937  -1.521 -35.030  1.00  0.00    -0.348 OA
HETATM   11  C   UNL     1      -6.357  -2.771 -34.654  1.00  0.00     0.178 C 
HETATM   12  C   UNL     1      -4.848  -2.676 -34.488  1.00  0.00     0.053 C 
HETATM   13  C   UNL     1      -4.481  -1.871 -33.251  1.00  0.00     0.178 C 
ENDBRANCH   1   3
BRANCH   1  14
HETATM   14  C   UNL     1     -11.177   1.139 -33.293  1.00  0.00     0.143 A 
HETATM   15  N   UNL     1     -12.168   0.223 -33.423  1.00  0.00    -0.223 NA
HETATM   16  C   UNL     1     -13.157   0.437 -34.303  1.00  0.00     0.236 A 
HETATM   17  N   UNL     1     -13.313   1.482 -35.116  1.00  0.00    -0.234 NA
HETATM   18  C   UNL     1     -12.328   2.383 -34.974  1.00  0.00     0.114 A 
HETATM   19  C   UNL     1     -11.243   2.297 -34.101  1.00  0.00     0.053 A 
HETATM   20  S   UNL     1     -12.323   3.814 -35.931  1.00  0.00    -0.073 SA
HETATM   21  C   UNL     1     -10.434   3.463 -34.245  1.00  0.00    -0.028 A 
HETATM   22  C   UNL     1     -10.917   4.324 -35.194  1.00  0.00    -0.008 A 
HETATM   23  C   UNL     1      -9.194   4.004 -33.631  1.00  0.00     0.041 C 
HETATM   24  C   UNL     1     -10.104   5.549 -35.377  1.00  0.00     0.047 C 
HETATM   25  C   UNL     1      -9.198   5.489 -34.112  1.00  0.00     0.010 C 
ENDBRANCH   1  14
TORSDOF 2
ENDMDL
MODEL 9
REMARK VINA RESULT:      -8.0      4.151      6.736
REMARK  2 active torsions:
REMARK  status: ('A' for Active; 'I' for Inactive)
REMARK    1  A    between atoms: C_2  and  N_3 
REMARK    2  A    between atoms: N_3  and  C_4 
ROOT
HETATM    1  N   UNL     1      -5.145   2.523 -31.372  1.00  0.00    -0.340 N 
HETATM    2  H   UNL     1      -4.760   1.870 -30.706  1.00  0.00     0.167 HD
ENDROOT
BRANCH   1   3
HETATM    3  C   UNL     1      -4.197   3.366 -31.973  1.00  0.00     0.036 A 
HETATM    4  C   UNL     1      -4.416   4.036 -33.183  1.00  0.00     0.032 A 
HETATM    5  C   UNL     1      -3.446   4.886 -33.726  1.00  0.00     0.042 A 
HETATM    6  C   UNL     1      -2.257   5.117 -33.042  1.00  0.00     0.102 A 
HETATM    7  C   UNL     1      -2.024   4.471 -31.830  1.00  0.00     0.104 A 
HETATM    8  O   UNL     1      -1.330   5.908 -33.662  1.00  0.00    -0.348 OA
HETATM    9  C   UNL     1      -2.979   3.590 -31.312  1.00  0.00     0.069 A 
HETATM   10  O   UNL     1      -0.849   4.580 -31.137  1.00  0.00    -0.348 OA
HETATM   11  C   UNL     1      -0.605   5.919 -30.703  1.00  0.00     0.178 C 
HETATM   12  C   UNL     1       0.000   6.777 -31.804  1.00  0.00     0.053 C 
HETATM   13  C   UNL     1      -1.018   7.070 -32.895  1.00  0.00     0.178 C 
ENDBRANCH   1   3
BRANCH   1  14
HETATM   14  C   UNL     1      -6.541   2.448 -31.492  1.00  0.00     0.143 A 
HETATM   15  N   UNL     1      -7.340   3.380 -30.917  1.00  0.00    -0.223 NA
HETATM   16  C   UNL     1      -8.673   3.255 -31.003  1.00  0.00     0.236 A 
HETATM   17  N   UNL     1      -9.363   2.288 -31.607  1.00  0.00    -0.234 NA
HETATM   18  C   UNL     1      -8.560   1.375 -32.177  1.00  0.00     0.114 A 
HETATM   19  C   UNL     1      -7.164   1.378 -32.172  1.00  0.00     0.053 A 
HETATM   20  S   UNL     1      -9.238   0.030 -33.011  1.00  0.00    -0.073 SA
HETATM   21  C   UNL     1      -6.693   0.244 -32.899  1.00  0.00    -0.028 A 
HETATM   22  C   UNL     1      -7.712  -0.535 -33.377  1.00  0.00    -0.008 A 
HETATM   23  C   UNL     1      -5.375  -0.323 -33.285  1.00  0.00     0.041 C 
HETATM   24  C   UNL     1      -7.265  -1.726 -34.136  1.00  0.00     0.047 C 
HETATM   25  C   UNL     1      -5.765  -1.377 -34.368  1.00  0.00     0.010 C 
ENDBRANCH   1  14
TORSDOF 2
ENDMDL
MODEL 10
REMARK VINA RESULT:      -8.0      2.312      2.710
REMARK  2 active torsions:
REMARK  status: ('A' for Active; 'I' for Inactive)
REMARK    1  A    between atoms: C_2  and  N_3 
REMARK    2  A    between atoms: N_3  and  C_4 
ROOT
HETATM    1  N   UNL     1      -8.532   1.019 -31.179  1.00  0.00    -0.340 N 
HETATM    2  H   UNL     1      -9.128   0.389 -30.665  1.00  0.00     0.167 HD
ENDROOT
BRANCH   1   3
HETATM    3  C   UNL     1      -7.449   0.398 -31.822  1.00  0.00     0.036 A 
HETATM    4  C   UNL     1      -6.138   0.428 -31.331  1.00  0.00     0.032 A 
HETATM    5  C   UNL     1      -5.099  -0.230 -31.999  1.00  0.00     0.042 A 
HETATM    6  C   UNL     1      -5.364  -0.971 -33.146  1.00  0.00     0.102 A 
HETATM    7  C   UNL     1      -6.664  -1.025 -33.644  1.00  0.00     0.104 A 
HETATM    8  O   UNL     1      -4.293  -1.535 -33.781  1.00  0.00    -0.348 OA
HETATM    9  C   UNL     1      -7.692  -0.332 -32.997  1.00  0.00     0.069 A 
HETATM   10  O   UNL     1      -6.994  -1.663 -34.810  1.00  0.00    -0.348 OA
HETATM   11  C   UNL     1      -6.743  -3.068 -34.741  1.00  0.00     0.178 C 
HETATM   12  C   UNL     1      -5.284  -3.404 -35.006  1.00  0.00     0.053 C 
HETATM   13  C   UNL     1      -4.399  -2.957 -33.852  1.00  0.00     0.178 C 
ENDBRANCH   1   3
BRANCH   1  14
HETATM   14  C   UNL     1      -8.915   2.365 -31.081  1.00  0.00     0.143 A 
HETATM   15  N   UNL     1      -8.305   3.202 -30.207  1.00  0.00    -0.223 NA
HETATM   16  C   UNL     1      -8.728   4.470 -30.097  1.00  0.00     0.236 A 
HETATM   17  N   UNL     1      -9.722   5.058 -30.762  1.00  0.00    -0.234 NA
HETATM   18  C   UNL     1     -10.315   4.220 -31.628  1.00  0.00     0.114 A 
HETATM   19  C   UNL     1      -9.981   2.883 -31.852  1.00  0.00     0.053 A 
HETATM   20  S   UNL     1     -11.631   4.766 -32.594  1.00  0.00    -0.073 SA
HETATM   21  C   UNL     1     -10.839   2.350 -32.859  1.00  0.00    -0.028 A 
HETATM   22  C   UNL     1     -11.751   3.265 -33.311  1.00  0.00    -0.008 A 
HETATM   23  C   UNL     1     -11.007   1.053 -33.563  1.00  0.00     0.041 C 
HETATM   24  C   UNL     1     -12.665   2.751 -34.358  1.00  0.00     0.047 C 
HETATM   25  C   UNL     1     -11.936   1.433 -34.757  1.00  0.00     0.010 C 
ENDBRANCH   1  14
TORSDOF 2
ENDMDL
