MODEL 1
REMARK VINA RESULT:      -9.0      0.000      0.000
REMARK  9 active torsions:
REMARK  status: ('A' for Active; 'I' for Inactive)
REMARK    1  A    between atoms: O_2  and  C_3 
REMARK    2  A    between atoms: C_5  and  C_15 
REMARK    3  A    between atoms: C_8  and  C_9 
REMARK       I    between atoms: C_15  and  N_17 
REMARK    4  A    between atoms: N_17  and  C_18 
REMARK    5  A    between atoms: C_18  and  C_19 
REMARK    6  A    between atoms: C_23  and  C_25 
REMARK       I    between atoms: C_25  and  N_27 
REMARK    7  A    between atoms: N_27  and  C_28 
REMARK    8  A    between atoms: C_28  and  C_29 
REMARK    9  A    between atoms: C_29  and  O_32 
ROOT
HETATM    1  C   UNL     1      -5.995   2.874 -33.214  1.00  0.00     0.252 C 
HETATM    2  O   UNL     1      -6.203   3.238 -32.063  1.00  0.00    -0.268 OA
HETATM    3  N   UNL     1      -5.716   3.746 -34.244  1.00  0.00    -0.353 N 
HETATM    4  H   UNL     1      -5.300   3.389 -35.093  1.00  0.00     0.163 HD
ENDROOT
BRANCH   3   5
HETATM    5  C   UNL     1      -5.577   5.161 -33.990  1.00  0.00     0.161 C 
BRANCH   5   6
HETATM    6  C   UNL     1      -4.133   5.518 -33.750  1.00  0.00    -0.040 A 
HETATM    7  C   UNL     1      -3.142   5.170 -34.678  1.00  0.00     0.009 A 
HETATM    8  C   UNL     1      -1.809   5.516 -34.452  1.00  0.00     0.002 A 
HETATM    9  C   UNL     1      -1.453   6.207 -33.294  1.00  0.00     0.017 A 
HETATM   10  C   UNL     1      -2.427   6.546 -32.347  1.00  0.00     0.032 A 
HETATM   11  C   UNL     1      -3.765   6.210 -32.583  1.00  0.00     0.026 A 
BRANCH  10  12
HETATM   12  C   UNL     1      -1.995   7.278 -31.126  1.00  0.00     0.251 C 
HETATM   13  O   UNL     1      -1.852   8.495 -31.157  1.00  0.00    -0.268 OA
HETATM   14  N   UNL     1      -1.740   6.516 -30.006  1.00  0.00    -0.354 N 
HETATM   15  H   UNL     1      -1.764   5.508 -30.053  1.00  0.00     0.162 HD
BRANCH  14  16
HETATM   16  C   UNL     1      -1.272   7.110 -28.761  1.00  0.00     0.159 C 
BRANCH  16  17
HETATM   17  C   UNL     1      -0.035   6.393 -28.172  1.00  0.00     0.066 C 
HETATM   18  C   UNL     1       0.619   5.425 -29.161  1.00  0.00     0.047 C 
HETATM   19  C   UNL     1       0.989   7.432 -27.711  1.00  0.00     0.047 C 
BRANCH  17  20
HETATM   20  O   UNL     1      -0.439   5.653 -27.010  1.00  0.00    -0.389 OA
HETATM   21  H   UNL     1      -0.689   6.309 -26.335  1.00  0.00     0.210 HD
ENDBRANCH  17  20
ENDBRANCH  16  17
ENDBRANCH  14  16
ENDBRANCH  10  12
ENDBRANCH   5   6
ENDBRANCH   3   5
BRANCH   1  22
HETATM   22  C   UNL     1      -6.002   1.425 -33.554  1.00  0.00     0.034 A 
HETATM   23  C   UNL     1      -5.186   0.500 -32.888  1.00  0.00     0.054 A 
HETATM   24  C   UNL     1      -5.219  -0.859 -33.236  1.00  0.00     0.080 A 
HETATM   25  C   UNL     1      -6.094  -1.304 -34.253  1.00  0.00     0.010 A 
HETATM   26  C   UNL     1      -6.884  -0.357 -34.930  1.00  0.00     0.016 A 
HETATM   27  C   UNL     1      -6.836   0.995 -34.588  1.00  0.00     0.018 A 
BRANCH  24  28
HETATM   28  O   UNL     1      -4.466  -1.811 -32.593  1.00  0.00    -0.355 OA
HETATM   29  C   UNL     1      -3.287  -1.375 -31.927  1.00  0.00     0.210 C 
ENDBRANCH  24  28
BRANCH  25  30
HETATM   30  C   UNL     1      -6.182  -2.707 -34.645  1.00  0.00     0.013 A 
HETATM   31  C   UNL     1      -5.279  -3.542 -35.344  1.00  0.00     0.152 A 
HETATM   32  N   UNL     1      -5.741  -4.785 -35.511  1.00  0.00    -0.187 NA
HETATM   33  N   UNL     1      -6.938  -4.757 -34.905  1.00  0.00    -0.289 N 
HETATM   34  H   UNL     1      -7.489  -5.608 -34.892  1.00  0.00     0.188 HD
HETATM   35  C   UNL     1      -7.250  -3.539 -34.375  1.00  0.00     0.123 A 
ENDBRANCH  25  30
ENDBRANCH   1  22
TORSDOF 9
ENDMDL
MODEL 2
REMARK VINA RESULT:      -8.3     16.880     18.330
REMARK  9 active torsions:
REMARK  status: ('A' for Active; 'I' for Inactive)
REMARK    1  A    between atoms: O_2  and  C_3 
REMARK    2  A    between atoms: C_5  and  C_15 
REMARK    3  A    between atoms: C_8  and  C_9 
REMARK       I    between atoms: C_15  and  N_17 
REMARK    4  A    between atoms: N_17  and  C_18 
REMARK    5  A    between atoms: C_18  and  C_19 
REMARK    6  A    between atoms: C_23  and  C_25 
REMARK       I    between atoms: C_25  and  N_27 
REMARK    7  A    between atoms: N_27  and  C_28 
REMARK    8  A    between atoms: C_28  and  C_29 
REMARK    9  A    between atoms: C_29  and  O_32 
ROOT
HETATM    1  C   UNL     1      -3.490 -12.317 -38.964  1.00  0.00     0.252 C 
HETATM    2  O   UNL     1      -3.092 -11.332 -38.354  1.00  0.00    -0.268 OA
HETATM    3  N   UNL     1      -2.651 -13.304 -39.434  1.00  0.00    -0.353 N 
HETATM    4  H   UNL     1      -3.041 -14.202 -39.688  1.00  0.00     0.163 HD
ENDROOT
BRANCH   3   5
HETATM    5  C   UNL     1      -1.235 -13.259 -39.153  1.00  0.00     0.161 C 
BRANCH   5   6
HETATM    6  C   UNL     1      -0.876 -14.253 -38.079  1.00  0.00    -0.040 A 
HETATM    7  C   UNL     1       0.349 -14.933 -38.108  1.00  0.00     0.009 A 
HETATM    8  C   UNL     1       0.677 -15.842 -37.101  1.00  0.00     0.002 A 
HETATM    9  C   UNL     1      -0.218 -16.084 -36.059  1.00  0.00     0.017 A 
HETATM   10  C   UNL     1      -1.454 -15.428 -36.024  1.00  0.00     0.032 A 
HETATM   11  C   UNL     1      -1.774 -14.506 -37.028  1.00  0.00     0.026 A 
BRANCH  10  12
HETATM   12  C   UNL     1      -2.377 -15.724 -34.895  1.00  0.00     0.251 C 
HETATM   13  O   UNL     1      -1.956 -16.288 -33.890  1.00  0.00    -0.268 OA
HETATM   14  N   UNL     1      -3.697 -15.370 -35.065  1.00  0.00    -0.354 N 
HETATM   15  H   UNL     1      -4.023 -15.008 -35.950  1.00  0.00     0.162 HD
BRANCH  14  16
HETATM   16  C   UNL     1      -4.705 -15.644 -34.051  1.00  0.00     0.159 C 
BRANCH  16  17
HETATM   17  C   UNL     1      -5.453 -14.376 -33.578  1.00  0.00     0.066 C 
HETATM   18  C   UNL     1      -5.240 -13.178 -34.506  1.00  0.00     0.047 C 
HETATM   19  C   UNL     1      -6.949 -14.678 -33.457  1.00  0.00     0.047 C 
BRANCH  17  20
HETATM   20  O   UNL     1      -4.986 -14.025 -32.267  1.00  0.00    -0.389 OA
HETATM   21  H   UNL     1      -4.112 -13.611 -32.384  1.00  0.00     0.210 HD
ENDBRANCH  17  20
ENDBRANCH  16  17
ENDBRANCH  14  16
ENDBRANCH  10  12
ENDBRANCH   5   6
ENDBRANCH   3   5
BRANCH   1  22
HETATM   22  C   UNL     1      -4.946 -12.512 -39.204  1.00  0.00     0.034 A 
HETATM   23  C   UNL     1      -5.796 -13.043 -38.224  1.00  0.00     0.054 A 
HETATM   24  C   UNL     1      -7.165 -13.213 -38.485  1.00  0.00     0.080 A 
HETATM   25  C   UNL     1      -7.695 -12.831 -39.738  1.00  0.00     0.010 A 
HETATM   26  C   UNL     1      -6.821 -12.327 -40.718  1.00  0.00     0.016 A 
HETATM   27  C   UNL     1      -5.459 -12.174 -40.457  1.00  0.00     0.018 A 
BRANCH  24  28
HETATM   28  O   UNL     1      -8.047 -13.697 -37.550  1.00  0.00    -0.355 OA
HETATM   29  C   UNL     1      -7.864 -15.035 -37.105  1.00  0.00     0.210 C 
ENDBRANCH  24  28
BRANCH  25  30
HETATM   30  C   UNL     1      -9.112 -12.971 -40.059  1.00  0.00     0.013 A 
HETATM   31  C   UNL     1      -9.922 -14.116 -40.240  1.00  0.00     0.152 A 
HETATM   32  N   UNL     1     -11.191 -13.815 -40.536  1.00  0.00    -0.187 NA
HETATM   33  N   UNL     1     -11.203 -12.474 -40.529  1.00  0.00    -0.289 N 
HETATM   34  H   UNL     1     -12.079 -12.001 -40.722  1.00  0.00     0.188 HD
HETATM   35  C   UNL     1      -9.986 -11.920 -40.254  1.00  0.00     0.123 A 
ENDBRANCH  25  30
ENDBRANCH   1  22
TORSDOF 9
ENDMDL
MODEL 3
REMARK VINA RESULT:      -8.1      1.666      2.308
REMARK  9 active torsions:
REMARK  status: ('A' for Active; 'I' for Inactive)
REMARK    1  A    between atoms: O_2  and  C_3 
REMARK    2  A    between atoms: C_5  and  C_15 
REMARK    3  A    between atoms: C_8  and  C_9 
REMARK       I    between atoms: C_15  and  N_17 
REMARK    4  A    between atoms: N_17  and  C_18 
REMARK    5  A    between atoms: C_18  and  C_19 
REMARK    6  A    between atoms: C_23  and  C_25 
REMARK       I    between atoms: C_25  and  N_27 
REMARK    7  A    between atoms: N_27  and  C_28 
REMARK    8  A    between atoms: C_28  and  C_29 
REMARK    9  A    between atoms: C_29  and  O_32 
ROOT
HETATM    1  C   UNL     1      -6.799   2.452 -33.904  1.00  0.00     0.252 C 
HETATM    2  O   UNL     1      -7.976   2.783 -33.984  1.00  0.00    -0.268 OA
HETATM    3  N   UNL     1      -5.778   3.346 -33.668  1.00  0.00    -0.353 N 
HETATM    4  H   UNL     1      -4.882   2.998 -33.354  1.00  0.00     0.163 HD
ENDROOT
BRANCH   3   5
HETATM    5  C   UNL     1      -6.064   4.740 -33.421  1.00  0.00     0.161 C 
BRANCH   5   6
HETATM    6  C   UNL     1      -5.815   5.084 -31.975  1.00  0.00    -0.040 A 
HETATM    7  C   UNL     1      -6.606   4.534 -30.957  1.00  0.00     0.009 A 
HETATM    8  C   UNL     1      -6.359   4.849 -29.620  1.00  0.00     0.002 A 
HETATM    9  C   UNL     1      -5.321   5.721 -29.288  1.00  0.00     0.017 A 
HETATM   10  C   UNL     1      -4.533   6.293 -30.293  1.00  0.00     0.032 A 
HETATM   11  C   UNL     1      -4.774   5.964 -31.632  1.00  0.00     0.026 A 
BRANCH  10  12
HETATM   12  C   UNL     1      -3.442   7.221 -29.888  1.00  0.00     0.251 C 
HETATM   13  O   UNL     1      -3.321   8.307 -30.445  1.00  0.00    -0.268 OA
HETATM   14  N   UNL     1      -2.584   6.777 -28.906  1.00  0.00    -0.354 N 
HETATM   15  H   UNL     1      -2.652   5.833 -28.551  1.00  0.00     0.162 HD
BRANCH  14  16
HETATM   16  C   UNL     1      -1.453   7.575 -28.452  1.00  0.00     0.159 C 
BRANCH  16  17
HETATM   17  C   UNL     1      -0.086   6.929 -28.774  1.00  0.00     0.066 C 
HETATM   18  C   UNL     1       0.219   6.893 -30.273  1.00  0.00     0.047 C 
HETATM   19  C   UNL     1       1.024   7.684 -28.038  1.00  0.00     0.047 C 
BRANCH  17  20
HETATM   20  O   UNL     1      -0.082   5.582 -28.276  1.00  0.00    -0.389 OA
HETATM   21  H   UNL     1       0.849   5.296 -28.254  1.00  0.00     0.210 HD
ENDBRANCH  17  20
ENDBRANCH  16  17
ENDBRANCH  14  16
ENDBRANCH  10  12
ENDBRANCH   5   6
ENDBRANCH   3   5
BRANCH   1  22
HETATM   22  C   UNL     1      -6.414   1.021 -34.032  1.00  0.00     0.034 A 
HETATM   23  C   UNL     1      -5.341   0.472 -33.314  1.00  0.00     0.054 A 
HETATM   24  C   UNL     1      -5.006  -0.883 -33.459  1.00  0.00     0.080 A 
HETATM   25  C   UNL     1      -5.764  -1.707 -34.322  1.00  0.00     0.010 A 
HETATM   26  C   UNL     1      -6.818  -1.132 -35.055  1.00  0.00     0.016 A 
HETATM   27  C   UNL     1      -7.137   0.219 -34.916  1.00  0.00     0.018 A 
BRANCH  24  28
HETATM   28  O   UNL     1      -3.987  -1.477 -32.755  1.00  0.00    -0.355 OA
HETATM   29  C   UNL     1      -3.532  -0.821 -31.578  1.00  0.00     0.210 C 
ENDBRANCH  24  28
BRANCH  25  30
HETATM   30  C   UNL     1      -5.470  -3.125 -34.500  1.00  0.00     0.013 A 
HETATM   31  C   UNL     1      -6.258  -4.190 -34.996  1.00  0.00     0.152 A 
HETATM   32  N   UNL     1      -5.615  -5.362 -34.991  1.00  0.00    -0.187 NA
HETATM   33  N   UNL     1      -4.404  -5.050 -34.505  1.00  0.00    -0.289 N 
HETATM   34  H   UNL     1      -3.719  -5.792 -34.414  1.00  0.00     0.188 HD
HETATM   35  C   UNL     1      -4.267  -3.729 -34.192  1.00  0.00     0.123 A 
ENDBRANCH  25  30
ENDBRANCH   1  22
TORSDOF 9
ENDMDL
MODEL 4
REMARK VINA RESULT:      -7.9      1.746      2.520
REMARK  9 active torsions:
REMARK  status: ('A' for Active; 'I' for Inactive)
REMARK    1  A    between atoms: O_2  and  C_3 
REMARK    2  A    between atoms: C_5  and  C_15 
REMARK    3  A    between atoms: C_8  and  C_9 
REMARK       I    between atoms: C_15  and  N_17 
REMARK    4  A    between atoms: N_17  and  C_18 
REMARK    5  A    between atoms: C_18  and  C_19 
REMARK    6  A    between atoms: C_23  and  C_25 
REMARK       I    between atoms: C_25  and  N_27 
REMARK    7  A    between atoms: N_27  and  C_28 
REMARK    8  A    between atoms: C_28  and  C_29 
REMARK    9  A    between atoms: C_29  and  O_32 
ROOT
HETATM    1  C   UNL     1      -4.720   2.639 -31.796  1.00  0.00     0.252 C 
HETATM    2  O   UNL     1      -4.773   2.959 -30.614  1.00  0.00    -0.268 OA
HETATM    3  N   UNL     1      -4.765   3.551 -32.828  1.00  0.00    -0.353 N 
HETATM    4  H   UNL     1      -4.458   3.267 -33.749  1.00  0.00     0.163 HD
ENDROOT
BRANCH   3   5
HETATM    5  C   UNL     1      -4.798   4.969 -32.554  1.00  0.00     0.161 C 
BRANCH   5   6
HETATM    6  C   UNL     1      -3.443   5.585 -32.788  1.00  0.00    -0.040 A 
HETATM    7  C   UNL     1      -3.084   6.077 -34.050  1.00  0.00     0.009 A 
HETATM    8  C   UNL     1      -1.830   6.657 -34.252  1.00  0.00     0.002 A 
HETATM    9  C   UNL     1      -0.923   6.747 -33.196  1.00  0.00     0.017 A 
HETATM   10  C   UNL     1      -1.259   6.245 -31.934  1.00  0.00     0.032 A 
HETATM   11  C   UNL     1      -2.522   5.675 -31.730  1.00  0.00     0.026 A 
BRANCH  10  12
HETATM   12  C   UNL     1      -0.254   6.359 -30.842  1.00  0.00     0.251 C 
HETATM   13  O   UNL     1       0.891   6.717 -31.095  1.00  0.00    -0.268 OA
HETATM   14  N   UNL     1      -0.674   6.011 -29.576  1.00  0.00    -0.354 N 
HETATM   15  H   UNL     1      -1.592   5.617 -29.428  1.00  0.00     0.162 HD
BRANCH  14  16
HETATM   16  C   UNL     1       0.226   6.040 -28.431  1.00  0.00     0.159 C 
BRANCH  16  17
HETATM   17  C   UNL     1       0.336   7.438 -27.780  1.00  0.00     0.066 C 
HETATM   18  C   UNL     1      -0.983   8.214 -27.810  1.00  0.00     0.047 C 
HETATM   19  C   UNL     1       0.819   7.294 -26.335  1.00  0.00     0.047 C 
BRANCH  17  20
HETATM   20  O   UNL     1       1.329   8.200 -28.484  1.00  0.00    -0.389 OA
HETATM   21  H   UNL     1       2.040   8.387 -27.845  1.00  0.00     0.210 HD
ENDBRANCH  17  20
ENDBRANCH  16  17
ENDBRANCH  14  16
ENDBRANCH  10  12
ENDBRANCH   5   6
ENDBRANCH   3   5
BRANCH   1  22
HETATM   22  C   UNL     1      -4.570   1.209 -32.179  1.00  0.00     0.034 A 
HETATM   23  C   UNL     1      -5.597   0.497 -32.813  1.00  0.00     0.054 A 
HETATM   24  C   UNL     1      -5.421  -0.852 -33.159  1.00  0.00     0.080 A 
HETATM   25  C   UNL     1      -4.193  -1.494 -32.882  1.00  0.00     0.010 A 
HETATM   26  C   UNL     1      -3.184  -0.772 -32.219  1.00  0.00     0.016 A 
HETATM   27  C   UNL     1      -3.372   0.564 -31.865  1.00  0.00     0.018 A 
BRANCH  24  28
HETATM   28  O   UNL     1      -6.381  -1.585 -33.812  1.00  0.00    -0.355 OA
HETATM   29  C   UNL     1      -7.216  -0.899 -34.737  1.00  0.00     0.210 C 
ENDBRANCH  24  28
BRANCH  25  30
HETATM   30  C   UNL     1      -3.948  -2.890 -33.234  1.00  0.00     0.013 A 
HETATM   31  C   UNL     1      -3.302  -3.933 -32.530  1.00  0.00     0.152 A 
HETATM   32  N   UNL     1      -3.278  -5.084 -33.210  1.00  0.00    -0.187 NA
HETATM   33  N   UNL     1      -3.926  -4.787 -34.347  1.00  0.00    -0.289 N 
HETATM   34  H   UNL     1      -4.046  -5.522 -35.036  1.00  0.00     0.188 HD
HETATM   35  C   UNL     1      -4.342  -3.490 -34.413  1.00  0.00     0.123 A 
ENDBRANCH  25  30
ENDBRANCH   1  22
TORSDOF 9
ENDMDL
MODEL 5
REMARK VINA RESULT:      -7.8     16.921     18.306
REMARK  9 active torsions:
REMARK  status: ('A' for Active; 'I' for Inactive)
REMARK    1  A    between atoms: O_2  and  C_3 
REMARK    2  A    between atoms: C_5  and  C_15 
REMARK    3  A    between atoms: C_8  and  C_9 
REMARK       I    between atoms: C_15  and  N_17 
REMARK    4  A    between atoms: N_17  and  C_18 
REMARK    5  A    between atoms: C_18  and  C_19 
REMARK    6  A    between atoms: C_23  and  C_25 
REMARK       I    between atoms: C_25  and  N_27 
REMARK    7  A    between atoms: N_27  and  C_28 
REMARK    8  A    between atoms: C_28  and  C_29 
REMARK    9  A    between atoms: C_29  and  O_32 
ROOT
HETATM    1  C   UNL     1      -3.414 -12.130 -38.974  1.00  0.00     0.252 C 
HETATM    2  O   UNL     1      -3.006 -11.037 -38.596  1.00  0.00    -0.268 OA
HETATM    3  N   UNL     1      -2.587 -13.210 -39.193  1.00  0.00    -0.353 N 
HETATM    4  H   UNL     1      -2.989 -14.135 -39.243  1.00  0.00     0.163 HD
ENDROOT
BRANCH   3   5
HETATM    5  C   UNL     1      -1.173 -13.122 -38.906  1.00  0.00     0.161 C 
BRANCH   5   6
HETATM    6  C   UNL     1      -0.768 -14.180 -37.912  1.00  0.00    -0.040 A 
HETATM    7  C   UNL     1       0.404 -14.927 -38.093  1.00  0.00     0.009 A 
HETATM    8  C   UNL     1       0.776 -15.896 -37.159  1.00  0.00     0.002 A 
HETATM    9  C   UNL     1      -0.022 -16.130 -36.039  1.00  0.00     0.017 A 
HETATM   10  C   UNL     1      -1.205 -15.406 -35.853  1.00  0.00     0.032 A 
HETATM   11  C   UNL     1      -1.569 -14.426 -36.783  1.00  0.00     0.026 A 
BRANCH  10  12
HETATM   12  C   UNL     1      -2.025 -15.698 -34.645  1.00  0.00     0.251 C 
HETATM   13  O   UNL     1      -3.242 -15.547 -34.678  1.00  0.00    -0.268 OA
HETATM   14  N   UNL     1      -1.344 -16.098 -33.516  1.00  0.00    -0.354 N 
HETATM   15  H   UNL     1      -0.334 -16.104 -33.500  1.00  0.00     0.162 HD
BRANCH  14  16
HETATM   16  C   UNL     1      -2.028 -16.373 -32.260  1.00  0.00     0.159 C 
BRANCH  16  17
HETATM   17  C   UNL     1      -1.172 -16.040 -31.017  1.00  0.00     0.066 C 
HETATM   18  C   UNL     1      -1.963 -16.125 -29.709  1.00  0.00     0.047 C 
HETATM   19  C   UNL     1       0.031 -16.983 -30.956  1.00  0.00     0.047 C 
BRANCH  17  20
HETATM   20  O   UNL     1      -0.658 -14.707 -31.152  1.00  0.00    -0.389 OA
HETATM   21  H   UNL     1      -1.309 -14.113 -30.737  1.00  0.00     0.210 HD
ENDBRANCH  17  20
ENDBRANCH  16  17
ENDBRANCH  14  16
ENDBRANCH  10  12
ENDBRANCH   5   6
ENDBRANCH   3   5
BRANCH   1  22
HETATM   22  C   UNL     1      -4.869 -12.353 -39.187  1.00  0.00     0.034 A 
HETATM   23  C   UNL     1      -5.709 -12.815 -38.164  1.00  0.00     0.054 A 
HETATM   24  C   UNL     1      -7.078 -13.015 -38.402  1.00  0.00     0.080 A 
HETATM   25  C   UNL     1      -7.619 -12.732 -39.677  1.00  0.00     0.010 A 
HETATM   26  C   UNL     1      -6.756 -12.296 -40.698  1.00  0.00     0.016 A 
HETATM   27  C   UNL     1      -5.393 -12.113 -40.459  1.00  0.00     0.018 A 
BRANCH  24  28
HETATM   28  O   UNL     1      -7.950 -13.434 -37.427  1.00  0.00    -0.355 OA
HETATM   29  C   UNL     1      -7.446 -13.550 -36.102  1.00  0.00     0.210 C 
ENDBRANCH  24  28
BRANCH  25  30
HETATM   30  C   UNL     1      -9.037 -12.906 -39.976  1.00  0.00     0.013 A 
HETATM   31  C   UNL     1      -9.829 -14.070 -40.111  1.00  0.00     0.152 A 
HETATM   32  N   UNL     1     -11.106 -13.801 -40.400  1.00  0.00    -0.187 NA
HETATM   33  N   UNL     1     -11.142 -12.460 -40.436  1.00  0.00    -0.289 N 
HETATM   34  H   UNL     1     -12.028 -12.009 -40.634  1.00  0.00     0.188 HD
HETATM   35  C   UNL     1      -9.932 -11.877 -40.194  1.00  0.00     0.123 A 
ENDBRANCH  25  30
ENDBRANCH   1  22
TORSDOF 9
ENDMDL
MODEL 6
REMARK VINA RESULT:      -7.8      3.022     10.664
REMARK  9 active torsions:
REMARK  status: ('A' for Active; 'I' for Inactive)
REMARK    1  A    between atoms: O_2  and  C_3 
REMARK    2  A    between atoms: C_5  and  C_15 
REMARK    3  A    between atoms: C_8  and  C_9 
REMARK       I    between atoms: C_15  and  N_17 
REMARK    4  A    between atoms: N_17  and  C_18 
REMARK    5  A    between atoms: C_18  and  C_19 
REMARK    6  A    between atoms: C_23  and  C_25 
REMARK       I    between atoms: C_25  and  N_27 
REMARK    7  A    between atoms: N_27  and  C_28 
REMARK    8  A    between atoms: C_28  and  C_29 
REMARK    9  A    between atoms: C_29  and  O_32 
ROOT
HETATM    1  C   UNL     1      -1.941   5.033 -32.257  1.00  0.00     0.252 C 
HETATM    2  O   UNL     1      -1.446   5.087 -33.378  1.00  0.00    -0.268 OA
HETATM    3  N   UNL     1      -3.107   4.355 -31.978  1.00  0.00    -0.353 N 
HETATM    4  H   UNL     1      -3.323   4.123 -31.018  1.00  0.00     0.163 HD
ENDROOT
BRANCH   3   5
HETATM    5  C   UNL     1      -3.777   3.592 -33.006  1.00  0.00     0.161 C 
BRANCH   5   6
HETATM    6  C   UNL     1      -4.335   2.313 -32.437  1.00  0.00    -0.040 A 
HETATM    7  C   UNL     1      -3.647   1.608 -31.440  1.00  0.00     0.009 A 
HETATM    8  C   UNL     1      -4.180   0.431 -30.911  1.00  0.00     0.002 A 
HETATM    9  C   UNL     1      -5.402  -0.055 -31.377  1.00  0.00     0.017 A 
HETATM   10  C   UNL     1      -6.093   0.627 -32.385  1.00  0.00     0.032 A 
HETATM   11  C   UNL     1      -5.564   1.815 -32.904  1.00  0.00     0.026 A 
BRANCH  10  12
HETATM   12  C   UNL     1      -7.390   0.066 -32.852  1.00  0.00     0.251 C 
HETATM   13  O   UNL     1      -7.416  -0.716 -33.796  1.00  0.00    -0.268 OA
HETATM   14  N   UNL     1      -8.523   0.498 -32.198  1.00  0.00    -0.354 N 
HETATM   15  H   UNL     1      -8.468   1.225 -31.499  1.00  0.00     0.162 HD
BRANCH  14  16
HETATM   16  C   UNL     1      -9.854   0.054 -32.589  1.00  0.00     0.159 C 
BRANCH  16  17
HETATM   17  C   UNL     1     -10.581   1.056 -33.515  1.00  0.00     0.066 C 
HETATM   18  C   UNL     1     -12.067   0.732 -33.694  1.00  0.00     0.047 C 
HETATM   19  C   UNL     1     -10.424   2.474 -32.961  1.00  0.00     0.047 C 
BRANCH  17  20
HETATM   20  O   UNL     1      -9.952   1.034 -34.805  1.00  0.00    -0.389 OA
HETATM   21  H   UNL     1     -10.352   1.755 -35.323  1.00  0.00     0.210 HD
ENDBRANCH  17  20
ENDBRANCH  16  17
ENDBRANCH  14  16
ENDBRANCH  10  12
ENDBRANCH   5   6
ENDBRANCH   3   5
BRANCH   1  22
HETATM   22  C   UNL     1      -1.263   5.692 -31.108  1.00  0.00     0.034 A 
HETATM   23  C   UNL     1      -1.962   6.489 -30.190  1.00  0.00     0.054 A 
HETATM   24  C   UNL     1      -1.290   7.096 -29.118  1.00  0.00     0.080 A 
HETATM   25  C   UNL     1       0.098   6.890 -28.950  1.00  0.00     0.010 A 
HETATM   26  C   UNL     1       0.787   6.112 -29.897  1.00  0.00     0.016 A 
HETATM   27  C   UNL     1       0.115   5.523 -30.969  1.00  0.00     0.018 A 
BRANCH  24  28
HETATM   28  O   UNL     1      -1.933   7.858 -28.172  1.00  0.00    -0.355 OA
HETATM   29  C   UNL     1      -3.335   7.673 -28.022  1.00  0.00     0.210 C 
ENDBRANCH  24  28
BRANCH  25  30
HETATM   30  C   UNL     1       0.844   7.484 -27.845  1.00  0.00     0.013 A 
HETATM   31  C   UNL     1       1.581   8.688 -27.753  1.00  0.00     0.152 A 
HETATM   32  N   UNL     1       2.132   8.871 -26.549  1.00  0.00    -0.187 NA
HETATM   33  N   UNL     1       1.737   7.791 -25.858  1.00  0.00    -0.289 N 
HETATM   34  H   UNL     1       2.030   7.707 -24.891  1.00  0.00     0.188 HD
HETATM   35  C   UNL     1       0.970   6.930 -26.587  1.00  0.00     0.123 A 
ENDBRANCH  25  30
ENDBRANCH   1  22
TORSDOF 9
ENDMDL
MODEL 7
REMARK VINA RESULT:      -7.8      4.629      8.025
REMARK  9 active torsions:
REMARK  status: ('A' for Active; 'I' for Inactive)
REMARK    1  A    between atoms: O_2  and  C_3 
REMARK    2  A    between atoms: C_5  and  C_15 
REMARK    3  A    between atoms: C_8  and  C_9 
REMARK       I    between atoms: C_15  and  N_17 
REMARK    4  A    between atoms: N_17  and  C_18 
REMARK    5  A    between atoms: C_18  and  C_19 
REMARK    6  A    between atoms: C_23  and  C_25 
REMARK       I    between atoms: C_25  and  N_27 
REMARK    7  A    between atoms: N_27  and  C_28 
REMARK    8  A    between atoms: C_28  and  C_29 
REMARK    9  A    between atoms: C_29  and  O_32 
ROOT
HETATM    1  C   UNL     1      -6.806   2.704 -33.027  1.00  0.00     0.252 C 
HETATM    2  O   UNL     1      -7.009   3.038 -31.865  1.00  0.00    -0.268 OA
HETATM    3  N   UNL     1      -6.786   3.596 -34.077  1.00  0.00    -0.353 N 
HETATM    4  H   UNL     1      -6.362   3.317 -34.951  1.00  0.00     0.163 HD
ENDROOT
BRANCH   3   5
HETATM    5  C   UNL     1      -6.931   5.013 -33.839  1.00  0.00     0.161 C 
BRANCH   5   6
HETATM    6  C   UNL     1      -8.375   5.362 -33.584  1.00  0.00    -0.040 A 
HETATM    7  C   UNL     1      -8.720   6.420 -32.732  1.00  0.00     0.009 A 
HETATM    8  C   UNL     1     -10.060   6.743 -32.513  1.00  0.00     0.002 A 
HETATM    9  C   UNL     1     -11.068   6.008 -33.138  1.00  0.00     0.017 A 
HETATM   10  C   UNL     1     -10.741   4.937 -33.978  1.00  0.00     0.032 A 
HETATM   11  C   UNL     1      -9.396   4.624 -34.207  1.00  0.00     0.026 A 
BRANCH  10  12
HETATM   12  C   UNL     1     -11.852   4.180 -34.617  1.00  0.00     0.251 C 
HETATM   13  O   UNL     1     -12.706   4.775 -35.266  1.00  0.00    -0.268 OA
HETATM   14  N   UNL     1     -11.876   2.819 -34.406  1.00  0.00    -0.354 N 
HETATM   15  H   UNL     1     -11.216   2.384 -33.776  1.00  0.00     0.162 HD
BRANCH  14  16
HETATM   16  C   UNL     1     -12.934   1.975 -34.944  1.00  0.00     0.159 C 
BRANCH  16  17
HETATM   17  C   UNL     1     -13.609   1.090 -33.871  1.00  0.00     0.066 C 
HETATM   18  C   UNL     1     -15.033   0.677 -34.249  1.00  0.00     0.047 C 
HETATM   19  C   UNL     1     -12.757  -0.157 -33.623  1.00  0.00     0.047 C 
BRANCH  17  20
HETATM   20  O   UNL     1     -13.660   1.819 -32.635  1.00  0.00    -0.389 OA
HETATM   21  H   UNL     1     -14.224   2.597 -32.793  1.00  0.00     0.210 HD
ENDBRANCH  17  20
ENDBRANCH  16  17
ENDBRANCH  14  16
ENDBRANCH  10  12
ENDBRANCH   5   6
ENDBRANCH   3   5
BRANCH   1  22
HETATM   22  C   UNL     1      -6.532   1.279 -33.359  1.00  0.00     0.034 A 
HETATM   23  C   UNL     1      -5.704   0.476 -32.563  1.00  0.00     0.054 A 
HETATM   24  C   UNL     1      -5.467  -0.864 -32.907  1.00  0.00     0.080 A 
HETATM   25  C   UNL     1      -6.082  -1.415 -34.055  1.00  0.00     0.010 A 
HETATM   26  C   UNL     1      -6.887  -0.585 -34.856  1.00  0.00     0.016 A 
HETATM   27  C   UNL     1      -7.106   0.750 -34.516  1.00  0.00     0.018 A 
BRANCH  24  28
HETATM   28  O   UNL     1      -4.692  -1.703 -32.145  1.00  0.00    -0.355 OA
HETATM   29  C   UNL     1      -3.360  -1.291 -31.864  1.00  0.00     0.210 C 
ENDBRANCH  24  28
BRANCH  25  30
HETATM   30  C   UNL     1      -5.885  -2.805 -34.451  1.00  0.00     0.013 A 
HETATM   31  C   UNL     1      -6.807  -3.822 -34.792  1.00  0.00     0.152 A 
HETATM   32  N   UNL     1      -6.217  -4.982 -35.095  1.00  0.00    -0.187 NA
HETATM   33  N   UNL     1      -4.910  -4.710 -34.964  1.00  0.00    -0.289 N 
HETATM   34  H   UNL     1      -4.244  -5.451 -35.155  1.00  0.00     0.188 HD
HETATM   35  C   UNL     1      -4.658  -3.426 -34.578  1.00  0.00     0.123 A 
ENDBRANCH  25  30
ENDBRANCH   1  22
TORSDOF 9
ENDMDL
MODEL 8
REMARK VINA RESULT:      -7.7      4.288      5.589
REMARK  9 active torsions:
REMARK  status: ('A' for Active; 'I' for Inactive)
REMARK    1  A    between atoms: O_2  and  C_3 
REMARK    2  A    between atoms: C_5  and  C_15 
REMARK    3  A    between atoms: C_8  and  C_9 
REMARK       I    between atoms: C_15  and  N_17 
REMARK    4  A    between atoms: N_17  and  C_18 
REMARK    5  A    between atoms: C_18  and  C_19 
REMARK    6  A    between atoms: C_23  and  C_25 
REMARK       I    between atoms: C_25  and  N_27 
REMARK    7  A    between atoms: N_27  and  C_28 
REMARK    8  A    between atoms: C_28  and  C_29 
REMARK    9  A    between atoms: C_29  and  O_32 
ROOT
HETATM    1  C   UNL     1      -7.379   1.000 -33.841  1.00  0.00     0.252 C 
HETATM    2  O   UNL     1      -6.828   0.527 -34.828  1.00  0.00    -0.268 OA
HETATM    3  N   UNL     1      -6.692   1.446 -32.733  1.00  0.00    -0.353 N 
HETATM    4  H   UNL     1      -7.160   2.055 -32.076  1.00  0.00     0.163 HD
ENDROOT
BRANCH   3   5
HETATM    5  C   UNL     1      -5.248   1.448 -32.717  1.00  0.00     0.161 C 
BRANCH   5   6
HETATM    6  C   UNL     1      -4.718   2.839 -32.952  1.00  0.00    -0.040 A 
HETATM    7  C   UNL     1      -5.465   3.782 -33.672  1.00  0.00     0.009 A 
HETATM    8  C   UNL     1      -4.970   5.072 -33.873  1.00  0.00     0.002 A 
HETATM    9  C   UNL     1      -3.722   5.429 -33.363  1.00  0.00     0.017 A 
HETATM   10  C   UNL     1      -2.954   4.494 -32.658  1.00  0.00     0.032 A 
HETATM   11  C   UNL     1      -3.459   3.206 -32.445  1.00  0.00     0.026 A 
BRANCH  10  12
HETATM   12  C   UNL     1      -1.627   4.923 -32.138  1.00  0.00     0.251 C 
HETATM   13  O   UNL     1      -0.775   5.353 -32.909  1.00  0.00    -0.268 OA
HETATM   14  N   UNL     1      -1.414   4.773 -30.785  1.00  0.00    -0.354 N 
HETATM   15  H   UNL     1      -2.101   4.313 -30.204  1.00  0.00     0.162 HD
BRANCH  14  16
HETATM   16  C   UNL     1      -0.143   5.116 -30.163  1.00  0.00     0.159 C 
BRANCH  16  17
HETATM   17  C   UNL     1      -0.206   6.418 -29.331  1.00  0.00     0.066 C 
HETATM   18  C   UNL     1      -1.632   6.945 -29.155  1.00  0.00     0.047 C 
HETATM   19  C   UNL     1       0.431   6.181 -27.960  1.00  0.00     0.047 C 
BRANCH  17  20
HETATM   20  O   UNL     1       0.574   7.427 -29.990  1.00  0.00    -0.389 OA
HETATM   21  H   UNL     1       0.462   8.246 -29.475  1.00  0.00     0.210 HD
ENDBRANCH  17  20
ENDBRANCH  16  17
ENDBRANCH  14  16
ENDBRANCH  10  12
ENDBRANCH   5   6
ENDBRANCH   3   5
BRANCH   1  22
HETATM   22  C   UNL     1      -8.860   1.145 -33.808  1.00  0.00     0.034 A 
HETATM   23  C   UNL     1      -9.513   2.241 -34.390  1.00  0.00     0.054 A 
HETATM   24  C   UNL     1     -10.911   2.345 -34.339  1.00  0.00     0.080 A 
HETATM   25  C   UNL     1     -11.670   1.330 -33.713  1.00  0.00     0.010 A 
HETATM   26  C   UNL     1     -10.996   0.254 -33.110  1.00  0.00     0.016 A 
HETATM   27  C   UNL     1      -9.604   0.163 -33.152  1.00  0.00     0.018 A 
BRANCH  24  28
HETATM   28  O   UNL     1     -11.602   3.380 -34.922  1.00  0.00    -0.355 OA
HETATM   29  C   UNL     1     -10.962   4.649 -34.976  1.00  0.00     0.210 C 
ENDBRANCH  24  28
BRANCH  25  30
HETATM   30  C   UNL     1     -13.128   1.380 -33.645  1.00  0.00     0.013 A 
HETATM   31  C   UNL     1     -14.002   2.079 -32.781  1.00  0.00     0.152 A 
HETATM   32  N   UNL     1     -15.292   1.849 -33.045  1.00  0.00    -0.187 NA
HETATM   33  N   UNL     1     -15.250   1.012 -34.092  1.00  0.00    -0.289 N 
HETATM   34  H   UNL     1     -16.129   0.695 -34.488  1.00  0.00     0.188 HD
HETATM   35  C   UNL     1     -13.983   0.697 -34.487  1.00  0.00     0.123 A 
ENDBRANCH  25  30
ENDBRANCH   1  22
TORSDOF 9
ENDMDL
MODEL 9
REMARK VINA RESULT:      -7.6      4.973      8.186
REMARK  9 active torsions:
REMARK  status: ('A' for Active; 'I' for Inactive)
REMARK    1  A    between atoms: O_2  and  C_3 
REMARK    2  A    between atoms: C_5  and  C_15 
REMARK    3  A    between atoms: C_8  and  C_9 
REMARK       I    between atoms: C_15  and  N_17 
REMARK    4  A    between atoms: N_17  and  C_18 
REMARK    5  A    between atoms: C_18  and  C_19 
REMARK    6  A    between atoms: C_23  and  C_25 
REMARK       I    between atoms: C_25  and  N_27 
REMARK    7  A    between atoms: N_27  and  C_28 
REMARK    8  A    between atoms: C_28  and  C_29 
REMARK    9  A    between atoms: C_29  and  O_32 
ROOT
HETATM    1  C   UNL     1      -7.456   1.880 -34.247  1.00  0.00     0.252 C 
HETATM    2  O   UNL     1      -8.586   1.953 -34.715  1.00  0.00    -0.268 OA
HETATM    3  N   UNL     1      -6.783   2.963 -33.725  1.00  0.00    -0.353 N 
HETATM    4  H   UNL     1      -5.985   2.804 -33.126  1.00  0.00     0.163 HD
ENDROOT
BRANCH   3   5
HETATM    5  C   UNL     1      -7.427   4.253 -33.634  1.00  0.00     0.161 C 
BRANCH   5   6
HETATM    6  C   UNL     1      -8.392   4.283 -32.477  1.00  0.00    -0.040 A 
HETATM    7  C   UNL     1      -7.963   4.639 -31.191  1.00  0.00     0.009 A 
HETATM    8  C   UNL     1      -8.868   4.675 -30.128  1.00  0.00     0.002 A 
HETATM    9  C   UNL     1     -10.208   4.351 -30.341  1.00  0.00     0.017 A 
HETATM   10  C   UNL     1     -10.650   3.976 -31.615  1.00  0.00     0.032 A 
HETATM   11  C   UNL     1      -9.743   3.954 -32.681  1.00  0.00     0.026 A 
BRANCH  10  12
HETATM   12  C   UNL     1     -12.088   3.634 -31.788  1.00  0.00     0.251 C 
HETATM   13  O   UNL     1     -12.929   4.117 -31.037  1.00  0.00    -0.268 OA
HETATM   14  N   UNL     1     -12.395   2.741 -32.791  1.00  0.00    -0.354 N 
HETATM   15  H   UNL     1     -11.662   2.283 -33.315  1.00  0.00     0.162 HD
BRANCH  14  16
HETATM   16  C   UNL     1     -13.760   2.295 -33.034  1.00  0.00     0.159 C 
BRANCH  16  17
HETATM   17  C   UNL     1     -13.849   1.137 -34.055  1.00  0.00     0.066 C 
HETATM   18  C   UNL     1     -13.045  -0.094 -33.631  1.00  0.00     0.047 C 
HETATM   19  C   UNL     1     -15.314   0.750 -34.266  1.00  0.00     0.047 C 
BRANCH  17  20
HETATM   20  O   UNL     1     -13.347   1.595 -35.320  1.00  0.00    -0.389 OA
HETATM   21  H   UNL     1     -14.065   1.473 -35.965  1.00  0.00     0.210 HD
ENDBRANCH  17  20
ENDBRANCH  16  17
ENDBRANCH  14  16
ENDBRANCH  10  12
ENDBRANCH   5   6
ENDBRANCH   3   5
BRANCH   1  22
HETATM   22  C   UNL     1      -6.752   0.570 -34.191  1.00  0.00     0.034 A 
HETATM   23  C   UNL     1      -5.610   0.372 -33.402  1.00  0.00     0.054 A 
HETATM   24  C   UNL     1      -4.971  -0.877 -33.374  1.00  0.00     0.080 A 
HETATM   25  C   UNL     1      -5.492  -1.950 -34.133  1.00  0.00     0.010 A 
HETATM   26  C   UNL     1      -6.621  -1.725 -34.941  1.00  0.00     0.016 A 
HETATM   27  C   UNL     1      -7.242  -0.476 -34.975  1.00  0.00     0.018 A 
BRANCH  24  28
HETATM   28  O   UNL     1      -3.871  -1.133 -32.593  1.00  0.00    -0.355 OA
HETATM   29  C   UNL     1      -3.737  -0.395 -31.385  1.00  0.00     0.210 C 
ENDBRANCH  24  28
BRANCH  25  30
HETATM   30  C   UNL     1      -4.878  -3.274 -34.130  1.00  0.00     0.013 A 
HETATM   31  C   UNL     1      -3.602  -3.714 -33.705  1.00  0.00     0.152 A 
HETATM   32  N   UNL     1      -3.419  -5.027 -33.878  1.00  0.00    -0.187 NA
HETATM   33  N   UNL     1      -4.584  -5.438 -34.400  1.00  0.00    -0.289 N 
HETATM   34  H   UNL     1      -4.692  -6.423 -34.614  1.00  0.00     0.188 HD
HETATM   35  C   UNL     1      -5.487  -4.431 -34.575  1.00  0.00     0.123 A 
ENDBRANCH  25  30
ENDBRANCH   1  22
TORSDOF 9
ENDMDL
MODEL 10
REMARK VINA RESULT:      -7.6      3.422      4.856
REMARK  9 active torsions:
REMARK  status: ('A' for Active; 'I' for Inactive)
REMARK    1  A    between atoms: O_2  and  C_3 
REMARK    2  A    between atoms: C_5  and  C_15 
REMARK    3  A    between atoms: C_8  and  C_9 
REMARK       I    between atoms: C_15  and  N_17 
REMARK    4  A    between atoms: N_17  and  C_18 
REMARK    5  A    between atoms: C_18  and  C_19 
REMARK    6  A    between atoms: C_23  and  C_25 
REMARK       I    between atoms: C_25  and  N_27 
REMARK    7  A    between atoms: N_27  and  C_28 
REMARK    8  A    between atoms: C_28  and  C_29 
REMARK    9  A    between atoms: C_29  and  O_32 
ROOT
HETATM    1  C   UNL     1      -6.070   1.588 -32.136  1.00  0.00     0.252 C 
HETATM    2  O   UNL     1      -5.750   0.556 -31.557  1.00  0.00    -0.268 OA
HETATM    3  N   UNL     1      -5.189   2.617 -32.387  1.00  0.00    -0.353 N 
HETATM    4  H   UNL     1      -5.428   3.311 -33.083  1.00  0.00     0.163 HD
ENDROOT
BRANCH   3   5
HETATM    5  C   UNL     1      -3.793   2.490 -32.039  1.00  0.00     0.161 C 
BRANCH   5   6
HETATM    6  C   UNL     1      -3.029   3.721 -32.454  1.00  0.00    -0.040 A 
HETATM    7  C   UNL     1      -3.201   4.278 -33.729  1.00  0.00     0.009 A 
HETATM    8  C   UNL     1      -2.498   5.426 -34.099  1.00  0.00     0.002 A 
HETATM    9  C   UNL     1      -1.613   6.024 -33.201  1.00  0.00     0.017 A 
HETATM   10  C   UNL     1      -1.416   5.470 -31.931  1.00  0.00     0.032 A 
HETATM   11  C   UNL     1      -2.133   4.327 -31.557  1.00  0.00     0.026 A 
BRANCH  10  12
HETATM   12  C   UNL     1      -0.458   6.142 -31.012  1.00  0.00     0.251 C 
HETATM   13  O   UNL     1       0.748   5.949 -31.133  1.00  0.00    -0.268 OA
HETATM   14  N   UNL     1      -0.999   6.938 -30.026  1.00  0.00    -0.354 N 
HETATM   15  H   UNL     1      -2.000   6.983 -29.893  1.00  0.00     0.162 HD
BRANCH  14  16
HETATM   16  C   UNL     1      -0.169   7.615 -29.040  1.00  0.00     0.159 C 
BRANCH  16  17
HETATM   17  C   UNL     1      -0.028   6.825 -27.719  1.00  0.00     0.066 C 
HETATM   18  C   UNL     1       1.162   7.285 -26.872  1.00  0.00     0.047 C 
HETATM   19  C   UNL     1      -1.319   6.949 -26.907  1.00  0.00     0.047 C 
BRANCH  17  20
HETATM   20  O   UNL     1       0.145   5.433 -28.027  1.00  0.00    -0.389 OA
HETATM   21  H   UNL     1       0.084   5.353 -28.996  1.00  0.00     0.210 HD
ENDBRANCH  17  20
ENDBRANCH  16  17
ENDBRANCH  14  16
ENDBRANCH  10  12
ENDBRANCH   5   6
ENDBRANCH   3   5
BRANCH   1  22
HETATM   22  C   UNL     1      -7.460   1.765 -32.636  1.00  0.00     0.034 A 
HETATM   23  C   UNL     1      -7.843   2.886 -33.386  1.00  0.00     0.054 A 
HETATM   24  C   UNL     1      -9.164   3.021 -33.841  1.00  0.00     0.080 A 
HETATM   25  C   UNL     1     -10.112   2.012 -33.557  1.00  0.00     0.010 A 
HETATM   26  C   UNL     1      -9.716   0.909 -32.779  1.00  0.00     0.016 A 
HETATM   27  C   UNL     1      -8.405   0.789 -32.318  1.00  0.00     0.018 A 
BRANCH  24  28
HETATM   28  O   UNL     1      -9.583   4.081 -34.607  1.00  0.00    -0.355 OA
HETATM   29  C   UNL     1      -9.580   5.369 -34.003  1.00  0.00     0.210 C 
ENDBRANCH  24  28
BRANCH  25  30
HETATM   30  C   UNL     1     -11.495   2.092 -34.018  1.00  0.00     0.013 A 
HETATM   31  C   UNL     1     -12.143   1.523 -35.139  1.00  0.00     0.152 A 
HETATM   32  N   UNL     1     -13.437   1.847 -35.214  1.00  0.00    -0.187 NA
HETATM   33  N   UNL     1     -13.629   2.613 -34.129  1.00  0.00    -0.289 N 
HETATM   34  H   UNL     1     -14.560   2.980 -33.960  1.00  0.00     0.188 HD
HETATM   35  C   UNL     1     -12.501   2.794 -33.384  1.00  0.00     0.123 A 
ENDBRANCH  25  30
ENDBRANCH   1  22
TORSDOF 9
ENDMDL
