MODEL 1
REMARK VINA RESULT:      -9.1      0.000      0.000
REMARK  7 active torsions:
REMARK  status: ('A' for Active; 'I' for Inactive)
REMARK    1  A    between atoms: N_2  and  C_4 
REMARK       I    between atoms: N_7  and  C_8 
REMARK    2  A    between atoms: C_8  and  C_9 
REMARK    3  A    between atoms: N_12  and  C_13 
REMARK    4  A    between atoms: C_20  and  C_21 
REMARK    5  A    between atoms: C_21  and  N_22 
REMARK    6  A    between atoms: N_22  and  C_25 
REMARK    7  A    between atoms: C_25  and  C_26 
ROOT
HETATM    1  C   UNL     1      -4.920   2.863 -32.591  1.00  0.00     0.719 A 
HETATM    2  N   UNL     1      -5.404   1.974 -31.637  1.00  0.00    -0.154 N 
HETATM    3  C   UNL     1      -6.346   1.185 -32.305  1.00  0.00     0.083 A 
HETATM    4  C   UNL     1      -6.969   0.121 -31.591  1.00  0.00     0.033 A 
HETATM    5  C   UNL     1      -6.685  -0.054 -30.287  1.00  0.00     0.004 A 
HETATM    6  C   UNL     1      -5.773   0.830 -29.588  1.00  0.00     0.018 A 
HETATM    7  C   UNL     1      -5.160   1.813 -30.269  1.00  0.00     0.115 A 
HETATM    8  C   UNL     1      -6.466   1.714 -33.570  1.00  0.00     0.107 A 
HETATM    9  N   UNL     1      -5.583   2.761 -33.738  1.00  0.00    -0.064 NA
ENDROOT
BRANCH   1  10
HETATM   10  N   UNL     1      -3.873   3.779 -32.426  1.00  0.00    -0.147 N 
HETATM   11  C   UNL     1      -3.773   4.996 -33.072  1.00  0.00     0.233 A 
HETATM   12  N   UNL     1      -2.726   5.695 -32.694  1.00  0.00    -0.236 NA
HETATM   13  C   UNL     1      -2.054   4.901 -31.792  1.00  0.00     0.142 A 
HETATM   14  C   UNL     1      -2.735   3.700 -31.663  1.00  0.00     0.153 A 
BRANCH  13  15
HETATM   15  C   UNL     1      -0.840   5.234 -31.025  1.00  0.00     0.273 C 
HETATM   16  N   UNL     1      -0.915   5.950 -29.807  1.00  0.00    -0.347 N 
HETATM   17  C   UNL     1      -1.951   6.946 -29.540  1.00  0.00     0.128 C 
HETATM   18  C   UNL     1       0.363   6.128 -29.120  1.00  0.00     0.128 C 
HETATM   19  C   UNL     1      -2.098   7.253 -28.053  1.00  0.00     0.053 C 
HETATM   20  C   UNL     1      -0.763   7.576 -27.370  1.00  0.00     0.190 C 
HETATM   21  C   UNL     1       0.196   6.413 -27.634  1.00  0.00     0.053 C 
HETATM   22  O   UNL     1       0.255   4.852 -31.446  1.00  0.00    -0.266 OA
BRANCH  20  23
HETATM   23  N   UNL     1      -0.180   8.922 -27.838  1.00  0.00    -0.074 N 
HETATM   24  C   UNL     1       1.089   9.308 -27.099  1.00  0.00     0.269 C 
HETATM   25  H   UNL     1       0.079   8.850 -28.830  1.00  0.00     0.279 HD
HETATM   26  C   UNL     1      -1.168  10.067 -27.735  1.00  0.00     0.269 C 
ENDBRANCH  20  23
ENDBRANCH  13  15
ENDBRANCH   1  10
BRANCH   8  27
HETATM   27  C   UNL     1      -7.377   1.299 -34.674  1.00  0.00     0.294 C 
BRANCH  27  28
HETATM   28  N   UNL     1      -6.898   0.044 -35.318  1.00  0.00    -0.066 N 
HETATM   29  H   UNL     1      -7.075   0.133 -36.328  1.00  0.00     0.277 HD
HETATM   30  H   UNL     1      -5.873   0.022 -35.249  1.00  0.00     0.277 HD
BRANCH  28  31
HETATM   31  C   UNL     1      -7.496  -1.200 -34.774  1.00  0.00     0.272 C 
BRANCH  31  32
HETATM   32  C   UNL     1      -6.483  -2.286 -34.613  1.00  0.00    -0.015 A 
HETATM   33  C   UNL     1      -5.202  -1.999 -34.149  1.00  0.00     0.125 A 
HETATM   34  N   UNL     1      -4.229  -2.919 -34.010  1.00  0.00    -0.273 NA
HETATM   35  C   UNL     1      -4.538  -4.197 -34.313  1.00  0.00     0.116 A 
HETATM   36  C   UNL     1      -5.782  -4.590 -34.776  1.00  0.00     0.020 A 
HETATM   37  C   UNL     1      -6.766  -3.616 -34.937  1.00  0.00     0.012 A 
ENDBRANCH  31  32
ENDBRANCH  28  31
ENDBRANCH  27  28
ENDBRANCH   8  27
TORSDOF 7
ENDMDL
MODEL 2
REMARK VINA RESULT:      -8.9      1.308      1.389
REMARK  7 active torsions:
REMARK  status: ('A' for Active; 'I' for Inactive)
REMARK    1  A    between atoms: N_2  and  C_4 
REMARK       I    between atoms: N_7  and  C_8 
REMARK    2  A    between atoms: C_8  and  C_9 
REMARK    3  A    between atoms: N_12  and  C_13 
REMARK    4  A    between atoms: C_20  and  C_21 
REMARK    5  A    between atoms: C_21  and  N_22 
REMARK    6  A    between atoms: N_22  and  C_25 
REMARK    7  A    between atoms: C_25  and  C_26 
ROOT
HETATM    1  C   UNL     1      -5.386   3.558 -32.729  1.00  0.00     0.719 A 
HETATM    2  N   UNL     1      -6.442   3.537 -31.825  1.00  0.00    -0.154 N 
HETATM    3  C   UNL     1      -7.335   2.579 -32.315  1.00  0.00     0.083 A 
HETATM    4  C   UNL     1      -8.499   2.281 -31.549  1.00  0.00     0.033 A 
HETATM    5  C   UNL     1      -8.737   2.968 -30.416  1.00  0.00     0.004 A 
HETATM    6  C   UNL     1      -7.846   4.020 -29.970  1.00  0.00     0.018 A 
HETATM    7  C   UNL     1      -6.731   4.279 -30.675  1.00  0.00     0.115 A 
HETATM    8  C   UNL     1      -6.837   2.173 -33.533  1.00  0.00     0.107 A 
HETATM    9  N   UNL     1      -5.630   2.791 -33.787  1.00  0.00    -0.064 NA
ENDROOT
BRANCH   1  10
HETATM   10  N   UNL     1      -4.191   4.280 -32.604  1.00  0.00    -0.147 N 
HETATM   11  C   UNL     1      -3.866   5.408 -33.331  1.00  0.00     0.233 A 
HETATM   12  N   UNL     1      -2.713   5.932 -32.979  1.00  0.00    -0.236 NA
HETATM   13  C   UNL     1      -2.205   5.096 -32.009  1.00  0.00     0.142 A 
HETATM   14  C   UNL     1      -3.094   4.051 -31.812  1.00  0.00     0.153 A 
BRANCH  13  15
HETATM   15  C   UNL     1      -0.957   5.259 -31.240  1.00  0.00     0.273 C 
HETATM   16  N   UNL     1      -0.948   5.921 -29.989  1.00  0.00    -0.347 N 
HETATM   17  C   UNL     1      -1.868   7.009 -29.666  1.00  0.00     0.128 C 
HETATM   18  C   UNL     1       0.345   5.925 -29.307  1.00  0.00     0.128 C 
HETATM   19  C   UNL     1      -1.973   7.260 -28.164  1.00  0.00     0.053 C 
HETATM   20  C   UNL     1      -0.608   7.403 -27.481  1.00  0.00     0.190 C 
HETATM   21  C   UNL     1       0.218   6.156 -27.808  1.00  0.00     0.053 C 
HETATM   22  O   UNL     1       0.087   4.780 -31.690  1.00  0.00    -0.266 OA
BRANCH  20  23
HETATM   23  N   UNL     1       0.117   8.698 -27.891  1.00  0.00    -0.074 N 
HETATM   24  C   UNL     1       1.555   8.752 -27.410  1.00  0.00     0.269 C 
HETATM   25  H   UNL     1       0.158   8.751 -28.917  1.00  0.00     0.279 HD
HETATM   26  C   UNL     1      -0.597   9.952 -27.427  1.00  0.00     0.269 C 
ENDBRANCH  20  23
ENDBRANCH  13  15
ENDBRANCH   1  10
BRANCH   8  27
HETATM   27  C   UNL     1      -7.426   1.216 -34.511  1.00  0.00     0.294 C 
BRANCH  27  28
HETATM   28  N   UNL     1      -7.264  -0.190 -34.046  1.00  0.00    -0.066 N 
HETATM   29  H   UNL     1      -7.745  -0.270 -33.139  1.00  0.00     0.277 HD
HETATM   30  H   UNL     1      -7.812  -0.796 -34.669  1.00  0.00     0.277 HD
BRANCH  28  31
HETATM   31  C   UNL     1      -5.858  -0.654 -33.953  1.00  0.00     0.272 C 
BRANCH  31  32
HETATM   32  C   UNL     1      -5.732  -2.119 -34.216  1.00  0.00    -0.015 A 
HETATM   33  C   UNL     1      -4.513  -2.769 -34.050  1.00  0.00     0.125 A 
HETATM   34  N   UNL     1      -4.318  -4.078 -34.299  1.00  0.00    -0.273 NA
HETATM   35  C   UNL     1      -5.387  -4.797 -34.702  1.00  0.00     0.116 A 
HETATM   36  C   UNL     1      -6.644  -4.250 -34.892  1.00  0.00     0.020 A 
HETATM   37  C   UNL     1      -6.816  -2.888 -34.653  1.00  0.00     0.012 A 
ENDBRANCH  31  32
ENDBRANCH  28  31
ENDBRANCH  27  28
ENDBRANCH   8  27
TORSDOF 7
ENDMDL
MODEL 3
REMARK VINA RESULT:      -8.7      1.351      2.071
REMARK  7 active torsions:
REMARK  status: ('A' for Active; 'I' for Inactive)
REMARK    1  A    between atoms: N_2  and  C_4 
REMARK       I    between atoms: N_7  and  C_8 
REMARK    2  A    between atoms: C_8  and  C_9 
REMARK    3  A    between atoms: N_12  and  C_13 
REMARK    4  A    between atoms: C_20  and  C_21 
REMARK    5  A    between atoms: C_21  and  N_22 
REMARK    6  A    between atoms: N_22  and  C_25 
REMARK    7  A    between atoms: C_25  and  C_26 
ROOT
HETATM    1  C   UNL     1      -4.418   3.561 -32.719  1.00  0.00     0.719 A 
HETATM    2  N   UNL     1      -5.614   4.260 -32.836  1.00  0.00    -0.154 N 
HETATM    3  C   UNL     1      -6.614   3.283 -32.899  1.00  0.00     0.083 A 
HETATM    4  C   UNL     1      -7.973   3.706 -32.952  1.00  0.00     0.033 A 
HETATM    5  C   UNL     1      -8.254   5.021 -33.004  1.00  0.00     0.004 A 
HETATM    6  C   UNL     1      -7.202   6.017 -33.029  1.00  0.00     0.018 A 
HETATM    7  C   UNL     1      -5.920   5.621 -32.946  1.00  0.00     0.115 A 
HETATM    8  C   UNL     1      -5.966   2.069 -32.941  1.00  0.00     0.107 A 
HETATM    9  N   UNL     1      -4.602   2.250 -32.837  1.00  0.00    -0.064 NA
ENDROOT
BRANCH   1  10
HETATM   10  N   UNL     1      -3.146   4.109 -32.508  1.00  0.00    -0.147 N 
HETATM   11  C   UNL     1      -2.389   4.750 -33.469  1.00  0.00     0.233 A 
HETATM   12  N   UNL     1      -1.258   5.229 -32.999  1.00  0.00    -0.236 NA
HETATM   13  C   UNL     1      -1.217   4.852 -31.675  1.00  0.00     0.142 A 
HETATM   14  C   UNL     1      -2.358   4.120 -31.384  1.00  0.00     0.153 A 
BRANCH  13  15
HETATM   15  C   UNL     1      -0.185   5.181 -30.674  1.00  0.00     0.273 C 
HETATM   16  N   UNL     1      -0.492   5.963 -29.535  1.00  0.00    -0.347 N 
HETATM   17  C   UNL     1      -1.514   7.007 -29.546  1.00  0.00     0.128 C 
HETATM   18  C   UNL     1       0.611   6.130 -28.590  1.00  0.00     0.128 C 
HETATM   19  C   UNL     1      -1.969   7.397 -28.143  1.00  0.00     0.053 C 
HETATM   20  C   UNL     1      -0.803   7.708 -27.197  1.00  0.00     0.190 C 
HETATM   21  C   UNL     1       0.136   6.499 -27.192  1.00  0.00     0.053 C 
HETATM   22  O   UNL     1       0.956   4.739 -30.826  1.00  0.00    -0.266 OA
BRANCH  20  23
HETATM   23  N   UNL     1      -0.069   9.006 -27.582  1.00  0.00    -0.074 N 
HETATM   24  C   UNL     1       1.124   9.300 -26.692  1.00  0.00     0.269 C 
HETATM   25  H   UNL     1       0.302   8.912 -28.536  1.00  0.00     0.279 HD
HETATM   26  C   UNL     1      -0.976  10.220 -27.594  1.00  0.00     0.269 C 
ENDBRANCH  20  23
ENDBRANCH  13  15
ENDBRANCH   1  10
BRANCH   8  27
HETATM   27  C   UNL     1      -6.547   0.704 -33.076  1.00  0.00     0.294 C 
BRANCH  27  28
HETATM   28  N   UNL     1      -6.048   0.031 -34.308  1.00  0.00    -0.066 N 
HETATM   29  H   UNL     1      -5.970   0.751 -35.039  1.00  0.00     0.277 HD
HETATM   30  H   UNL     1      -5.075  -0.257 -34.141  1.00  0.00     0.277 HD
BRANCH  28  31
HETATM   31  C   UNL     1      -6.872  -1.115 -34.766  1.00  0.00     0.272 C 
BRANCH  31  32
HETATM   32  C   UNL     1      -6.149  -2.415 -34.630  1.00  0.00    -0.015 A 
HETATM   33  C   UNL     1      -4.835  -2.452 -34.170  1.00  0.00     0.125 A 
HETATM   34  N   UNL     1      -4.112  -3.582 -34.053  1.00  0.00    -0.273 NA
HETATM   35  C   UNL     1      -4.721  -4.743 -34.374  1.00  0.00     0.116 A 
HETATM   36  C   UNL     1      -6.023  -4.817 -34.836  1.00  0.00     0.020 A 
HETATM   37  C   UNL     1      -6.745  -3.632 -34.974  1.00  0.00     0.012 A 
ENDBRANCH  31  32
ENDBRANCH  28  31
ENDBRANCH  27  28
ENDBRANCH   8  27
TORSDOF 7
ENDMDL
MODEL 4
REMARK VINA RESULT:      -8.7      4.755      9.480
REMARK  7 active torsions:
REMARK  status: ('A' for Active; 'I' for Inactive)
REMARK    1  A    between atoms: N_2  and  C_4 
REMARK       I    between atoms: N_7  and  C_8 
REMARK    2  A    between atoms: C_8  and  C_9 
REMARK    3  A    between atoms: N_12  and  C_13 
REMARK    4  A    between atoms: C_20  and  C_21 
REMARK    5  A    between atoms: C_21  and  N_22 
REMARK    6  A    between atoms: N_22  and  C_25 
REMARK    7  A    between atoms: C_25  and  C_26 
ROOT
HETATM    1  C   UNL     1      -7.228   0.226 -33.363  1.00  0.00     0.719 A 
HETATM    2  N   UNL     1      -6.530  -0.890 -33.811  1.00  0.00    -0.154 N 
HETATM    3  C   UNL     1      -5.236  -0.754 -33.297  1.00  0.00     0.083 A 
HETATM    4  C   UNL     1      -4.298  -1.800 -33.535  1.00  0.00     0.033 A 
HETATM    5  C   UNL     1      -4.659  -2.851 -34.293  1.00  0.00     0.004 A 
HETATM    6  C   UNL     1      -5.977  -2.932 -34.892  1.00  0.00     0.018 A 
HETATM    7  C   UNL     1      -6.873  -1.962 -34.641  1.00  0.00     0.115 A 
HETATM    8  C   UNL     1      -5.191   0.477 -32.683  1.00  0.00     0.107 A 
HETATM    9  N   UNL     1      -6.430   1.084 -32.735  1.00  0.00    -0.064 NA
ENDROOT
BRANCH   1  10
HETATM   10  N   UNL     1      -8.596   0.478 -33.525  1.00  0.00    -0.147 N 
HETATM   11  C   UNL     1      -9.603  -0.095 -32.774  1.00  0.00     0.233 A 
HETATM   12  N   UNL     1     -10.798   0.356 -33.084  1.00  0.00    -0.236 NA
HETATM   13  C   UNL     1     -10.604   1.234 -34.127  1.00  0.00     0.142 A 
HETATM   14  C   UNL     1      -9.252   1.273 -34.432  1.00  0.00     0.153 A 
BRANCH  13  15
HETATM   15  C   UNL     1     -11.616   2.058 -34.814  1.00  0.00     0.273 C 
HETATM   16  N   UNL     1     -11.740   3.442 -34.544  1.00  0.00    -0.347 N 
HETATM   17  C   UNL     1     -11.443   4.020 -33.235  1.00  0.00     0.128 C 
HETATM   18  C   UNL     1     -12.727   4.141 -35.365  1.00  0.00     0.128 C 
HETATM   19  C   UNL     1     -11.223   5.529 -33.298  1.00  0.00     0.053 C 
HETATM   20  C   UNL     1     -12.340   6.270 -34.043  1.00  0.00     0.190 C 
HETATM   21  C   UNL     1     -12.478   5.642 -35.432  1.00  0.00     0.053 C 
HETATM   22  O   UNL     1     -12.343   1.530 -35.658  1.00  0.00    -0.266 OA
BRANCH  20  23
HETATM   23  N   UNL     1     -13.670   6.252 -33.267  1.00  0.00    -0.074 N 
HETATM   24  C   UNL     1     -14.792   6.970 -33.995  1.00  0.00     0.269 C 
HETATM   25  H   UNL     1     -13.980   5.279 -33.153  1.00  0.00     0.279 HD
HETATM   26  C   UNL     1     -13.551   6.829 -31.870  1.00  0.00     0.269 C 
ENDBRANCH  20  23
ENDBRANCH  13  15
ENDBRANCH   1  10
BRANCH   8  27
HETATM   27  C   UNL     1      -4.037   1.154 -32.029  1.00  0.00     0.294 C 
BRANCH  27  28
HETATM   28  N   UNL     1      -4.471   2.396 -31.331  1.00  0.00    -0.066 N 
HETATM   29  H   UNL     1      -5.398   2.647 -31.702  1.00  0.00     0.277 HD
HETATM   30  H   UNL     1      -4.656   2.159 -30.348  1.00  0.00     0.277 HD
BRANCH  28  31
HETATM   31  C   UNL     1      -3.522   3.531 -31.436  1.00  0.00     0.272 C 
BRANCH  31  32
HETATM   32  C   UNL     1      -3.542   4.153 -32.794  1.00  0.00    -0.015 A 
HETATM   33  C   UNL     1      -4.748   4.410 -33.440  1.00  0.00     0.125 A 
HETATM   34  N   UNL     1      -4.841   4.939 -34.675  1.00  0.00    -0.273 NA
HETATM   35  C   UNL     1      -3.689   5.262 -35.299  1.00  0.00     0.116 A 
HETATM   36  C   UNL     1      -2.439   5.053 -34.744  1.00  0.00     0.020 A 
HETATM   37  C   UNL     1      -2.365   4.481 -33.475  1.00  0.00     0.012 A 
ENDBRANCH  31  32
ENDBRANCH  28  31
ENDBRANCH  27  28
ENDBRANCH   8  27
TORSDOF 7
ENDMDL
MODEL 5
REMARK VINA RESULT:      -8.6      2.342      3.807
REMARK  7 active torsions:
REMARK  status: ('A' for Active; 'I' for Inactive)
REMARK    1  A    between atoms: N_2  and  C_4 
REMARK       I    between atoms: N_7  and  C_8 
REMARK    2  A    between atoms: C_8  and  C_9 
REMARK    3  A    between atoms: N_12  and  C_13 
REMARK    4  A    between atoms: C_20  and  C_21 
REMARK    5  A    between atoms: C_21  and  N_22 
REMARK    6  A    between atoms: N_22  and  C_25 
REMARK    7  A    between atoms: C_25  and  C_26 
ROOT
HETATM    1  C   UNL     1      -7.188   3.024 -33.720  1.00  0.00     0.719 A 
HETATM    2  N   UNL     1      -8.571   2.959 -33.588  1.00  0.00    -0.154 N 
HETATM    3  C   UNL     1      -8.934   1.694 -34.065  1.00  0.00     0.083 A 
HETATM    4  C   UNL     1     -10.303   1.308 -33.989  1.00  0.00     0.033 A 
HETATM    5  C   UNL     1     -11.212   2.185 -33.524  1.00  0.00     0.004 A 
HETATM    6  C   UNL     1     -10.831   3.523 -33.119  1.00  0.00     0.018 A 
HETATM    7  C   UNL     1      -9.535   3.877 -33.159  1.00  0.00     0.115 A 
HETATM    8  C   UNL     1      -7.784   1.125 -34.564  1.00  0.00     0.107 A 
HETATM    9  N   UNL     1      -6.705   1.960 -34.354  1.00  0.00    -0.064 NA
ENDROOT
BRANCH   1  10
HETATM   10  N   UNL     1      -6.352   4.054 -33.269  1.00  0.00    -0.147 N 
HETATM   11  C   UNL     1      -5.795   5.031 -34.070  1.00  0.00     0.233 A 
HETATM   12  N   UNL     1      -5.099   5.917 -33.392  1.00  0.00    -0.236 NA
HETATM   13  C   UNL     1      -5.139   5.497 -32.082  1.00  0.00     0.142 A 
HETATM   14  C   UNL     1      -5.871   4.321 -32.012  1.00  0.00     0.153 A 
BRANCH  13  15
HETATM   15  C   UNL     1      -4.562   6.166 -30.901  1.00  0.00     0.273 C 
HETATM   16  N   UNL     1      -3.162   6.324 -30.758  1.00  0.00    -0.347 N 
HETATM   17  C   UNL     1      -2.202   5.362 -31.295  1.00  0.00     0.128 C 
HETATM   18  C   UNL     1      -2.748   7.083 -29.580  1.00  0.00     0.128 C 
HETATM   19  C   UNL     1      -0.795   5.942 -31.409  1.00  0.00     0.053 C 
HETATM   20  C   UNL     1      -0.315   6.615 -30.118  1.00  0.00     0.190 C 
HETATM   21  C   UNL     1      -1.351   7.670 -29.722  1.00  0.00     0.053 C 
HETATM   22  O   UNL     1      -5.321   6.618 -30.041  1.00  0.00    -0.266 OA
BRANCH  20  23
HETATM   23  N   UNL     1      -0.065   5.600 -28.988  1.00  0.00    -0.074 N 
HETATM   24  C   UNL     1       0.260   6.257 -27.659  1.00  0.00     0.269 C 
HETATM   25  H   UNL     1      -0.920   5.052 -28.834  1.00  0.00     0.279 HD
HETATM   26  C   UNL     1       1.028   4.603 -29.316  1.00  0.00     0.269 C 
ENDBRANCH  20  23
ENDBRANCH  13  15
ENDBRANCH   1  10
BRANCH   8  27
HETATM   27  C   UNL     1      -7.613  -0.187 -35.247  1.00  0.00     0.294 C 
BRANCH  27  28
HETATM   28  N   UNL     1      -7.266  -1.257 -34.269  1.00  0.00    -0.066 N 
HETATM   29  H   UNL     1      -7.557  -0.926 -33.339  1.00  0.00     0.277 HD
HETATM   30  H   UNL     1      -7.879  -2.062 -34.448  1.00  0.00     0.277 HD
BRANCH  28  31
HETATM   31  C   UNL     1      -5.839  -1.663 -34.274  1.00  0.00     0.272 C 
BRANCH  31  32
HETATM   32  C   UNL     1      -5.088  -1.086 -33.120  1.00  0.00    -0.015 A 
HETATM   33  C   UNL     1      -5.764  -0.598 -32.005  1.00  0.00     0.125 A 
HETATM   34  N   UNL     1      -5.155  -0.036 -30.943  1.00  0.00    -0.273 NA
HETATM   35  C   UNL     1      -3.807   0.023 -30.961  1.00  0.00     0.116 A 
HETATM   36  C   UNL     1      -3.040  -0.437 -32.017  1.00  0.00     0.020 A 
HETATM   37  C   UNL     1      -3.692  -0.992 -33.117  1.00  0.00     0.012 A 
ENDBRANCH  31  32
ENDBRANCH  28  31
ENDBRANCH  27  28
ENDBRANCH   8  27
TORSDOF 7
ENDMDL
MODEL 6
REMARK VINA RESULT:      -8.5      1.756      2.278
REMARK  7 active torsions:
REMARK  status: ('A' for Active; 'I' for Inactive)
REMARK    1  A    between atoms: N_2  and  C_4 
REMARK       I    between atoms: N_7  and  C_8 
REMARK    2  A    between atoms: C_8  and  C_9 
REMARK    3  A    between atoms: N_12  and  C_13 
REMARK    4  A    between atoms: C_20  and  C_21 
REMARK    5  A    between atoms: C_21  and  N_22 
REMARK    6  A    between atoms: N_22  and  C_25 
REMARK    7  A    between atoms: C_25  and  C_26 
ROOT
HETATM    1  C   UNL     1      -5.180   2.622 -33.127  1.00  0.00     0.719 A 
HETATM    2  N   UNL     1      -4.632   1.591 -32.372  1.00  0.00    -0.154 N 
HETATM    3  C   UNL     1      -5.574   0.557 -32.410  1.00  0.00     0.083 A 
HETATM    4  C   UNL     1      -5.253  -0.677 -31.773  1.00  0.00     0.033 A 
HETATM    5  C   UNL     1      -4.091  -0.792 -31.104  1.00  0.00     0.004 A 
HETATM    6  C   UNL     1      -3.167   0.320 -30.999  1.00  0.00     0.018 A 
HETATM    7  C   UNL     1      -3.453   1.473 -31.627  1.00  0.00     0.115 A 
HETATM    8  C   UNL     1      -6.672   1.059 -33.070  1.00  0.00     0.107 A 
HETATM    9  N   UNL     1      -6.424   2.345 -33.505  1.00  0.00    -0.064 NA
ENDROOT
BRANCH   1  10
HETATM   10  N   UNL     1      -4.557   3.827 -33.475  1.00  0.00    -0.147 N 
HETATM   11  C   UNL     1      -5.045   4.737 -34.392  1.00  0.00     0.233 A 
HETATM   12  N   UNL     1      -4.301   5.817 -34.491  1.00  0.00    -0.236 NA
HETATM   13  C   UNL     1      -3.234   5.612 -33.646  1.00  0.00     0.142 A 
HETATM   14  C   UNL     1      -3.366   4.364 -33.055  1.00  0.00     0.153 A 
BRANCH  13  15
HETATM   15  C   UNL     1      -2.132   6.543 -33.341  1.00  0.00     0.273 C 
HETATM   16  N   UNL     1      -1.306   6.357 -32.206  1.00  0.00    -0.347 N 
HETATM   17  C   UNL     1      -1.793   5.752 -30.968  1.00  0.00     0.128 C 
HETATM   18  C   UNL     1      -0.204   7.309 -32.086  1.00  0.00     0.128 C 
HETATM   19  C   UNL     1      -0.660   5.260 -30.072  1.00  0.00     0.053 C 
HETATM   20  C   UNL     1       0.425   6.318 -29.838  1.00  0.00     0.190 C 
HETATM   21  C   UNL     1       0.925   6.792 -31.205  1.00  0.00     0.053 C 
HETATM   22  O   UNL     1      -1.914   7.482 -34.110  1.00  0.00    -0.266 OA
BRANCH  20  23
HETATM   23  N   UNL     1      -0.078   7.487 -28.971  1.00  0.00    -0.074 N 
HETATM   24  C   UNL     1       1.045   8.246 -28.288  1.00  0.00     0.269 C 
HETATM   25  H   UNL     1      -0.558   8.169 -29.572  1.00  0.00     0.279 HD
HETATM   26  C   UNL     1      -1.084   7.060 -27.922  1.00  0.00     0.269 C 
ENDBRANCH  20  23
ENDBRANCH  13  15
ENDBRANCH   1  10
BRANCH   8  27
HETATM   27  C   UNL     1      -7.984   0.403 -33.333  1.00  0.00     0.294 C 
BRANCH  27  28
HETATM   28  N   UNL     1      -7.806  -1.044 -33.638  1.00  0.00    -0.066 N 
HETATM   29  H   UNL     1      -7.379  -1.481 -32.809  1.00  0.00     0.277 HD
HETATM   30  H   UNL     1      -8.737  -1.475 -33.691  1.00  0.00     0.277 HD
BRANCH  28  31
HETATM   31  C   UNL     1      -7.017  -1.327 -34.862  1.00  0.00     0.272 C 
BRANCH  31  32
HETATM   32  C   UNL     1      -6.220  -2.584 -34.737  1.00  0.00    -0.015 A 
HETATM   33  C   UNL     1      -6.825  -3.828 -34.896  1.00  0.00     0.125 A 
HETATM   34  N   UNL     1      -6.177  -5.001 -34.766  1.00  0.00    -0.273 NA
HETATM   35  C   UNL     1      -4.856  -4.952 -34.496  1.00  0.00     0.116 A 
HETATM   36  C   UNL     1      -4.158  -3.770 -34.323  1.00  0.00     0.020 A 
HETATM   37  C   UNL     1      -4.854  -2.568 -34.438  1.00  0.00     0.012 A 
ENDBRANCH  31  32
ENDBRANCH  28  31
ENDBRANCH  27  28
ENDBRANCH   8  27
TORSDOF 7
ENDMDL
MODEL 7
REMARK VINA RESULT:      -8.2      2.504      3.925
REMARK  7 active torsions:
REMARK  status: ('A' for Active; 'I' for Inactive)
REMARK    1  A    between atoms: N_2  and  C_4 
REMARK       I    between atoms: N_7  and  C_8 
REMARK    2  A    between atoms: C_8  and  C_9 
REMARK    3  A    between atoms: N_12  and  C_13 
REMARK    4  A    between atoms: C_20  and  C_21 
REMARK    5  A    between atoms: C_21  and  N_22 
REMARK    6  A    between atoms: N_22  and  C_25 
REMARK    7  A    between atoms: C_25  and  C_26 
ROOT
HETATM    1  C   UNL     1      -7.734   2.650 -32.721  1.00  0.00     0.719 A 
HETATM    2  N   UNL     1      -9.105   2.583 -32.942  1.00  0.00    -0.154 N 
HETATM    3  C   UNL     1      -9.278   1.605 -33.928  1.00  0.00     0.083 A 
HETATM    4  C   UNL     1     -10.605   1.262 -34.317  1.00  0.00     0.033 A 
HETATM    5  C   UNL     1     -11.644   1.925 -33.778  1.00  0.00     0.004 A 
HETATM    6  C   UNL     1     -11.442   2.998 -32.824  1.00  0.00     0.018 A 
HETATM    7  C   UNL     1     -10.193   3.300 -32.432  1.00  0.00     0.115 A 
HETATM    8  C   UNL     1      -8.015   1.232 -34.328  1.00  0.00     0.107 A 
HETATM    9  N   UNL     1      -7.061   1.891 -33.580  1.00  0.00    -0.064 NA
ENDROOT
BRANCH   1  10
HETATM   10  N   UNL     1      -7.081   3.405 -31.738  1.00  0.00    -0.147 N 
HETATM   11  C   UNL     1      -7.074   3.116 -30.388  1.00  0.00     0.233 A 
HETATM   12  N   UNL     1      -6.335   3.947 -29.687  1.00  0.00    -0.236 NA
HETATM   13  C   UNL     1      -5.862   4.874 -30.588  1.00  0.00     0.142 A 
HETATM   14  C   UNL     1      -6.361   4.569 -31.846  1.00  0.00     0.153 A 
BRANCH  13  15
HETATM   15  C   UNL     1      -4.940   5.996 -30.330  1.00  0.00     0.273 C 
HETATM   16  N   UNL     1      -3.642   6.023 -30.894  1.00  0.00    -0.347 N 
HETATM   17  C   UNL     1      -2.874   4.809 -31.163  1.00  0.00     0.128 C 
HETATM   18  C   UNL     1      -2.879   7.238 -30.619  1.00  0.00     0.128 C 
HETATM   19  C   UNL     1      -1.732   5.045 -32.147  1.00  0.00     0.053 C 
HETATM   20  C   UNL     1      -0.851   6.242 -31.770  1.00  0.00     0.190 C 
HETATM   21  C   UNL     1      -1.757   7.467 -31.623  1.00  0.00     0.053 C 
HETATM   22  O   UNL     1      -5.326   6.937 -29.633  1.00  0.00    -0.266 OA
BRANCH  20  23
HETATM   23  N   UNL     1      -0.023   5.981 -30.498  1.00  0.00    -0.074 N 
HETATM   24  C   UNL     1       0.582   7.244 -29.914  1.00  0.00     0.269 C 
HETATM   25  H   UNL     1      -0.638   5.596 -29.770  1.00  0.00     0.279 HD
HETATM   26  C   UNL     1       1.081   4.965 -30.706  1.00  0.00     0.269 C 
ENDBRANCH  20  23
ENDBRANCH  13  15
ENDBRANCH   1  10
BRANCH   8  27
HETATM   27  C   UNL     1      -7.620   0.271 -35.395  1.00  0.00     0.294 C 
BRANCH  27  28
HETATM   28  N   UNL     1      -7.276  -1.058 -34.817  1.00  0.00    -0.066 N 
HETATM   29  H   UNL     1      -7.923  -1.226 -34.033  1.00  0.00     0.277 HD
HETATM   30  H   UNL     1      -7.531  -1.779 -35.504  1.00  0.00     0.277 HD
BRANCH  28  31
HETATM   31  C   UNL     1      -5.863  -1.203 -34.390  1.00  0.00     0.272 C 
BRANCH  31  32
HETATM   32  C   UNL     1      -5.425  -2.631 -34.377  1.00  0.00    -0.015 A 
HETATM   33  C   UNL     1      -6.259  -3.635 -34.861  1.00  0.00     0.125 A 
HETATM   34  N   UNL     1      -5.944  -4.944 -34.851  1.00  0.00    -0.273 NA
HETATM   35  C   UNL     1      -4.731  -5.285 -34.369  1.00  0.00     0.116 A 
HETATM   36  C   UNL     1      -3.825  -4.366 -33.869  1.00  0.00     0.020 A 
HETATM   37  C   UNL     1      -4.182  -3.019 -33.866  1.00  0.00     0.012 A 
ENDBRANCH  31  32
ENDBRANCH  28  31
ENDBRANCH  27  28
ENDBRANCH   8  27
TORSDOF 7
ENDMDL
MODEL 8
REMARK VINA RESULT:      -8.1      3.941      5.699
REMARK  7 active torsions:
REMARK  status: ('A' for Active; 'I' for Inactive)
REMARK    1  A    between atoms: N_2  and  C_4 
REMARK       I    between atoms: N_7  and  C_8 
REMARK    2  A    between atoms: C_8  and  C_9 
REMARK    3  A    between atoms: N_12  and  C_13 
REMARK    4  A    between atoms: C_20  and  C_21 
REMARK    5  A    between atoms: C_21  and  N_22 
REMARK    6  A    between atoms: N_22  and  C_25 
REMARK    7  A    between atoms: C_25  and  C_26 
ROOT
HETATM    1  C   UNL     1      -7.129   2.775 -33.534  1.00  0.00     0.719 A 
HETATM    2  N   UNL     1      -6.823   1.421 -33.611  1.00  0.00    -0.154 N 
HETATM    3  C   UNL     1      -7.979   0.804 -34.101  1.00  0.00     0.083 A 
HETATM    4  C   UNL     1      -7.943  -0.597 -34.357  1.00  0.00     0.033 A 
HETATM    5  C   UNL     1      -6.830  -1.294 -34.064  1.00  0.00     0.004 A 
HETATM    6  C   UNL     1      -5.672  -0.653 -33.472  1.00  0.00     0.018 A 
HETATM    7  C   UNL     1      -5.693   0.674 -33.261  1.00  0.00     0.115 A 
HETATM    8  C   UNL     1      -8.941   1.785 -34.172  1.00  0.00     0.107 A 
HETATM    9  N   UNL     1      -8.408   3.006 -33.810  1.00  0.00    -0.064 NA
ENDROOT
BRANCH   1  10
HETATM   10  N   UNL     1      -6.248   3.814 -33.205  1.00  0.00    -0.147 N 
HETATM   11  C   UNL     1      -5.646   4.662 -34.114  1.00  0.00     0.233 A 
HETATM   12  N   UNL     1      -4.913   5.592 -33.544  1.00  0.00    -0.236 NA
HETATM   13  C   UNL     1      -4.974   5.336 -32.192  1.00  0.00     0.142 A 
HETATM   14  C   UNL     1      -5.758   4.211 -31.986  1.00  0.00     0.153 A 
BRANCH  13  15
HETATM   15  C   UNL     1      -4.369   6.117 -31.097  1.00  0.00     0.273 C 
HETATM   16  N   UNL     1      -2.964   6.210 -30.951  1.00  0.00    -0.347 N 
HETATM   17  C   UNL     1      -2.057   5.134 -31.343  1.00  0.00     0.128 C 
HETATM   18  C   UNL     1      -2.517   7.090 -29.873  1.00  0.00     0.128 C 
HETATM   19  C   UNL     1      -0.618   5.612 -31.506  1.00  0.00     0.053 C 
HETATM   20  C   UNL     1      -0.111   6.417 -30.304  1.00  0.00     0.190 C 
HETATM   21  C   UNL     1      -1.086   7.572 -30.065  1.00  0.00     0.053 C 
HETATM   22  O   UNL     1      -5.109   6.720 -30.316  1.00  0.00    -0.266 OA
BRANCH  20  23
HETATM   23  N   UNL     1       0.067   5.542 -29.049  1.00  0.00    -0.074 N 
HETATM   24  C   UNL     1       0.437   6.343 -27.815  1.00  0.00     0.269 C 
HETATM   25  H   UNL     1      -0.825   5.081 -28.832  1.00  0.00     0.279 HD
HETATM   26  C   UNL     1       1.087   4.437 -29.234  1.00  0.00     0.269 C 
ENDBRANCH  20  23
ENDBRANCH  13  15
ENDBRANCH   1  10
BRANCH   8  27
HETATM   27  C   UNL     1     -10.372   1.664 -34.567  1.00  0.00     0.294 C 
BRANCH  27  28
HETATM   28  N   UNL     1     -11.202   1.188 -33.425  1.00  0.00    -0.066 N 
HETATM   29  H   UNL     1     -10.664   0.456 -32.940  1.00  0.00     0.277 HD
HETATM   30  H   UNL     1     -11.259   1.948 -32.735  1.00  0.00     0.277 HD
BRANCH  28  31
HETATM   31  C   UNL     1     -12.554   0.706 -33.799  1.00  0.00     0.272 C 
BRANCH  31  32
HETATM   32  C   UNL     1     -13.635   1.541 -33.193  1.00  0.00    -0.015 A 
HETATM   33  C   UNL     1     -14.956   1.104 -33.197  1.00  0.00     0.125 A 
HETATM   34  N   UNL     1     -15.985   1.817 -32.699  1.00  0.00    -0.273 NA
HETATM   35  C   UNL     1     -15.697   3.010 -32.138  1.00  0.00     0.116 A 
HETATM   36  C   UNL     1     -14.418   3.534 -32.078  1.00  0.00     0.020 A 
HETATM   37  C   UNL     1     -13.372   2.790 -32.622  1.00  0.00     0.012 A 
ENDBRANCH  31  32
ENDBRANCH  28  31
ENDBRANCH  27  28
ENDBRANCH   8  27
TORSDOF 7
ENDMDL
MODEL 9
REMARK VINA RESULT:      -8.0      2.089      2.596
REMARK  7 active torsions:
REMARK  status: ('A' for Active; 'I' for Inactive)
REMARK    1  A    between atoms: N_2  and  C_4 
REMARK       I    between atoms: N_7  and  C_8 
REMARK    2  A    between atoms: C_8  and  C_9 
REMARK    3  A    between atoms: N_12  and  C_13 
REMARK    4  A    between atoms: C_20  and  C_21 
REMARK    5  A    between atoms: C_21  and  N_22 
REMARK    6  A    between atoms: N_22  and  C_25 
REMARK    7  A    between atoms: C_25  and  C_26 
ROOT
HETATM    1  C   UNL     1      -5.047   3.113 -32.822  1.00  0.00     0.719 A 
HETATM    2  N   UNL     1      -4.432   2.003 -32.251  1.00  0.00    -0.154 N 
HETATM    3  C   UNL     1      -5.114   0.894 -32.761  1.00  0.00     0.083 A 
HETATM    4  C   UNL     1      -4.656  -0.407 -32.404  1.00  0.00     0.033 A 
HETATM    5  C   UNL     1      -3.630  -0.533 -31.543  1.00  0.00     0.004 A 
HETATM    6  C   UNL     1      -2.993   0.629 -30.954  1.00  0.00     0.018 A 
HETATM    7  C   UNL     1      -3.402   1.856 -31.316  1.00  0.00     0.115 A 
HETATM    8  C   UNL     1      -6.163   1.391 -33.501  1.00  0.00     0.107 A 
HETATM    9  N   UNL     1      -6.120   2.770 -33.527  1.00  0.00    -0.064 NA
ENDROOT
BRANCH   1  10
HETATM   10  N   UNL     1      -4.640   4.448 -32.703  1.00  0.00    -0.147 N 
HETATM   11  C   UNL     1      -3.977   5.166 -33.679  1.00  0.00     0.233 A 
HETATM   12  N   UNL     1      -3.765   6.419 -33.341  1.00  0.00    -0.236 NA
HETATM   13  C   UNL     1      -4.255   6.547 -32.061  1.00  0.00     0.142 A 
HETATM   14  C   UNL     1      -4.751   5.319 -31.648  1.00  0.00     0.153 A 
BRANCH  13  15
HETATM   15  C   UNL     1      -4.315   7.767 -31.235  1.00  0.00     0.273 C 
HETATM   16  N   UNL     1      -3.225   8.154 -30.417  1.00  0.00    -0.347 N 
HETATM   17  C   UNL     1      -2.322   7.186 -29.798  1.00  0.00     0.128 C 
HETATM   18  C   UNL     1      -3.399   9.430 -29.727  1.00  0.00     0.128 C 
HETATM   19  C   UNL     1      -1.008   7.818 -29.347  1.00  0.00     0.053 C 
HETATM   20  C   UNL     1      -1.207   9.082 -28.502  1.00  0.00     0.190 C 
HETATM   21  C   UNL     1      -2.077  10.054 -29.304  1.00  0.00     0.053 C 
HETATM   22  O   UNL     1      -5.325   8.472 -31.285  1.00  0.00    -0.266 OA
BRANCH  20  23
HETATM   23  N   UNL     1      -1.811   8.771 -27.121  1.00  0.00    -0.074 N 
HETATM   24  C   UNL     1      -2.046  10.014 -26.282  1.00  0.00     0.269 C 
HETATM   25  H   UNL     1      -2.732   8.335 -27.247  1.00  0.00     0.279 HD
HETATM   26  C   UNL     1      -0.981   7.792 -26.315  1.00  0.00     0.269 C 
ENDBRANCH  20  23
ENDBRANCH  13  15
ENDBRANCH   1  10
BRANCH   8  27
HETATM   27  C   UNL     1      -7.242   0.647 -34.210  1.00  0.00     0.294 C 
BRANCH  27  28
HETATM   28  N   UNL     1      -6.678  -0.474 -35.012  1.00  0.00    -0.066 N 
HETATM   29  H   UNL     1      -6.717  -0.191 -36.002  1.00  0.00     0.277 HD
HETATM   30  H   UNL     1      -5.672  -0.534 -34.813  1.00  0.00     0.277 HD
BRANCH  28  31
HETATM   31  C   UNL     1      -7.342  -1.784 -34.800  1.00  0.00     0.272 C 
BRANCH  31  32
HETATM   32  C   UNL     1      -6.357  -2.903 -34.707  1.00  0.00    -0.015 A 
HETATM   33  C   UNL     1      -6.734  -4.209 -35.008  1.00  0.00     0.125 A 
HETATM   34  N   UNL     1      -5.910  -5.269 -34.916  1.00  0.00    -0.273 NA
HETATM   35  C   UNL     1      -4.636  -5.033 -34.537  1.00  0.00     0.116 A 
HETATM   36  C   UNL     1      -4.158  -3.773 -34.220  1.00  0.00     0.020 A 
HETATM   37  C   UNL     1      -5.035  -2.694 -34.299  1.00  0.00     0.012 A 
ENDBRANCH  31  32
ENDBRANCH  28  31
ENDBRANCH  27  28
ENDBRANCH   8  27
TORSDOF 7
ENDMDL
MODEL 10
REMARK VINA RESULT:      -8.0      2.015      2.219
REMARK  7 active torsions:
REMARK  status: ('A' for Active; 'I' for Inactive)
REMARK    1  A    between atoms: N_2  and  C_4 
REMARK       I    between atoms: N_7  and  C_8 
REMARK    2  A    between atoms: C_8  and  C_9 
REMARK    3  A    between atoms: N_12  and  C_13 
REMARK    4  A    between atoms: C_20  and  C_21 
REMARK    5  A    between atoms: C_21  and  N_22 
REMARK    6  A    between atoms: N_22  and  C_25 
REMARK    7  A    between atoms: C_25  and  C_26 
ROOT
HETATM    1  C   UNL     1      -5.640   4.141 -32.114  1.00  0.00     0.719 A 
HETATM    2  N   UNL     1      -6.895   3.917 -31.560  1.00  0.00    -0.154 N 
HETATM    3  C   UNL     1      -7.331   2.702 -32.101  1.00  0.00     0.083 A 
HETATM    4  C   UNL     1      -8.575   2.169 -31.656  1.00  0.00     0.033 A 
HETATM    5  C   UNL     1      -9.322   2.873 -30.785  1.00  0.00     0.004 A 
HETATM    6  C   UNL     1      -8.896   4.172 -30.304  1.00  0.00     0.018 A 
HETATM    7  C   UNL     1      -7.707   4.660 -30.697  1.00  0.00     0.115 A 
HETATM    8  C   UNL     1      -6.385   2.331 -33.029  1.00  0.00     0.107 A 
HETATM    9  N   UNL     1      -5.342   3.234 -33.039  1.00  0.00    -0.064 NA
ENDROOT
BRANCH   1  10
HETATM   10  N   UNL     1      -4.755   5.178 -31.788  1.00  0.00    -0.147 N 
HETATM   11  C   UNL     1      -4.932   6.506 -32.120  1.00  0.00     0.233 A 
HETATM   12  N   UNL     1      -3.988   7.287 -31.642  1.00  0.00    -0.236 NA
HETATM   13  C   UNL     1      -3.101   6.449 -31.003  1.00  0.00     0.142 A 
HETATM   14  C   UNL     1      -3.549   5.143 -31.134  1.00  0.00     0.153 A 
BRANCH  13  15
HETATM   15  C   UNL     1      -1.890   6.821 -30.248  1.00  0.00     0.273 C 
HETATM   16  N   UNL     1      -1.913   6.940 -28.838  1.00  0.00    -0.347 N 
HETATM   17  C   UNL     1      -3.100   7.368 -28.101  1.00  0.00     0.128 C 
HETATM   18  C   UNL     1      -0.618   7.229 -28.226  1.00  0.00     0.128 C 
HETATM   19  C   UNL     1      -3.033   7.005 -26.621  1.00  0.00     0.053 C 
HETATM   20  C   UNL     1      -1.722   7.440 -25.954  1.00  0.00     0.190 C 
HETATM   21  C   UNL     1      -0.563   6.842 -26.755  1.00  0.00     0.053 C 
HETATM   22  O   UNL     1      -0.837   7.003 -30.863  1.00  0.00    -0.266 OA
BRANCH  20  23
HETATM   23  N   UNL     1      -1.609   8.971 -25.832  1.00  0.00    -0.074 N 
HETATM   24  C   UNL     1      -0.307   9.422 -25.197  1.00  0.00     0.269 C 
HETATM   25  H   UNL     1      -1.626   9.385 -26.772  1.00  0.00     0.279 HD
HETATM   26  C   UNL     1      -2.762   9.593 -25.070  1.00  0.00     0.269 C 
ENDBRANCH  20  23
ENDBRANCH  13  15
ENDBRANCH   1  10
BRANCH   8  27
HETATM   27  C   UNL     1      -6.384   1.154 -33.942  1.00  0.00     0.294 C 
BRANCH  27  28
HETATM   28  N   UNL     1      -6.059  -0.097 -33.200  1.00  0.00    -0.066 N 
HETATM   29  H   UNL     1      -5.951   0.156 -32.208  1.00  0.00     0.277 HD
HETATM   30  H   UNL     1      -6.892  -0.698 -33.211  1.00  0.00     0.277 HD
BRANCH  28  31
HETATM   31  C   UNL     1      -4.869  -0.825 -33.704  1.00  0.00     0.272 C 
BRANCH  31  32
HETATM   32  C   UNL     1      -5.196  -2.228 -34.098  1.00  0.00    -0.015 A 
HETATM   33  C   UNL     1      -4.238  -3.234 -34.006  1.00  0.00     0.125 A 
HETATM   34  N   UNL     1      -4.452  -4.512 -34.372  1.00  0.00    -0.273 NA
HETATM   35  C   UNL     1      -5.683  -4.828 -34.824  1.00  0.00     0.116 A 
HETATM   36  C   UNL     1      -6.708  -3.907 -34.950  1.00  0.00     0.020 A 
HETATM   37  C   UNL     1      -6.456  -2.584 -34.589  1.00  0.00     0.012 A 
ENDBRANCH  31  32
ENDBRANCH  28  31
ENDBRANCH  27  28
ENDBRANCH   8  27
TORSDOF 7
ENDMDL
