MODEL 1
REMARK VINA RESULT:      -7.3      0.000      0.000
REMARK  10 active torsions:
REMARK  status: ('A' for Active; 'I' for Inactive)
REMARK    1  A    between atoms: C_2  and  C_3 
REMARK    2  A    between atoms: C_3  and  C_4 
REMARK    3  A    between atoms: C_4  and  N_5 
REMARK    4  A    between atoms: N_5  and  C_7 
REMARK    5  A    between atoms: C_7  and  C_8 
REMARK    6  A    between atoms: C_8  and  C_9 
REMARK    7  A    between atoms: C_9  and  N_10 
REMARK       I    between atoms: N_10  and  C_11 
REMARK    8  A    between atoms: C_11  and  C_12 
REMARK    9  A    between atoms: C_12  and  O_13 
REMARK   10  A    between atoms: N_14  and  C_15 
ROOT
HETATM    1  C   UNL     1      -5.137   1.838 -32.332  1.00  0.00     0.256 C 
HETATM    2  N   UNL     1      -4.896   3.132 -32.997  1.00  0.00    -0.254 N 
HETATM    3  C   UNL     1      -5.838   3.576 -33.920  1.00  0.00     0.330 C 
HETATM    4  O   UNL     1      -6.074   4.758 -34.178  1.00  0.00    -0.246 OA
HETATM    5  N   UNL     1      -6.602   2.636 -34.545  1.00  0.00    -0.308 N 
HETATM    6  C   UNL     1      -6.521   1.269 -34.330  1.00  0.00     0.048 A 
HETATM    7  C   UNL     1      -5.770   0.810 -33.255  1.00  0.00     0.034 A 
HETATM    8  C   UNL     1      -7.202   0.391 -35.175  1.00  0.00     0.030 A 
HETATM    9  C   UNL     1      -7.123  -0.981 -34.949  1.00  0.00     0.002 A 
HETATM   10  C   UNL     1      -6.376  -1.466 -33.879  1.00  0.00     0.001 A 
HETATM   11  C   UNL     1      -5.709  -0.577 -33.032  1.00  0.00     0.015 A 
HETATM   12  H   UNL     1      -7.172   2.990 -35.303  1.00  0.00     0.170 HD
ENDROOT
BRANCH   1  13
HETATM   13  C   UNL     1      -6.087   2.047 -31.071  1.00  0.00     0.279 C 
HETATM   14  N   UNL     1      -7.120   2.970 -31.207  1.00  0.00    -0.356 N 
HETATM   15  H   UNL     1      -6.931   3.697 -31.895  1.00  0.00     0.162 HD
HETATM   16  O   UNL     1      -5.928   1.405 -30.030  1.00  0.00    -0.268 OA
BRANCH  14  17
HETATM   17  C   UNL     1      -7.940   3.317 -30.068  1.00  0.00     0.124 C 
BRANCH  17  18
HETATM   18  C   UNL     1      -9.055   4.286 -30.449  1.00  0.00     0.047 C 
BRANCH  18  19
HETATM   19  C   UNL     1      -9.594   3.988 -31.846  1.00  0.00     0.236 C 
BRANCH  19  20
HETATM   20  N   UNL     1     -10.943   3.287 -31.824  1.00  0.00    -0.075 N 
HETATM   21  H   UNL     1     -10.840   2.534 -31.131  1.00  0.00     0.279 HD
HETATM   22  C   UNL     1     -12.043   4.159 -31.271  1.00  0.00     0.269 C 
BRANCH  20  23
HETATM   23  C   UNL     1     -11.371   2.614 -33.112  1.00  0.00     0.234 C 
BRANCH  23  24
HETATM   24  C   UNL     1     -10.296   1.701 -33.699  1.00  0.00     0.027 C 
BRANCH  24  25
HETATM   25  C   UNL     1     -10.275   0.303 -33.080  1.00  0.00    -0.003 C 
HETATM   26  C   UNL     1      -9.241   0.202 -31.968  1.00  0.00     0.005 C 
ENDBRANCH  24  25
ENDBRANCH  23  24
ENDBRANCH  20  23
ENDBRANCH  19  20
ENDBRANCH  18  19
ENDBRANCH  17  18
ENDBRANCH  14  17
ENDBRANCH   1  13
BRANCH   1  27
HETATM   27  O   UNL     1      -3.892   1.282 -31.908  1.00  0.00    -0.359 OA
HETATM   28  H   UNL     1      -3.960   1.179 -30.943  1.00  0.00     0.213 HD
ENDBRANCH   1  27
BRANCH   2  29
HETATM   29  C   UNL     1      -3.869   4.039 -32.528  1.00  0.00     0.042 A 
HETATM   30  C   UNL     1      -4.027   4.851 -31.394  1.00  0.00     0.030 A 
HETATM   31  C   UNL     1      -3.011   5.716 -30.968  1.00  0.00     0.002 A 
HETATM   32  C   UNL     1      -1.808   5.780 -31.662  1.00  0.00     0.000 A 
HETATM   33  C   UNL     1      -1.621   4.979 -32.779  1.00  0.00     0.002 A 
HETATM   34  C   UNL     1      -2.638   4.120 -33.206  1.00  0.00     0.030 A 
ENDBRANCH   2  29
TORSDOF 10
ENDMDL
MODEL 2
REMARK VINA RESULT:      -7.2      2.127      5.451
REMARK  10 active torsions:
REMARK  status: ('A' for Active; 'I' for Inactive)
REMARK    1  A    between atoms: C_2  and  C_3 
REMARK    2  A    between atoms: C_3  and  C_4 
REMARK    3  A    between atoms: C_4  and  N_5 
REMARK    4  A    between atoms: N_5  and  C_7 
REMARK    5  A    between atoms: C_7  and  C_8 
REMARK    6  A    between atoms: C_8  and  C_9 
REMARK    7  A    between atoms: C_9  and  N_10 
REMARK       I    between atoms: N_10  and  C_11 
REMARK    8  A    between atoms: C_11  and  C_12 
REMARK    9  A    between atoms: C_12  and  O_13 
REMARK   10  A    between atoms: N_14  and  C_15 
ROOT
HETATM    1  C   UNL     1      -6.565   0.510 -33.786  1.00  0.00     0.256 C 
HETATM    2  N   UNL     1      -5.619  -0.545 -33.376  1.00  0.00    -0.254 N 
HETATM    3  C   UNL     1      -4.835  -0.315 -32.249  1.00  0.00     0.330 C 
HETATM    4  O   UNL     1      -4.398  -1.191 -31.499  1.00  0.00    -0.246 OA
HETATM    5  N   UNL     1      -4.579   0.980 -31.911  1.00  0.00    -0.308 N 
HETATM    6  C   UNL     1      -5.043   2.091 -32.597  1.00  0.00     0.048 A 
HETATM    7  C   UNL     1      -6.014   1.910 -33.575  1.00  0.00     0.034 A 
HETATM    8  C   UNL     1      -4.547   3.359 -32.285  1.00  0.00     0.030 A 
HETATM    9  C   UNL     1      -5.023   4.472 -32.973  1.00  0.00     0.002 A 
HETATM   10  C   UNL     1      -5.995   4.316 -33.957  1.00  0.00     0.001 A 
HETATM   11  C   UNL     1      -6.493   3.045 -34.252  1.00  0.00     0.015 A 
HETATM   12  H   UNL     1      -3.897   1.098 -31.171  1.00  0.00     0.170 HD
ENDROOT
BRANCH   1  13
HETATM   13  C   UNL     1      -7.924   0.365 -32.969  1.00  0.00     0.279 C 
HETATM   14  N   UNL     1      -9.100   0.301 -33.710  1.00  0.00    -0.356 N 
HETATM   15  H   UNL     1      -9.037   0.756 -34.619  1.00  0.00     0.162 HD
HETATM   16  O   UNL     1      -7.931   0.293 -31.738  1.00  0.00    -0.268 OA
BRANCH  14  17
HETATM   17  C   UNL     1     -10.382   0.307 -33.041  1.00  0.00     0.124 C 
BRANCH  17  18
HETATM   18  C   UNL     1     -11.374   1.241 -33.730  1.00  0.00     0.047 C 
BRANCH  18  19
HETATM   19  C   UNL     1     -10.661   2.423 -34.381  1.00  0.00     0.236 C 
BRANCH  19  20
HETATM   20  N   UNL     1     -11.025   3.757 -33.747  1.00  0.00    -0.075 N 
HETATM   21  H   UNL     1     -10.406   4.444 -34.197  1.00  0.00     0.279 HD
HETATM   22  C   UNL     1     -12.417   4.212 -34.108  1.00  0.00     0.269 C 
BRANCH  20  23
HETATM   23  C   UNL     1     -10.776   3.882 -32.258  1.00  0.00     0.234 C 
BRANCH  23  24
HETATM   24  C   UNL     1      -9.297   3.790 -31.886  1.00  0.00     0.027 C 
BRANCH  24  25
HETATM   25  C   UNL     1      -9.053   3.310 -30.455  1.00  0.00    -0.003 C 
HETATM   26  C   UNL     1      -7.576   3.359 -30.095  1.00  0.00     0.005 C 
ENDBRANCH  24  25
ENDBRANCH  23  24
ENDBRANCH  20  23
ENDBRANCH  19  20
ENDBRANCH  18  19
ENDBRANCH  17  18
ENDBRANCH  14  17
ENDBRANCH   1  13
BRANCH   1  27
HETATM   27  O   UNL     1      -6.831   0.392 -35.184  1.00  0.00    -0.359 OA
HETATM   28  H   UNL     1      -6.088   0.830 -35.636  1.00  0.00     0.213 HD
ENDBRANCH   1  27
BRANCH   2  29
HETATM   29  C   UNL     1      -5.679  -1.874 -33.949  1.00  0.00     0.042 A 
HETATM   30  C   UNL     1      -6.888  -2.534 -34.220  1.00  0.00     0.030 A 
HETATM   31  C   UNL     1      -6.908  -3.819 -34.776  1.00  0.00     0.002 A 
HETATM   32  C   UNL     1      -5.718  -4.470 -35.084  1.00  0.00     0.000 A 
HETATM   33  C   UNL     1      -4.509  -3.834 -34.837  1.00  0.00     0.002 A 
HETATM   34  C   UNL     1      -4.491  -2.553 -34.277  1.00  0.00     0.030 A 
ENDBRANCH   2  29
TORSDOF 10
ENDMDL
MODEL 3
REMARK VINA RESULT:      -7.1      2.816      5.971
REMARK  10 active torsions:
REMARK  status: ('A' for Active; 'I' for Inactive)
REMARK    1  A    between atoms: C_2  and  C_3 
REMARK    2  A    between atoms: C_3  and  C_4 
REMARK    3  A    between atoms: C_4  and  N_5 
REMARK    4  A    between atoms: N_5  and  C_7 
REMARK    5  A    between atoms: C_7  and  C_8 
REMARK    6  A    between atoms: C_8  and  C_9 
REMARK    7  A    between atoms: C_9  and  N_10 
REMARK       I    between atoms: N_10  and  C_11 
REMARK    8  A    between atoms: C_11  and  C_12 
REMARK    9  A    between atoms: C_12  and  O_13 
REMARK   10  A    between atoms: N_14  and  C_15 
ROOT
HETATM    1  C   UNL     1      -4.507   3.694 -31.409  1.00  0.00     0.256 C 
HETATM    2  N   UNL     1      -4.356   4.255 -32.765  1.00  0.00    -0.254 N 
HETATM    3  C   UNL     1      -5.399   4.069 -33.667  1.00  0.00     0.330 C 
HETATM    4  O   UNL     1      -5.677   4.831 -34.596  1.00  0.00    -0.246 OA
HETATM    5  N   UNL     1      -6.217   2.995 -33.475  1.00  0.00    -0.308 N 
HETATM    6  C   UNL     1      -6.096   2.074 -32.447  1.00  0.00     0.048 A 
HETATM    7  C   UNL     1      -5.225   2.356 -31.401  1.00  0.00     0.034 A 
HETATM    8  C   UNL     1      -6.856   0.902 -32.470  1.00  0.00     0.030 A 
HETATM    9  C   UNL     1      -6.736  -0.016 -31.430  1.00  0.00     0.002 A 
HETATM   10  C   UNL     1      -5.870   0.244 -30.372  1.00  0.00     0.001 A 
HETATM   11  C   UNL     1      -5.124   1.425 -30.353  1.00  0.00     0.015 A 
HETATM   12  H   UNL     1      -6.872   2.822 -34.228  1.00  0.00     0.170 HD
ENDROOT
BRANCH   1  13
HETATM   13  C   UNL     1      -5.313   4.714 -30.489  1.00  0.00     0.279 C 
HETATM   14  N   UNL     1      -4.651   5.213 -29.372  1.00  0.00    -0.356 N 
HETATM   15  H   UNL     1      -3.919   4.598 -29.021  1.00  0.00     0.162 HD
HETATM   16  O   UNL     1      -6.464   5.060 -30.766  1.00  0.00    -0.268 OA
BRANCH  14  17
HETATM   17  C   UNL     1      -5.357   6.034 -28.414  1.00  0.00     0.124 C 
BRANCH  17  18
HETATM   18  C   UNL     1      -4.500   7.200 -27.928  1.00  0.00     0.047 C 
BRANCH  18  19
HETATM   19  C   UNL     1      -3.166   7.252 -28.668  1.00  0.00     0.236 C 
BRANCH  19  20
HETATM   20  N   UNL     1      -1.969   7.276 -27.730  1.00  0.00    -0.075 N 
HETATM   21  H   UNL     1      -1.787   8.273 -27.556  1.00  0.00     0.279 HD
HETATM   22  C   UNL     1      -2.285   6.707 -26.369  1.00  0.00     0.269 C 
BRANCH  20  23
HETATM   23  C   UNL     1      -0.677   6.704 -28.277  1.00  0.00     0.234 C 
BRANCH  23  24
HETATM   24  C   UNL     1      -0.138   7.478 -29.479  1.00  0.00     0.027 C 
BRANCH  24  25
HETATM   25  C   UNL     1       0.524   6.591 -30.533  1.00  0.00    -0.003 C 
HETATM   26  C   UNL     1      -0.100   5.204 -30.566  1.00  0.00     0.005 C 
ENDBRANCH  24  25
ENDBRANCH  23  24
ENDBRANCH  20  23
ENDBRANCH  19  20
ENDBRANCH  18  19
ENDBRANCH  17  18
ENDBRANCH  14  17
ENDBRANCH   1  13
BRANCH   1  27
HETATM   27  O   UNL     1      -3.216   3.459 -30.846  1.00  0.00    -0.359 OA
HETATM   28  H   UNL     1      -3.345   2.791 -30.150  1.00  0.00     0.213 HD
ENDBRANCH   1  27
BRANCH   2  29
HETATM   29  C   UNL     1      -3.294   5.188 -33.080  1.00  0.00     0.042 A 
HETATM   30  C   UNL     1      -3.260   6.501 -32.584  1.00  0.00     0.030 A 
HETATM   31  C   UNL     1      -2.216   7.376 -32.908  1.00  0.00     0.002 A 
HETATM   32  C   UNL     1      -1.175   6.955 -33.728  1.00  0.00     0.000 A 
HETATM   33  C   UNL     1      -1.178   5.657 -34.222  1.00  0.00     0.002 A 
HETATM   34  C   UNL     1      -2.225   4.786 -33.901  1.00  0.00     0.030 A 
ENDBRANCH   2  29
TORSDOF 10
ENDMDL
MODEL 4
REMARK VINA RESULT:      -7.0      2.539      5.351
REMARK  10 active torsions:
REMARK  status: ('A' for Active; 'I' for Inactive)
REMARK    1  A    between atoms: C_2  and  C_3 
REMARK    2  A    between atoms: C_3  and  C_4 
REMARK    3  A    between atoms: C_4  and  N_5 
REMARK    4  A    between atoms: N_5  and  C_7 
REMARK    5  A    between atoms: C_7  and  C_8 
REMARK    6  A    between atoms: C_8  and  C_9 
REMARK    7  A    between atoms: C_9  and  N_10 
REMARK       I    between atoms: N_10  and  C_11 
REMARK    8  A    between atoms: C_11  and  C_12 
REMARK    9  A    between atoms: C_12  and  O_13 
REMARK   10  A    between atoms: N_14  and  C_15 
ROOT
HETATM    1  C   UNL     1      -7.182   1.602 -33.380  1.00  0.00     0.256 C 
HETATM    2  N   UNL     1      -6.485   0.508 -32.678  1.00  0.00    -0.254 N 
HETATM    3  C   UNL     1      -6.400   0.575 -31.290  1.00  0.00     0.330 C 
HETATM    4  O   UNL     1      -6.327  -0.400 -30.537  1.00  0.00    -0.246 OA
HETATM    5  N   UNL     1      -6.463   1.807 -30.711  1.00  0.00    -0.308 N 
HETATM    6  C   UNL     1      -6.612   3.003 -31.394  1.00  0.00     0.048 A 
HETATM    7  C   UNL     1      -6.937   2.961 -32.745  1.00  0.00     0.034 A 
HETATM    8  C   UNL     1      -6.453   4.215 -30.719  1.00  0.00     0.030 A 
HETATM    9  C   UNL     1      -6.611   5.414 -31.409  1.00  0.00     0.002 A 
HETATM   10  C   UNL     1      -6.937   5.397 -32.762  1.00  0.00     0.001 A 
HETATM   11  C   UNL     1      -7.105   4.179 -33.425  1.00  0.00     0.015 A 
HETATM   12  H   UNL     1      -6.260   1.819 -29.719  1.00  0.00     0.170 HD
ENDROOT
BRANCH   1  13
HETATM   13  C   UNL     1      -8.749   1.321 -33.398  1.00  0.00     0.279 C 
HETATM   14  N   UNL     1      -9.460   1.794 -34.497  1.00  0.00    -0.356 N 
HETATM   15  H   UNL     1      -9.029   2.598 -34.949  1.00  0.00     0.162 HD
HETATM   16  O   UNL     1      -9.303   0.695 -32.492  1.00  0.00    -0.268 OA
BRANCH  14  17
HETATM   17  C   UNL     1     -10.903   1.700 -34.525  1.00  0.00     0.124 C 
BRANCH  17  18
HETATM   18  C   UNL     1     -11.562   3.046 -34.235  1.00  0.00     0.047 C 
BRANCH  18  19
HETATM   19  C   UNL     1     -11.628   3.319 -32.735  1.00  0.00     0.236 C 
BRANCH  19  20
HETATM   20  N   UNL     1     -12.982   2.982 -32.130  1.00  0.00    -0.075 N 
HETATM   21  H   UNL     1     -12.878   2.028 -31.760  1.00  0.00     0.279 HD
HETATM   22  C   UNL     1     -13.304   3.823 -30.920  1.00  0.00     0.269 C 
BRANCH  20  23
HETATM   23  C   UNL     1     -14.152   2.932 -33.091  1.00  0.00     0.234 C 
BRANCH  23  24
HETATM   24  C   UNL     1     -14.913   1.608 -33.043  1.00  0.00     0.027 C 
BRANCH  24  25
HETATM   25  C   UNL     1     -14.501   0.624 -34.138  1.00  0.00    -0.003 C 
HETATM   26  C   UNL     1     -13.556  -0.442 -33.602  1.00  0.00     0.005 C 
ENDBRANCH  24  25
ENDBRANCH  23  24
ENDBRANCH  20  23
ENDBRANCH  19  20
ENDBRANCH  18  19
ENDBRANCH  17  18
ENDBRANCH  14  17
ENDBRANCH   1  13
BRANCH   1  27
HETATM   27  O   UNL     1      -6.695   1.693 -34.719  1.00  0.00    -0.359 OA
HETATM   28  H   UNL     1      -7.102   2.492 -35.098  1.00  0.00     0.213 HD
ENDBRANCH   1  27
BRANCH   2  29
HETATM   29  C   UNL     1      -6.132  -0.720 -33.360  1.00  0.00     0.042 A 
HETATM   30  C   UNL     1      -4.804  -1.132 -33.551  1.00  0.00     0.030 A 
HETATM   31  C   UNL     1      -4.500  -2.327 -34.215  1.00  0.00     0.002 A 
HETATM   32  C   UNL     1      -5.518  -3.143 -34.694  1.00  0.00     0.000 A 
HETATM   33  C   UNL     1      -6.841  -2.765 -34.506  1.00  0.00     0.002 A 
HETATM   34  C   UNL     1      -7.142  -1.568 -33.848  1.00  0.00     0.030 A 
ENDBRANCH   2  29
TORSDOF 10
ENDMDL
MODEL 5
REMARK VINA RESULT:      -6.7      2.324      7.424
REMARK  10 active torsions:
REMARK  status: ('A' for Active; 'I' for Inactive)
REMARK    1  A    between atoms: C_2  and  C_3 
REMARK    2  A    between atoms: C_3  and  C_4 
REMARK    3  A    between atoms: C_4  and  N_5 
REMARK    4  A    between atoms: N_5  and  C_7 
REMARK    5  A    between atoms: C_7  and  C_8 
REMARK    6  A    between atoms: C_8  and  C_9 
REMARK    7  A    between atoms: C_9  and  N_10 
REMARK       I    between atoms: N_10  and  C_11 
REMARK    8  A    between atoms: C_11  and  C_12 
REMARK    9  A    between atoms: C_12  and  O_13 
REMARK   10  A    between atoms: N_14  and  C_15 
ROOT
HETATM    1  C   UNL     1      -5.973   0.630 -32.258  1.00  0.00     0.256 C 
HETATM    2  N   UNL     1      -6.414   0.100 -33.562  1.00  0.00    -0.254 N 
HETATM    3  C   UNL     1      -6.953   0.996 -34.480  1.00  0.00     0.330 C 
HETATM    4  O   UNL     1      -6.905   0.868 -35.706  1.00  0.00    -0.246 OA
HETATM    5  N   UNL     1      -7.524   2.133 -33.993  1.00  0.00    -0.308 N 
HETATM    6  C   UNL     1      -7.607   2.474 -32.653  1.00  0.00     0.048 A 
HETATM    7  C   UNL     1      -6.877   1.731 -31.732  1.00  0.00     0.034 A 
HETATM    8  C   UNL     1      -8.396   3.556 -32.258  1.00  0.00     0.030 A 
HETATM    9  C   UNL     1      -8.469   3.899 -30.910  1.00  0.00     0.002 A 
HETATM   10  C   UNL     1      -7.748   3.170 -29.969  1.00  0.00     0.001 A 
HETATM   11  C   UNL     1      -6.952   2.097 -30.377  1.00  0.00     0.015 A 
HETATM   12  H   UNL     1      -8.022   2.685 -34.682  1.00  0.00     0.170 HD
ENDROOT
BRANCH   1  13
HETATM   13  C   UNL     1      -4.490   1.199 -32.379  1.00  0.00     0.279 C 
HETATM   14  N   UNL     1      -4.356   2.576 -32.530  1.00  0.00    -0.356 N 
HETATM   15  H   UNL     1      -5.165   3.022 -32.958  1.00  0.00     0.162 HD
HETATM   16  O   UNL     1      -3.508   0.457 -32.321  1.00  0.00    -0.268 OA
BRANCH  14  17
HETATM   17  C   UNL     1      -3.055   3.156 -32.784  1.00  0.00     0.124 C 
BRANCH  17  18
HETATM   18  C   UNL     1      -2.611   4.067 -31.644  1.00  0.00     0.047 C 
BRANCH  18  19
HETATM   19  C   UNL     1      -1.366   4.864 -32.024  1.00  0.00     0.236 C 
BRANCH  19  20
HETATM   20  N   UNL     1      -1.217   6.149 -31.225  1.00  0.00    -0.075 N 
HETATM   21  H   UNL     1      -1.168   6.897 -31.929  1.00  0.00     0.279 HD
HETATM   22  C   UNL     1      -2.446   6.475 -30.414  1.00  0.00     0.269 C 
BRANCH  20  23
HETATM   23  C   UNL     1       0.041   6.278 -30.391  1.00  0.00     0.234 C 
BRANCH  23  24
HETATM   24  C   UNL     1       0.014   7.477 -29.444  1.00  0.00     0.027 C 
BRANCH  24  25
HETATM   25  C   UNL     1       0.807   7.259 -28.155  1.00  0.00    -0.003 C 
HETATM   26  C   UNL     1      -0.002   6.479 -27.129  1.00  0.00     0.005 C 
ENDBRANCH  24  25
ENDBRANCH  23  24
ENDBRANCH  20  23
ENDBRANCH  19  20
ENDBRANCH  18  19
ENDBRANCH  17  18
ENDBRANCH  14  17
ENDBRANCH   1  13
BRANCH   1  27
HETATM   27  O   UNL     1      -6.008  -0.414 -31.284  1.00  0.00    -0.359 OA
HETATM   28  H   UNL     1      -6.942  -0.513 -31.031  1.00  0.00     0.213 HD
ENDBRANCH   1  27
BRANCH   2  29
HETATM   29  C   UNL     1      -6.065  -1.240 -33.986  1.00  0.00     0.042 A 
HETATM   30  C   UNL     1      -4.739  -1.668 -34.149  1.00  0.00     0.030 A 
HETATM   31  C   UNL     1      -4.439  -2.973 -34.560  1.00  0.00     0.002 A 
HETATM   32  C   UNL     1      -5.460  -3.883 -34.808  1.00  0.00     0.000 A 
HETATM   33  C   UNL     1      -6.781  -3.489 -34.642  1.00  0.00     0.002 A 
HETATM   34  C   UNL     1      -7.078  -2.184 -34.237  1.00  0.00     0.030 A 
ENDBRANCH   2  29
TORSDOF 10
ENDMDL
MODEL 6
REMARK VINA RESULT:      -6.7      2.286      5.474
REMARK  10 active torsions:
REMARK  status: ('A' for Active; 'I' for Inactive)
REMARK    1  A    between atoms: C_2  and  C_3 
REMARK    2  A    between atoms: C_3  and  C_4 
REMARK    3  A    between atoms: C_4  and  N_5 
REMARK    4  A    between atoms: N_5  and  C_7 
REMARK    5  A    between atoms: C_7  and  C_8 
REMARK    6  A    between atoms: C_8  and  C_9 
REMARK    7  A    between atoms: C_9  and  N_10 
REMARK       I    between atoms: N_10  and  C_11 
REMARK    8  A    between atoms: C_11  and  C_12 
REMARK    9  A    between atoms: C_12  and  O_13 
REMARK   10  A    between atoms: N_14  and  C_15 
ROOT
HETATM    1  C   UNL     1      -6.463   1.022 -33.719  1.00  0.00     0.256 C 
HETATM    2  N   UNL     1      -5.571  -0.067 -33.279  1.00  0.00    -0.254 N 
HETATM    3  C   UNL     1      -4.819   0.133 -32.125  1.00  0.00     0.330 C 
HETATM    4  O   UNL     1      -4.441  -0.759 -31.362  1.00  0.00    -0.246 OA
HETATM    5  N   UNL     1      -4.528   1.418 -31.775  1.00  0.00    -0.308 N 
HETATM    6  C   UNL     1      -4.927   2.546 -32.475  1.00  0.00     0.048 A 
HETATM    7  C   UNL     1      -5.870   2.401 -33.486  1.00  0.00     0.034 A 
HETATM    8  C   UNL     1      -4.396   3.794 -32.143  1.00  0.00     0.030 A 
HETATM    9  C   UNL     1      -4.807   4.925 -32.844  1.00  0.00     0.002 A 
HETATM   10  C   UNL     1      -5.749   4.805 -33.861  1.00  0.00     0.001 A 
HETATM   11  C   UNL     1      -6.283   3.553 -34.177  1.00  0.00     0.015 A 
HETATM   12  H   UNL     1      -3.868   1.510 -31.012  1.00  0.00     0.170 HD
ENDROOT
BRANCH   1  13
HETATM   13  C   UNL     1      -7.854   0.927 -32.950  1.00  0.00     0.279 C 
HETATM   14  N   UNL     1      -9.008   1.053 -33.718  1.00  0.00    -0.356 N 
HETATM   15  H   UNL     1      -8.875   1.591 -34.572  1.00  0.00     0.162 HD
HETATM   16  O   UNL     1      -7.906   0.730 -31.734  1.00  0.00    -0.268 OA
BRANCH  14  17
HETATM   17  C   UNL     1     -10.304   1.115 -33.079  1.00  0.00     0.124 C 
BRANCH  17  18
HETATM   18  C   UNL     1     -10.667   2.541 -32.676  1.00  0.00     0.047 C 
BRANCH  18  19
HETATM   19  C   UNL     1     -12.083   2.900 -33.121  1.00  0.00     0.236 C 
BRANCH  19  20
HETATM   20  N   UNL     1     -12.426   2.355 -34.498  1.00  0.00    -0.075 N 
HETATM   21  H   UNL     1     -11.756   1.591 -34.658  1.00  0.00     0.279 HD
HETATM   22  C   UNL     1     -13.777   1.684 -34.538  1.00  0.00     0.269 C 
BRANCH  20  23
HETATM   23  C   UNL     1     -12.254   3.311 -35.661  1.00  0.00     0.234 C 
BRANCH  23  24
HETATM   24  C   UNL     1     -12.789   4.712 -35.370  1.00  0.00     0.027 C 
BRANCH  24  25
HETATM   25  C   UNL     1     -11.692   5.761 -35.186  1.00  0.00    -0.003 C 
HETATM   26  C   UNL     1     -10.313   5.179 -35.459  1.00  0.00     0.005 C 
ENDBRANCH  24  25
ENDBRANCH  23  24
ENDBRANCH  20  23
ENDBRANCH  19  20
ENDBRANCH  18  19
ENDBRANCH  17  18
ENDBRANCH  14  17
ENDBRANCH   1  13
BRANCH   1  27
HETATM   27  O   UNL     1      -6.684   0.916 -35.126  1.00  0.00    -0.359 OA
HETATM   28  H   UNL     1      -7.599   0.600 -35.230  1.00  0.00     0.213 HD
ENDBRANCH   1  27
BRANCH   2  29
HETATM   29  C   UNL     1      -5.660  -1.392 -33.856  1.00  0.00     0.042 A 
HETATM   30  C   UNL     1      -6.881  -2.047 -34.081  1.00  0.00     0.030 A 
HETATM   31  C   UNL     1      -6.929  -3.328 -34.643  1.00  0.00     0.002 A 
HETATM   32  C   UNL     1      -5.755  -3.981 -35.004  1.00  0.00     0.000 A 
HETATM   33  C   UNL     1      -4.535  -3.351 -34.804  1.00  0.00     0.002 A 
HETATM   34  C   UNL     1      -4.489  -2.073 -34.237  1.00  0.00     0.030 A 
ENDBRANCH   2  29
TORSDOF 10
ENDMDL
MODEL 7
REMARK VINA RESULT:      -6.7      1.991      5.195
REMARK  10 active torsions:
REMARK  status: ('A' for Active; 'I' for Inactive)
REMARK    1  A    between atoms: C_2  and  C_3 
REMARK    2  A    between atoms: C_3  and  C_4 
REMARK    3  A    between atoms: C_4  and  N_5 
REMARK    4  A    between atoms: N_5  and  C_7 
REMARK    5  A    between atoms: C_7  and  C_8 
REMARK    6  A    between atoms: C_8  and  C_9 
REMARK    7  A    between atoms: C_9  and  N_10 
REMARK       I    between atoms: N_10  and  C_11 
REMARK    8  A    between atoms: C_11  and  C_12 
REMARK    9  A    between atoms: C_12  and  O_13 
REMARK   10  A    between atoms: N_14  and  C_15 
ROOT
HETATM    1  C   UNL     1      -5.603   1.438 -32.894  1.00  0.00     0.256 C 
HETATM    2  N   UNL     1      -4.840   0.178 -32.803  1.00  0.00    -0.254 N 
HETATM    3  C   UNL     1      -3.846   0.088 -31.833  1.00  0.00     0.330 C 
HETATM    4  O   UNL     1      -3.479  -0.957 -31.290  1.00  0.00    -0.246 OA
HETATM    5  N   UNL     1      -3.274   1.248 -31.404  1.00  0.00    -0.308 N 
HETATM    6  C   UNL     1      -3.608   2.516 -31.852  1.00  0.00     0.048 A 
HETATM    7  C   UNL     1      -4.747   2.666 -32.634  1.00  0.00     0.034 A 
HETATM    8  C   UNL     1      -2.815   3.610 -31.499  1.00  0.00     0.030 A 
HETATM    9  C   UNL     1      -3.159   4.883 -31.946  1.00  0.00     0.002 A 
HETATM   10  C   UNL     1      -4.296   5.058 -32.731  1.00  0.00     0.001 A 
HETATM   11  C   UNL     1      -5.089   3.958 -33.068  1.00  0.00     0.015 A 
HETATM   12  H   UNL     1      -2.467   1.126 -30.804  1.00  0.00     0.170 HD
ENDROOT
BRANCH   1  13
HETATM   13  C   UNL     1      -6.803   1.419 -31.848  1.00  0.00     0.279 C 
HETATM   14  N   UNL     1      -8.076   1.678 -32.347  1.00  0.00    -0.356 N 
HETATM   15  H   UNL     1      -8.077   2.245 -33.194  1.00  0.00     0.162 HD
HETATM   16  O   UNL     1      -6.616   1.167 -30.656  1.00  0.00    -0.268 OA
BRANCH  14  17
HETATM   17  C   UNL     1      -9.198   1.816 -31.444  1.00  0.00     0.124 C 
BRANCH  17  18
HETATM   18  C   UNL     1      -9.601   3.276 -31.263  1.00  0.00     0.047 C 
BRANCH  18  19
HETATM   19  C   UNL     1     -10.537   3.735 -32.379  1.00  0.00     0.236 C 
BRANCH  19  20
HETATM   20  N   UNL     1     -11.691   2.774 -32.617  1.00  0.00    -0.075 N 
HETATM   21  H   UNL     1     -11.606   2.067 -31.876  1.00  0.00     0.279 HD
HETATM   22  C   UNL     1     -13.037   3.412 -32.378  1.00  0.00     0.269 C 
BRANCH  20  23
HETATM   23  C   UNL     1     -11.670   2.011 -33.926  1.00  0.00     0.234 C 
BRANCH  23  24
HETATM   24  C   UNL     1     -13.035   1.955 -34.611  1.00  0.00     0.027 C 
BRANCH  24  25
HETATM   25  C   UNL     1     -13.682   0.570 -34.576  1.00  0.00    -0.003 C 
HETATM   26  C   UNL     1     -15.177   0.660 -34.307  1.00  0.00     0.005 C 
ENDBRANCH  24  25
ENDBRANCH  23  24
ENDBRANCH  20  23
ENDBRANCH  19  20
ENDBRANCH  18  19
ENDBRANCH  17  18
ENDBRANCH  14  17
ENDBRANCH   1  13
BRANCH   1  27
HETATM   27  O   UNL     1      -6.120   1.584 -34.217  1.00  0.00    -0.359 OA
HETATM   28  H   UNL     1      -5.718   0.870 -34.743  1.00  0.00     0.213 HD
ENDBRANCH   1  27
BRANCH   2  29
HETATM   29  C   UNL     1      -5.270  -1.014 -33.503  1.00  0.00     0.042 A 
HETATM   30  C   UNL     1      -4.376  -1.885 -34.146  1.00  0.00     0.030 A 
HETATM   31  C   UNL     1      -4.828  -3.031 -34.813  1.00  0.00     0.002 A 
HETATM   32  C   UNL     1      -6.183  -3.338 -34.843  1.00  0.00     0.000 A 
HETATM   33  C   UNL     1      -7.087  -2.500 -34.204  1.00  0.00     0.002 A 
HETATM   34  C   UNL     1      -6.635  -1.353 -33.543  1.00  0.00     0.030 A 
ENDBRANCH   2  29
TORSDOF 10
ENDMDL
MODEL 8
REMARK VINA RESULT:      -6.6     16.593     18.608
REMARK  10 active torsions:
REMARK  status: ('A' for Active; 'I' for Inactive)
REMARK    1  A    between atoms: C_2  and  C_3 
REMARK    2  A    between atoms: C_3  and  C_4 
REMARK    3  A    between atoms: C_4  and  N_5 
REMARK    4  A    between atoms: N_5  and  C_7 
REMARK    5  A    between atoms: C_7  and  C_8 
REMARK    6  A    between atoms: C_8  and  C_9 
REMARK    7  A    between atoms: C_9  and  N_10 
REMARK       I    between atoms: N_10  and  C_11 
REMARK    8  A    between atoms: C_11  and  C_12 
REMARK    9  A    between atoms: C_12  and  O_13 
REMARK   10  A    between atoms: N_14  and  C_15 
ROOT
HETATM    1  C   UNL     1      -5.306 -13.405 -38.299  1.00  0.00     0.256 C 
HETATM    2  N   UNL     1      -6.131 -13.747 -39.473  1.00  0.00    -0.254 N 
HETATM    3  C   UNL     1      -5.606 -14.644 -40.399  1.00  0.00     0.330 C 
HETATM    4  O   UNL     1      -6.273 -15.398 -41.112  1.00  0.00    -0.246 OA
HETATM    5  N   UNL     1      -4.250 -14.744 -40.484  1.00  0.00    -0.308 N 
HETATM    6  C   UNL     1      -3.347 -14.026 -39.716  1.00  0.00     0.048 A 
HETATM    7  C   UNL     1      -3.826 -13.306 -38.628  1.00  0.00     0.034 A 
HETATM    8  C   UNL     1      -1.987 -14.053 -40.033  1.00  0.00     0.030 A 
HETATM    9  C   UNL     1      -1.084 -13.336 -39.253  1.00  0.00     0.002 A 
HETATM   10  C   UNL     1      -1.539 -12.607 -38.158  1.00  0.00     0.001 A 
HETATM   11  C   UNL     1      -2.900 -12.597 -37.843  1.00  0.00     0.015 A 
HETATM   12  H   UNL     1      -3.914 -15.302 -41.260  1.00  0.00     0.170 HD
ENDROOT
BRANCH   1  13
HETATM   13  C   UNL     1      -5.505 -14.500 -37.160  1.00  0.00     0.279 C 
HETATM   14  N   UNL     1      -6.076 -14.069 -35.967  1.00  0.00    -0.356 N 
HETATM   15  H   UNL     1      -5.927 -13.080 -35.775  1.00  0.00     0.162 HD
HETATM   16  O   UNL     1      -5.188 -15.678 -37.336  1.00  0.00    -0.268 OA
BRANCH  14  17
HETATM   17  C   UNL     1      -6.165 -14.967 -34.837  1.00  0.00     0.124 C 
BRANCH  17  18
HETATM   18  C   UNL     1      -5.298 -14.498 -33.672  1.00  0.00     0.047 C 
BRANCH  18  19
HETATM   19  C   UNL     1      -4.672 -15.679 -32.936  1.00  0.00     0.236 C 
BRANCH  19  20
HETATM   20  N   UNL     1      -3.176 -15.802 -33.176  1.00  0.00    -0.075 N 
HETATM   21  H   UNL     1      -2.824 -14.836 -33.167  1.00  0.00     0.279 HD
HETATM   22  C   UNL     1      -2.456 -16.474 -32.033  1.00  0.00     0.269 C 
BRANCH  20  23
HETATM   23  C   UNL     1      -2.755 -16.387 -34.509  1.00  0.00     0.234 C 
BRANCH  23  24
HETATM   24  C   UNL     1      -2.243 -15.336 -35.491  1.00  0.00     0.027 C 
BRANCH  24  25
HETATM   25  C   UNL     1      -0.731 -15.117 -35.423  1.00  0.00    -0.003 C 
HETATM   26  C   UNL     1      -0.024 -15.739 -36.618  1.00  0.00     0.005 C 
ENDBRANCH  24  25
ENDBRANCH  23  24
ENDBRANCH  20  23
ENDBRANCH  19  20
ENDBRANCH  18  19
ENDBRANCH  17  18
ENDBRANCH  14  17
ENDBRANCH   1  13
BRANCH   1  27
HETATM   27  O   UNL     1      -5.692 -12.122 -37.805  1.00  0.00    -0.359 OA
HETATM   28  H   UNL     1      -6.119 -11.666 -38.551  1.00  0.00     0.213 HD
ENDBRANCH   1  27
BRANCH   2  29
HETATM   29  C   UNL     1      -7.531 -13.384 -39.540  1.00  0.00     0.042 A 
HETATM   30  C   UNL     1      -8.009 -12.331 -40.335  1.00  0.00     0.030 A 
HETATM   31  C   UNL     1      -9.371 -12.008 -40.377  1.00  0.00     0.002 A 
HETATM   32  C   UNL     1     -10.289 -12.740 -39.632  1.00  0.00     0.000 A 
HETATM   33  C   UNL     1      -9.844 -13.795 -38.847  1.00  0.00     0.002 A 
HETATM   34  C   UNL     1      -8.483 -14.112 -38.803  1.00  0.00     0.030 A 
ENDBRANCH   2  29
TORSDOF 10
ENDMDL
MODEL 9
REMARK VINA RESULT:      -6.6     16.232     18.240
REMARK  10 active torsions:
REMARK  status: ('A' for Active; 'I' for Inactive)
REMARK    1  A    between atoms: C_2  and  C_3 
REMARK    2  A    between atoms: C_3  and  C_4 
REMARK    3  A    between atoms: C_4  and  N_5 
REMARK    4  A    between atoms: N_5  and  C_7 
REMARK    5  A    between atoms: C_7  and  C_8 
REMARK    6  A    between atoms: C_8  and  C_9 
REMARK    7  A    between atoms: C_9  and  N_10 
REMARK       I    between atoms: N_10  and  C_11 
REMARK    8  A    between atoms: C_11  and  C_12 
REMARK    9  A    between atoms: C_12  and  O_13 
REMARK   10  A    between atoms: N_14  and  C_15 
ROOT
HETATM    1  C   UNL     1      -4.284 -14.744 -37.832  1.00  0.00     0.256 C 
HETATM    2  N   UNL     1      -3.425 -13.719 -38.454  1.00  0.00    -0.254 N 
HETATM    3  C   UNL     1      -3.812 -12.387 -38.336  1.00  0.00     0.330 C 
HETATM    4  O   UNL     1      -3.041 -11.424 -38.330  1.00  0.00    -0.246 OA
HETATM    5  N   UNL     1      -5.137 -12.127 -38.151  1.00  0.00    -0.308 N 
HETATM    6  C   UNL     1      -6.134 -13.085 -38.066  1.00  0.00     0.048 A 
HETATM    7  C   UNL     1      -5.764 -14.419 -37.940  1.00  0.00     0.034 A 
HETATM    8  C   UNL     1      -7.475 -12.697 -38.087  1.00  0.00     0.030 A 
HETATM    9  C   UNL     1      -8.473 -13.664 -37.993  1.00  0.00     0.002 A 
HETATM   10  C   UNL     1      -8.127 -15.007 -37.867  1.00  0.00     0.001 A 
HETATM   11  C   UNL     1      -6.782 -15.382 -37.834  1.00  0.00     0.015 A 
HETATM   12  H   UNL     1      -5.388 -11.147 -38.209  1.00  0.00     0.170 HD
ENDROOT
BRANCH   1  13
HETATM   13  C   UNL     1      -3.906 -14.905 -36.294  1.00  0.00     0.279 C 
HETATM   14  N   UNL     1      -3.571 -16.183 -35.858  1.00  0.00    -0.356 N 
HETATM   15  H   UNL     1      -3.987 -16.928 -36.415  1.00  0.00     0.162 HD
HETATM   16  O   UNL     1      -3.891 -13.938 -35.529  1.00  0.00    -0.268 OA
BRANCH  14  17
HETATM   17  C   UNL     1      -3.350 -16.438 -34.451  1.00  0.00     0.124 C 
BRANCH  17  18
HETATM   18  C   UNL     1      -4.391 -17.396 -33.880  1.00  0.00     0.047 C 
BRANCH  18  19
HETATM   19  C   UNL     1      -4.429 -17.329 -32.356  1.00  0.00     0.236 C 
BRANCH  19  20
HETATM   20  N   UNL     1      -5.493 -16.379 -31.830  1.00  0.00    -0.075 N 
HETATM   21  H   UNL     1      -6.179 -16.299 -32.592  1.00  0.00     0.279 HD
HETATM   22  C   UNL     1      -6.275 -16.962 -30.679  1.00  0.00     0.269 C 
BRANCH  20  23
HETATM   23  C   UNL     1      -5.040 -14.966 -31.526  1.00  0.00     0.234 C 
BRANCH  23  24
HETATM   24  C   UNL     1      -5.669 -13.922 -32.447  1.00  0.00     0.027 C 
BRANCH  24  25
HETATM   25  C   UNL     1      -6.706 -14.501 -33.411  1.00  0.00    -0.003 C 
HETATM   26  C   UNL     1      -7.112 -13.484 -34.468  1.00  0.00     0.005 C 
ENDBRANCH  24  25
ENDBRANCH  23  24
ENDBRANCH  20  23
ENDBRANCH  19  20
ENDBRANCH  18  19
ENDBRANCH  17  18
ENDBRANCH  14  17
ENDBRANCH   1  13
BRANCH   1  27
HETATM   27  O   UNL     1      -4.098 -15.990 -38.504  1.00  0.00    -0.359 OA
HETATM   28  H   UNL     1      -4.988 -16.367 -38.620  1.00  0.00     0.213 HD
ENDBRANCH   1  27
BRANCH   2  29
HETATM   29  C   UNL     1      -2.100 -14.041 -38.940  1.00  0.00     0.042 A 
HETATM   30  C   UNL     1      -1.798 -14.175 -40.304  1.00  0.00     0.030 A 
HETATM   31  C   UNL     1      -0.503 -14.486 -40.738  1.00  0.00     0.002 A 
HETATM   32  C   UNL     1       0.523 -14.659 -39.817  1.00  0.00     0.000 A 
HETATM   33  C   UNL     1       0.254 -14.520 -38.462  1.00  0.00     0.002 A 
HETATM   34  C   UNL     1      -1.040 -14.215 -38.031  1.00  0.00     0.030 A 
ENDBRANCH   2  29
TORSDOF 10
ENDMDL
MODEL 10
REMARK VINA RESULT:      -6.4      2.801      5.716
REMARK  10 active torsions:
REMARK  status: ('A' for Active; 'I' for Inactive)
REMARK    1  A    between atoms: C_2  and  C_3 
REMARK    2  A    between atoms: C_3  and  C_4 
REMARK    3  A    between atoms: C_4  and  N_5 
REMARK    4  A    between atoms: N_5  and  C_7 
REMARK    5  A    between atoms: C_7  and  C_8 
REMARK    6  A    between atoms: C_8  and  C_9 
REMARK    7  A    between atoms: C_9  and  N_10 
REMARK       I    between atoms: N_10  and  C_11 
REMARK    8  A    between atoms: C_11  and  C_12 
REMARK    9  A    between atoms: C_12  and  O_13 
REMARK   10  A    between atoms: N_14  and  C_15 
ROOT
HETATM    1  C   UNL     1      -7.542   1.652 -33.144  1.00  0.00     0.256 C 
HETATM    2  N   UNL     1      -6.827   0.553 -32.466  1.00  0.00    -0.254 N 
HETATM    3  C   UNL     1      -6.866   0.511 -31.075  1.00  0.00     0.330 C 
HETATM    4  O   UNL     1      -6.785  -0.514 -30.395  1.00  0.00    -0.246 OA
HETATM    5  N   UNL     1      -7.071   1.685 -30.413  1.00  0.00    -0.308 N 
HETATM    6  C   UNL     1      -7.250   2.920 -31.014  1.00  0.00     0.048 A 
HETATM    7  C   UNL     1      -7.455   2.967 -32.388  1.00  0.00     0.034 A 
HETATM    8  C   UNL     1      -7.241   4.080 -30.237  1.00  0.00     0.030 A 
HETATM    9  C   UNL     1      -7.429   5.318 -30.846  1.00  0.00     0.002 A 
HETATM   10  C   UNL     1      -7.636   5.391 -32.220  1.00  0.00     0.001 A 
HETATM   11  C   UNL     1      -7.655   4.223 -32.986  1.00  0.00     0.015 A 
HETATM   12  H   UNL     1      -6.954   1.629 -29.408  1.00  0.00     0.170 HD
ENDROOT
BRANCH   1  13
HETATM   13  C   UNL     1      -9.076   1.267 -33.326  1.00  0.00     0.279 C 
HETATM   14  N   UNL     1      -9.668   1.600 -34.540  1.00  0.00    -0.356 N 
HETATM   15  H   UNL     1      -9.229   2.391 -35.007  1.00  0.00     0.162 HD
HETATM   16  O   UNL     1      -9.704   0.682 -32.440  1.00  0.00    -0.268 OA
BRANCH  14  17
HETATM   17  C   UNL     1     -11.089   1.409 -34.733  1.00  0.00     0.124 C 
BRANCH  17  18
HETATM   18  C   UNL     1     -11.882   2.661 -34.367  1.00  0.00     0.047 C 
BRANCH  18  19
HETATM   19  C   UNL     1     -12.864   2.383 -33.233  1.00  0.00     0.236 C 
BRANCH  19  20
HETATM   20  N   UNL     1     -12.584   3.211 -31.989  1.00  0.00    -0.075 N 
HETATM   21  H   UNL     1     -12.432   2.523 -31.240  1.00  0.00     0.279 HD
HETATM   22  C   UNL     1     -11.281   3.967 -32.075  1.00  0.00     0.269 C 
BRANCH  20  23
HETATM   23  C   UNL     1     -13.708   4.107 -31.512  1.00  0.00     0.234 C 
BRANCH  23  24
HETATM   24  C   UNL     1     -13.476   4.667 -30.110  1.00  0.00     0.027 C 
BRANCH  24  25
HETATM   25  C   UNL     1     -13.984   6.098 -29.929  1.00  0.00    -0.003 C 
HETATM   26  C   UNL     1     -15.481   6.194 -30.186  1.00  0.00     0.005 C 
ENDBRANCH  24  25
ENDBRANCH  23  24
ENDBRANCH  20  23
ENDBRANCH  19  20
ENDBRANCH  18  19
ENDBRANCH  17  18
ENDBRANCH  14  17
ENDBRANCH   1  13
BRANCH   1  27
HETATM   27  O   UNL     1      -6.950   1.885 -34.422  1.00  0.00    -0.359 OA
HETATM   28  H   UNL     1      -5.995   1.736 -34.307  1.00  0.00     0.213 HD
ENDBRANCH   1  27
BRANCH   2  29
HETATM   29  C   UNL     1      -6.326  -0.587 -33.204  1.00  0.00     0.042 A 
HETATM   30  C   UNL     1      -7.166  -1.498 -33.863  1.00  0.00     0.030 A 
HETATM   31  C   UNL     1      -6.646  -2.590 -34.569  1.00  0.00     0.002 A 
HETATM   32  C   UNL     1      -5.273  -2.790 -34.642  1.00  0.00     0.000 A 
HETATM   33  C   UNL     1      -4.419  -1.896 -34.010  1.00  0.00     0.002 A 
HETATM   34  C   UNL     1      -4.940  -0.810 -33.300  1.00  0.00     0.030 A 
ENDBRANCH   2  29
TORSDOF 10
ENDMDL
