MODEL 1
REMARK VINA RESULT:      -8.8      0.000      0.000
REMARK  4 active torsions:
REMARK  status: ('A' for Active; 'I' for Inactive)
REMARK    1  A    between atoms: C_2  and  C_3 
REMARK    2  A    between atoms: C_8  and  N_9 
REMARK       I    between atoms: N_9  and  C_10 
REMARK       I    between atoms: C_10  and  N_11 
REMARK    3  A    between atoms: N_11  and  C_12 
REMARK    4  A    between atoms: C_12  and  C_13 
ROOT
HETATM    1  N   UNL     1      -2.584   3.327 -32.881  1.00  0.00    -0.305 N 
HETATM    2  C   UNL     1      -3.756   2.723 -32.492  1.00  0.00     0.321 C 
HETATM    3  N   UNL     1      -3.535   1.416 -32.119  1.00  0.00    -0.339 N 
HETATM    4  O   UNL     1      -4.867   3.231 -32.500  1.00  0.00    -0.247 OA
HETATM    5  H   UNL     1      -1.847   2.705 -33.178  1.00  0.00     0.171 HD
HETATM    6  H   UNL     1      -2.612   1.187 -31.784  1.00  0.00     0.164 HD
ENDROOT
BRANCH   3   7
HETATM    7  C   UNL     1      -4.614   0.563 -31.664  1.00  0.00     0.163 C 
BRANCH   7   8
HETATM    8  C   UNL     1      -5.036  -0.403 -32.749  1.00  0.00    -0.029 A 
HETATM    9  C   UNL     1      -4.478  -1.708 -32.875  1.00  0.00    -0.018 A 
HETATM   10  C   UNL     1      -4.931  -2.542 -33.930  1.00  0.00    -0.025 A 
HETATM   11  C   UNL     1      -3.493  -2.235 -32.008  1.00  0.00     0.013 A 
HETATM   12  C   UNL     1      -4.412  -3.840 -34.075  1.00  0.00     0.012 A 
HETATM   13  C   UNL     1      -5.898  -2.073 -34.830  1.00  0.00     0.012 A 
HETATM   14  C   UNL     1      -3.446  -4.330 -33.200  1.00  0.00     0.001 A 
HETATM   15  C   UNL     1      -2.985  -3.526 -32.167  1.00  0.00     0.001 A 
HETATM   16  C   UNL     1      -6.427  -0.792 -34.709  1.00  0.00     0.002 A 
HETATM   17  C   UNL     1      -5.998   0.037 -33.679  1.00  0.00     0.010 A 
ENDBRANCH   7   8
ENDBRANCH   3   7
BRANCH   1  18
HETATM   18  C   UNL     1      -2.422   4.672 -33.183  1.00  0.00     0.095 A 
HETATM   19  C   UNL     1      -1.657   5.530 -32.420  1.00  0.00     0.107 A 
HETATM   20  O   UNL     1      -1.706   6.777 -32.953  1.00  0.00    -0.215 OA
HETATM   21  N   UNL     1      -2.509   6.772 -34.069  1.00  0.00    -0.131 NA
HETATM   22  C   UNL     1      -2.947   5.511 -34.208  1.00  0.00     0.087 A 
HETATM   23  C   UNL     1      -3.891   5.215 -35.311  1.00  0.00     0.075 C 
BRANCH  19  24
HETATM   24  C   UNL     1      -0.813   5.385 -31.210  1.00  0.00     0.065 C 
HETATM   25  C   UNL     1       0.300   6.418 -31.175  1.00  0.00     0.012 C 
ENDBRANCH  19  24
ENDBRANCH   1  18
TORSDOF 4
ENDMDL
MODEL 2
REMARK VINA RESULT:      -8.8      1.863      2.278
REMARK  4 active torsions:
REMARK  status: ('A' for Active; 'I' for Inactive)
REMARK    1  A    between atoms: C_2  and  C_3 
REMARK    2  A    between atoms: C_8  and  N_9 
REMARK       I    between atoms: N_9  and  C_10 
REMARK       I    between atoms: C_10  and  N_11 
REMARK    3  A    between atoms: N_11  and  C_12 
REMARK    4  A    between atoms: C_12  and  C_13 
ROOT
HETATM    1  N   UNL     1      -3.901   5.253 -32.818  1.00  0.00    -0.305 N 
HETATM    2  C   UNL     1      -3.642   3.933 -32.532  1.00  0.00     0.321 C 
HETATM    3  N   UNL     1      -4.806   3.197 -32.514  1.00  0.00    -0.339 N 
HETATM    4  O   UNL     1      -2.548   3.449 -32.284  1.00  0.00    -0.247 OA
HETATM    5  H   UNL     1      -4.841   5.566 -32.627  1.00  0.00     0.171 HD
HETATM    6  H   UNL     1      -5.573   3.541 -33.070  1.00  0.00     0.164 HD
ENDROOT
BRANCH   3   7
HETATM    7  C   UNL     1      -4.800   1.774 -32.239  1.00  0.00     0.163 C 
BRANCH   7   8
HETATM    8  C   UNL     1      -5.669   1.027 -33.227  1.00  0.00    -0.029 A 
HETATM    9  C   UNL     1      -5.424  -0.327 -33.595  1.00  0.00    -0.018 A 
HETATM   10  C   UNL     1      -6.288  -0.944 -34.536  1.00  0.00    -0.025 A 
HETATM   11  C   UNL     1      -4.364  -1.108 -33.077  1.00  0.00     0.013 A 
HETATM   12  C   UNL     1      -6.083  -2.282 -34.911  1.00  0.00     0.012 A 
HETATM   13  C   UNL     1      -7.351  -0.218 -35.093  1.00  0.00     0.012 A 
HETATM   14  C   UNL     1      -5.033  -3.025 -34.377  1.00  0.00     0.001 A 
HETATM   15  C   UNL     1      -4.172  -2.437 -33.462  1.00  0.00     0.001 A 
HETATM   16  C   UNL     1      -7.575   1.109 -34.740  1.00  0.00     0.002 A 
HETATM   17  C   UNL     1      -6.740   1.727 -33.816  1.00  0.00     0.010 A 
ENDBRANCH   7   8
ENDBRANCH   3   7
BRANCH   1  18
HETATM   18  C   UNL     1      -2.952   6.237 -33.051  1.00  0.00     0.095 A 
HETATM   19  C   UNL     1      -2.940   7.447 -32.388  1.00  0.00     0.107 A 
HETATM   20  O   UNL     1      -1.909   8.204 -32.842  1.00  0.00    -0.215 OA
HETATM   21  N   UNL     1      -1.225   7.516 -33.818  1.00  0.00    -0.131 NA
HETATM   22  C   UNL     1      -1.852   6.337 -33.951  1.00  0.00     0.087 A 
HETATM   23  C   UNL     1      -1.362   5.397 -34.988  1.00  0.00     0.075 C 
BRANCH  19  24
HETATM   24  C   UNL     1      -3.762   8.063 -31.318  1.00  0.00     0.065 C 
HETATM   25  C   UNL     1      -3.069   9.265 -30.700  1.00  0.00     0.012 C 
ENDBRANCH  19  24
ENDBRANCH   1  18
TORSDOF 4
ENDMDL
MODEL 3
REMARK VINA RESULT:      -8.7      1.508      2.812
REMARK  4 active torsions:
REMARK  status: ('A' for Active; 'I' for Inactive)
REMARK    1  A    between atoms: C_2  and  C_3 
REMARK    2  A    between atoms: C_8  and  N_9 
REMARK       I    between atoms: N_9  and  C_10 
REMARK       I    between atoms: C_10  and  N_11 
REMARK    3  A    between atoms: N_11  and  C_12 
REMARK    4  A    between atoms: C_12  and  C_13 
ROOT
HETATM    1  N   UNL     1      -2.127   4.577 -31.822  1.00  0.00    -0.305 N 
HETATM    2  C   UNL     1      -3.335   3.928 -31.923  1.00  0.00     0.321 C 
HETATM    3  N   UNL     1      -3.417   2.897 -31.014  1.00  0.00    -0.339 N 
HETATM    4  O   UNL     1      -4.224   4.177 -32.724  1.00  0.00    -0.247 OA
HETATM    5  H   UNL     1      -1.378   4.045 -31.405  1.00  0.00     0.171 HD
HETATM    6  H   UNL     1      -2.858   2.979 -30.179  1.00  0.00     0.164 HD
ENDROOT
BRANCH   3   7
HETATM    7  C   UNL     1      -4.595   2.060 -30.919  1.00  0.00     0.163 C 
BRANCH   7   8
HETATM    8  C   UNL     1      -4.387   0.745 -31.639  1.00  0.00    -0.029 A 
HETATM    9  C   UNL     1      -5.221   0.316 -32.710  1.00  0.00    -0.018 A 
HETATM   10  C   UNL     1      -4.954  -0.937 -33.321  1.00  0.00    -0.025 A 
HETATM   11  C   UNL     1      -6.310   1.065 -33.215  1.00  0.00     0.013 A 
HETATM   12  C   UNL     1      -5.748  -1.385 -34.390  1.00  0.00     0.012 A 
HETATM   13  C   UNL     1      -3.895  -1.731 -32.858  1.00  0.00     0.012 A 
HETATM   14  C   UNL     1      -6.810  -0.619 -34.866  1.00  0.00     0.001 A 
HETATM   15  C   UNL     1      -7.092   0.605 -34.277  1.00  0.00     0.001 A 
HETATM   16  C   UNL     1      -3.094  -1.311 -31.800  1.00  0.00     0.002 A 
HETATM   17  C   UNL     1      -3.339  -0.085 -31.194  1.00  0.00     0.010 A 
ENDBRANCH   7   8
ENDBRANCH   3   7
BRANCH   1  18
HETATM   18  C   UNL     1      -1.770   5.740 -32.488  1.00  0.00     0.095 A 
HETATM   19  C   UNL     1      -1.564   6.945 -31.845  1.00  0.00     0.107 A 
HETATM   20  O   UNL     1      -1.246   7.897 -32.758  1.00  0.00    -0.215 OA
HETATM   21  N   UNL     1      -1.246   7.348 -34.019  1.00  0.00    -0.131 NA
HETATM   22  C   UNL     1      -1.566   6.055 -33.862  1.00  0.00     0.087 A 
HETATM   23  C   UNL     1      -1.699   5.215 -35.076  1.00  0.00     0.075 C 
BRANCH  19  24
HETATM   24  C   UNL     1      -1.590   7.396 -30.433  1.00  0.00     0.065 C 
HETATM   25  C   UNL     1      -0.224   7.281 -29.781  1.00  0.00     0.012 C 
ENDBRANCH  19  24
ENDBRANCH   1  18
TORSDOF 4
ENDMDL
MODEL 4
REMARK VINA RESULT:      -8.6      1.509      3.443
REMARK  4 active torsions:
REMARK  status: ('A' for Active; 'I' for Inactive)
REMARK    1  A    between atoms: C_2  and  C_3 
REMARK    2  A    between atoms: C_8  and  N_9 
REMARK       I    between atoms: N_9  and  C_10 
REMARK       I    between atoms: C_10  and  N_11 
REMARK    3  A    between atoms: N_11  and  C_12 
REMARK    4  A    between atoms: C_12  and  C_13 
ROOT
HETATM    1  N   UNL     1      -2.137   4.640 -31.909  1.00  0.00    -0.305 N 
HETATM    2  C   UNL     1      -3.362   4.032 -31.774  1.00  0.00     0.321 C 
HETATM    3  N   UNL     1      -3.246   2.837 -31.101  1.00  0.00    -0.339 N 
HETATM    4  O   UNL     1      -4.425   4.445 -32.213  1.00  0.00    -0.247 OA
HETATM    5  H   UNL     1      -1.335   4.031 -31.844  1.00  0.00     0.171 HD
HETATM    6  H   UNL     1      -2.467   2.743 -30.468  1.00  0.00     0.164 HD
ENDROOT
BRANCH   3   7
HETATM    7  C   UNL     1      -4.399   2.003 -30.828  1.00  0.00     0.163 C 
BRANCH   7   8
HETATM    8  C   UNL     1      -4.328   0.707 -31.605  1.00  0.00    -0.029 A 
HETATM    9  C   UNL     1      -5.196   0.418 -32.697  1.00  0.00    -0.018 A 
HETATM   10  C   UNL     1      -5.060  -0.828 -33.362  1.00  0.00    -0.025 A 
HETATM   11  C   UNL     1      -6.194   1.301 -33.170  1.00  0.00     0.013 A 
HETATM   12  C   UNL     1      -5.890  -1.141 -34.452  1.00  0.00     0.012 A 
HETATM   13  C   UNL     1      -4.096  -1.752 -32.933  1.00  0.00     0.012 A 
HETATM   14  C   UNL     1      -6.860  -0.245 -34.896  1.00  0.00     0.001 A 
HETATM   15  C   UNL     1      -7.014   0.975 -34.254  1.00  0.00     0.001 A 
HETATM   16  C   UNL     1      -3.262  -1.468 -31.856  1.00  0.00     0.002 A 
HETATM   17  C   UNL     1      -3.379  -0.250 -31.196  1.00  0.00     0.010 A 
ENDBRANCH   7   8
ENDBRANCH   3   7
BRANCH   1  18
HETATM   18  C   UNL     1      -1.911   5.915 -32.410  1.00  0.00     0.095 A 
HETATM   19  C   UNL     1      -1.893   6.204 -33.759  1.00  0.00     0.107 A 
HETATM   20  O   UNL     1      -1.631   7.524 -33.937  1.00  0.00    -0.215 OA
HETATM   21  N   UNL     1      -1.459   8.130 -32.714  1.00  0.00    -0.131 NA
HETATM   22  C   UNL     1      -1.620   7.167 -31.794  1.00  0.00     0.087 A 
HETATM   23  C   UNL     1      -1.433   7.522 -30.367  1.00  0.00     0.075 C 
BRANCH  19  24
HETATM   24  C   UNL     1      -2.113   5.424 -35.000  1.00  0.00     0.065 C 
HETATM   25  C   UNL     1      -3.590   5.283 -35.321  1.00  0.00     0.012 C 
ENDBRANCH  19  24
ENDBRANCH   1  18
TORSDOF 4
ENDMDL
MODEL 5
REMARK VINA RESULT:      -8.4      1.516      2.062
REMARK  4 active torsions:
REMARK  status: ('A' for Active; 'I' for Inactive)
REMARK    1  A    between atoms: C_2  and  C_3 
REMARK    2  A    between atoms: C_8  and  N_9 
REMARK       I    between atoms: N_9  and  C_10 
REMARK       I    between atoms: C_10  and  N_11 
REMARK    3  A    between atoms: N_11  and  C_12 
REMARK    4  A    between atoms: C_12  and  C_13 
ROOT
HETATM    1  N   UNL     1      -4.506   4.084 -32.337  1.00  0.00    -0.305 N 
HETATM    2  C   UNL     1      -3.939   2.899 -31.933  1.00  0.00     0.321 C 
HETATM    3  N   UNL     1      -4.777   1.839 -32.192  1.00  0.00    -0.339 N 
HETATM    4  O   UNL     1      -2.857   2.768 -31.379  1.00  0.00    -0.247 OA
HETATM    5  H   UNL     1      -5.511   4.083 -32.418  1.00  0.00     0.171 HD
HETATM    6  H   UNL     1      -5.435   1.951 -32.948  1.00  0.00     0.164 HD
ENDROOT
BRANCH   3   7
HETATM    7  C   UNL     1      -4.407   0.478 -31.860  1.00  0.00     0.163 C 
BRANCH   7   8
HETATM    8  C   UNL     1      -4.917  -0.493 -32.903  1.00  0.00    -0.029 A 
HETATM    9  C   UNL     1      -4.425  -1.825 -33.018  1.00  0.00    -0.018 A 
HETATM   10  C   UNL     1      -4.958  -2.661 -34.033  1.00  0.00    -0.025 A 
HETATM   11  C   UNL     1      -3.431  -2.377 -32.177  1.00  0.00     0.013 A 
HETATM   12  C   UNL     1      -4.506  -3.985 -34.166  1.00  0.00     0.012 A 
HETATM   13  C   UNL     1      -5.939  -2.169 -34.906  1.00  0.00     0.012 A 
HETATM   14  C   UNL     1      -3.529  -4.499 -33.317  1.00  0.00     0.001 A 
HETATM   15  C   UNL     1      -2.990  -3.694 -32.323  1.00  0.00     0.001 A 
HETATM   16  C   UNL     1      -6.403  -0.861 -34.796  1.00  0.00     0.002 A 
HETATM   17  C   UNL     1      -5.894  -0.030 -33.805  1.00  0.00     0.010 A 
ENDBRANCH   7   8
ENDBRANCH   3   7
BRANCH   1  18
HETATM   18  C   UNL     1      -3.881   5.323 -32.352  1.00  0.00     0.095 A 
HETATM   19  C   UNL     1      -3.090   5.757 -33.397  1.00  0.00     0.107 A 
HETATM   20  O   UNL     1      -2.605   6.993 -33.117  1.00  0.00    -0.215 OA
HETATM   21  N   UNL     1      -3.054   7.396 -31.880  1.00  0.00    -0.131 NA
HETATM   22  C   UNL     1      -3.815   6.394 -31.415  1.00  0.00     0.087 A 
HETATM   23  C   UNL     1      -4.395   6.527 -30.057  1.00  0.00     0.075 C 
BRANCH  19  24
HETATM   24  C   UNL     1      -2.693   5.198 -34.712  1.00  0.00     0.065 C 
HETATM   25  C   UNL     1      -1.201   5.341 -34.956  1.00  0.00     0.012 C 
ENDBRANCH  19  24
ENDBRANCH   1  18
TORSDOF 4
ENDMDL
MODEL 6
REMARK VINA RESULT:      -8.3      1.619      2.947
REMARK  4 active torsions:
REMARK  status: ('A' for Active; 'I' for Inactive)
REMARK    1  A    between atoms: C_2  and  C_3 
REMARK    2  A    between atoms: C_8  and  N_9 
REMARK       I    between atoms: N_9  and  C_10 
REMARK       I    between atoms: C_10  and  N_11 
REMARK    3  A    between atoms: N_11  and  C_12 
REMARK    4  A    between atoms: C_12  and  C_13 
ROOT
HETATM    1  N   UNL     1      -3.796   3.877 -31.009  1.00  0.00    -0.305 N 
HETATM    2  C   UNL     1      -3.723   2.555 -31.378  1.00  0.00     0.321 C 
HETATM    3  N   UNL     1      -4.565   1.783 -30.610  1.00  0.00    -0.339 N 
HETATM    4  O   UNL     1      -2.993   2.085 -32.238  1.00  0.00    -0.247 OA
HETATM    5  H   UNL     1      -4.133   4.053 -30.074  1.00  0.00     0.171 HD
HETATM    6  H   UNL     1      -5.370   2.241 -30.213  1.00  0.00     0.164 HD
ENDROOT
BRANCH   3   7
HETATM    7  C   UNL     1      -4.672   0.351 -30.805  1.00  0.00     0.163 C 
BRANCH   7   8
HETATM    8  C   UNL     1      -5.831   0.014 -31.718  1.00  0.00    -0.029 A 
HETATM    9  C   UNL     1      -5.716  -0.912 -32.794  1.00  0.00    -0.018 A 
HETATM   10  C   UNL     1      -6.856  -1.160 -33.603  1.00  0.00    -0.025 A 
HETATM   11  C   UNL     1      -4.528  -1.611 -33.114  1.00  0.00     0.013 A 
HETATM   12  C   UNL     1      -6.782  -2.078 -34.664  1.00  0.00     0.012 A 
HETATM   13  C   UNL     1      -8.060  -0.490 -33.343  1.00  0.00     0.012 A 
HETATM   14  C   UNL     1      -5.597  -2.754 -34.948  1.00  0.00     0.001 A 
HETATM   15  C   UNL     1      -4.470  -2.519 -34.174  1.00  0.00     0.001 A 
HETATM   16  C   UNL     1      -8.159   0.425 -32.299  1.00  0.00     0.002 A 
HETATM   17  C   UNL     1      -7.054   0.676 -31.495  1.00  0.00     0.010 A 
ENDBRANCH   7   8
ENDBRANCH   3   7
BRANCH   1  18
HETATM   18  C   UNL     1      -3.190   4.940 -31.663  1.00  0.00     0.095 A 
HETATM   19  C   UNL     1      -3.818   5.679 -32.645  1.00  0.00     0.107 A 
HETATM   20  O   UNL     1      -2.970   6.633 -33.106  1.00  0.00    -0.215 OA
HETATM   21  N   UNL     1      -1.765   6.538 -32.450  1.00  0.00    -0.131 NA
HETATM   22  C   UNL     1      -1.890   5.519 -31.587  1.00  0.00     0.087 A 
HETATM   23  C   UNL     1      -0.711   5.143 -30.770  1.00  0.00     0.075 C 
BRANCH  19  24
HETATM   24  C   UNL     1      -5.167   5.672 -33.260  1.00  0.00     0.065 C 
HETATM   25  C   UNL     1      -5.310   4.561 -34.285  1.00  0.00     0.012 C 
ENDBRANCH  19  24
ENDBRANCH   1  18
TORSDOF 4
ENDMDL
MODEL 7
REMARK VINA RESULT:      -8.2      4.784      6.916
REMARK  4 active torsions:
REMARK  status: ('A' for Active; 'I' for Inactive)
REMARK    1  A    between atoms: C_2  and  C_3 
REMARK    2  A    between atoms: C_8  and  N_9 
REMARK       I    between atoms: N_9  and  C_10 
REMARK       I    between atoms: C_10  and  N_11 
REMARK    3  A    between atoms: N_11  and  C_12 
REMARK    4  A    between atoms: C_12  and  C_13 
ROOT
HETATM    1  N   UNL     1      -9.888   1.236 -32.997  1.00  0.00    -0.305 N 
HETATM    2  C   UNL     1      -8.903   1.188 -33.955  1.00  0.00     0.321 C 
HETATM    3  N   UNL     1      -8.457  -0.102 -34.137  1.00  0.00    -0.339 N 
HETATM    4  O   UNL     1      -8.434   2.142 -34.557  1.00  0.00    -0.247 OA
HETATM    5  H   UNL     1      -9.900   0.468 -32.343  1.00  0.00     0.171 HD
HETATM    6  H   UNL     1      -9.102  -0.844 -33.915  1.00  0.00     0.164 HD
ENDROOT
BRANCH   3   7
HETATM    7  C   UNL     1      -7.419  -0.418 -35.097  1.00  0.00     0.163 C 
BRANCH   7   8
HETATM    8  C   UNL     1      -6.169  -0.912 -34.403  1.00  0.00    -0.029 A 
HETATM    9  C   UNL     1      -5.765  -2.278 -34.427  1.00  0.00    -0.018 A 
HETATM   10  C   UNL     1      -4.581  -2.650 -33.740  1.00  0.00    -0.025 A 
HETATM   11  C   UNL     1      -6.474  -3.301 -35.101  1.00  0.00     0.013 A 
HETATM   12  C   UNL     1      -4.146  -3.986 -33.755  1.00  0.00     0.012 A 
HETATM   13  C   UNL     1      -3.840  -1.683 -33.045  1.00  0.00     0.012 A 
HETATM   14  C   UNL     1      -4.865  -4.968 -34.433  1.00  0.00     0.001 A 
HETATM   15  C   UNL     1      -6.030  -4.625 -35.105  1.00  0.00     0.001 A 
HETATM   16  C   UNL     1      -4.250  -0.354 -33.013  1.00  0.00     0.002 A 
HETATM   17  C   UNL     1      -5.405   0.028 -33.684  1.00  0.00     0.010 A 
ENDBRANCH   7   8
ENDBRANCH   3   7
BRANCH   1  18
HETATM   18  C   UNL     1     -10.650   2.347 -32.668  1.00  0.00     0.095 A 
HETATM   19  C   UNL     1     -11.798   2.704 -33.346  1.00  0.00     0.107 A 
HETATM   20  O   UNL     1     -12.309   3.840 -32.807  1.00  0.00    -0.215 OA
HETATM   21  N   UNL     1     -11.507   4.263 -31.772  1.00  0.00    -0.131 NA
HETATM   22  C   UNL     1     -10.506   3.373 -31.689  1.00  0.00     0.087 A 
HETATM   23  C   UNL     1      -9.442   3.609 -30.684  1.00  0.00     0.075 C 
BRANCH  19  24
HETATM   24  C   UNL     1     -12.572   2.126 -34.470  1.00  0.00     0.065 C 
HETATM   25  C   UNL     1     -12.364   2.907 -35.755  1.00  0.00     0.012 C 
ENDBRANCH  19  24
ENDBRANCH   1  18
TORSDOF 4
ENDMDL
MODEL 8
REMARK VINA RESULT:      -8.0      4.809      6.768
REMARK  4 active torsions:
REMARK  status: ('A' for Active; 'I' for Inactive)
REMARK    1  A    between atoms: C_2  and  C_3 
REMARK    2  A    between atoms: C_8  and  N_9 
REMARK       I    between atoms: N_9  and  C_10 
REMARK       I    between atoms: C_10  and  N_11 
REMARK    3  A    between atoms: N_11  and  C_12 
REMARK    4  A    between atoms: C_12  and  C_13 
ROOT
HETATM    1  N   UNL     1     -10.000   0.765 -33.248  1.00  0.00    -0.305 N 
HETATM    2  C   UNL     1      -8.969   0.802 -34.157  1.00  0.00     0.321 C 
HETATM    3  N   UNL     1      -8.220  -0.353 -34.098  1.00  0.00    -0.339 N 
HETATM    4  O   UNL     1      -8.697   1.730 -34.904  1.00  0.00    -0.247 OA
HETATM    5  H   UNL     1      -9.876   0.135 -32.470  1.00  0.00     0.171 HD
HETATM    6  H   UNL     1      -8.687  -1.183 -33.768  1.00  0.00     0.164 HD
ENDROOT
BRANCH   3   7
HETATM    7  C   UNL     1      -7.075  -0.560 -34.961  1.00  0.00     0.163 C 
BRANCH   7   8
HETATM    8  C   UNL     1      -5.867  -0.999 -34.163  1.00  0.00    -0.029 A 
HETATM    9  C   UNL     1      -5.390  -2.341 -34.167  1.00  0.00    -0.018 A 
HETATM   10  C   UNL     1      -4.253  -2.661 -33.381  1.00  0.00    -0.025 A 
HETATM   11  C   UNL     1      -5.979  -3.388 -34.913  1.00  0.00     0.013 A 
HETATM   12  C   UNL     1      -3.747  -3.972 -33.372  1.00  0.00     0.012 A 
HETATM   13  C   UNL     1      -3.630  -1.669 -32.610  1.00  0.00     0.012 A 
HETATM   14  C   UNL     1      -4.348  -4.979 -34.124  1.00  0.00     0.001 A 
HETATM   15  C   UNL     1      -5.466  -4.688 -34.893  1.00  0.00     0.001 A 
HETATM   16  C   UNL     1      -4.112  -0.363 -32.599  1.00  0.00     0.002 A 
HETATM   17  C   UNL     1      -5.222  -0.032 -33.367  1.00  0.00     0.010 A 
ENDBRANCH   7   8
ENDBRANCH   3   7
BRANCH   1  18
HETATM   18  C   UNL     1     -11.022   1.696 -33.139  1.00  0.00     0.095 A 
HETATM   19  C   UNL     1     -10.864   2.921 -32.523  1.00  0.00     0.107 A 
HETATM   20  O   UNL     1     -12.039   3.600 -32.556  1.00  0.00    -0.215 OA
HETATM   21  N   UNL     1     -12.997   2.837 -33.182  1.00  0.00    -0.131 NA
HETATM   22  C   UNL     1     -12.392   1.691 -33.528  1.00  0.00     0.087 A 
HETATM   23  C   UNL     1     -13.208   0.638 -34.180  1.00  0.00     0.075 C 
BRANCH  19  24
HETATM   24  C   UNL     1      -9.733   3.633 -31.882  1.00  0.00     0.065 C 
HETATM   25  C   UNL     1      -9.950   3.805 -30.389  1.00  0.00     0.012 C 
ENDBRANCH  19  24
ENDBRANCH   1  18
TORSDOF 4
ENDMDL
MODEL 9
REMARK VINA RESULT:      -7.8      4.825      8.218
REMARK  4 active torsions:
REMARK  status: ('A' for Active; 'I' for Inactive)
REMARK    1  A    between atoms: C_2  and  C_3 
REMARK    2  A    between atoms: C_8  and  N_9 
REMARK       I    between atoms: N_9  and  C_10 
REMARK       I    between atoms: C_10  and  N_11 
REMARK    3  A    between atoms: N_11  and  C_12 
REMARK    4  A    between atoms: C_12  and  C_13 
ROOT
HETATM    1  N   UNL     1      -6.179  -0.125 -33.976  1.00  0.00    -0.305 N 
HETATM    2  C   UNL     1      -7.048   0.414 -33.057  1.00  0.00     0.321 C 
HETATM    3  N   UNL     1      -7.887   1.329 -33.652  1.00  0.00    -0.339 N 
HETATM    4  O   UNL     1      -7.076   0.170 -31.860  1.00  0.00    -0.247 OA
HETATM    5  H   UNL     1      -6.021   0.427 -34.806  1.00  0.00     0.171 HD
HETATM    6  H   UNL     1      -8.068   1.210 -34.636  1.00  0.00     0.164 HD
ENDROOT
BRANCH   3   7
HETATM    7  C   UNL     1      -8.900   2.036 -32.894  1.00  0.00     0.163 C 
BRANCH   7   8
HETATM    8  C   UNL     1     -10.003   2.539 -33.799  1.00  0.00    -0.029 A 
HETATM    9  C   UNL     1     -11.222   1.827 -33.991  1.00  0.00    -0.018 A 
HETATM   10  C   UNL     1     -12.198   2.372 -34.865  1.00  0.00    -0.025 A 
HETATM   11  C   UNL     1     -11.531   0.600 -33.358  1.00  0.00     0.013 A 
HETATM   12  C   UNL     1     -13.417   1.704 -35.067  1.00  0.00     0.012 A 
HETATM   13  C   UNL     1     -11.947   3.581 -35.531  1.00  0.00     0.012 A 
HETATM   14  C   UNL     1     -13.691   0.500 -34.424  1.00  0.00     0.001 A 
HETATM   15  C   UNL     1     -12.747  -0.054 -33.571  1.00  0.00     0.001 A 
HETATM   16  C   UNL     1     -10.746   4.262 -35.350  1.00  0.00     0.002 A 
HETATM   17  C   UNL     1      -9.782   3.744 -34.493  1.00  0.00     0.010 A 
ENDBRANCH   7   8
ENDBRANCH   3   7
BRANCH   1  18
HETATM   18  C   UNL     1      -5.298  -1.171 -33.747  1.00  0.00     0.095 A 
HETATM   19  C   UNL     1      -5.507  -2.452 -34.219  1.00  0.00     0.107 A 
HETATM   20  O   UNL     1      -4.488  -3.254 -33.821  1.00  0.00    -0.215 OA
HETATM   21  N   UNL     1      -3.593  -2.527 -33.070  1.00  0.00    -0.131 NA
HETATM   22  C   UNL     1      -4.078  -1.278 -33.018  1.00  0.00     0.087 A 
HETATM   23  C   UNL     1      -3.340  -0.273 -32.216  1.00  0.00     0.075 C 
BRANCH  19  24
HETATM   24  C   UNL     1      -6.546  -3.104 -35.051  1.00  0.00     0.065 C 
HETATM   25  C   UNL     1      -6.417  -4.617 -35.026  1.00  0.00     0.012 C 
ENDBRANCH  19  24
ENDBRANCH   1  18
TORSDOF 4
ENDMDL
MODEL 10
REMARK VINA RESULT:      -7.7      4.076      5.423
REMARK  4 active torsions:
REMARK  status: ('A' for Active; 'I' for Inactive)
REMARK    1  A    between atoms: C_2  and  C_3 
REMARK    2  A    between atoms: C_8  and  N_9 
REMARK       I    between atoms: N_9  and  C_10 
REMARK       I    between atoms: C_10  and  N_11 
REMARK    3  A    between atoms: N_11  and  C_12 
REMARK    4  A    between atoms: C_12  and  C_13 
ROOT
HETATM    1  N   UNL     1      -7.102   1.364 -31.716  1.00  0.00    -0.305 N 
HETATM    2  C   UNL     1      -6.184   1.053 -32.691  1.00  0.00     0.321 C 
HETATM    3  N   UNL     1      -5.136   0.330 -32.168  1.00  0.00    -0.339 N 
HETATM    4  O   UNL     1      -6.236   1.388 -33.865  1.00  0.00    -0.247 OA
HETATM    5  H   UNL     1      -6.755   1.356 -30.769  1.00  0.00     0.171 HD
HETATM    6  H   UNL     1      -5.325  -0.213 -31.339  1.00  0.00     0.164 HD
ENDROOT
BRANCH   3   7
HETATM    7  C   UNL     1      -4.037  -0.123 -32.995  1.00  0.00     0.163 C 
BRANCH   7   8
HETATM    8  C   UNL     1      -3.880  -1.626 -32.915  1.00  0.00    -0.029 A 
HETATM    9  C   UNL     1      -4.638  -2.521 -33.722  1.00  0.00    -0.018 A 
HETATM   10  C   UNL     1      -4.428  -3.917 -33.572  1.00  0.00    -0.025 A 
HETATM   11  C   UNL     1      -5.596  -2.108 -34.677  1.00  0.00     0.013 A 
HETATM   12  C   UNL     1      -5.149  -4.828 -34.363  1.00  0.00     0.012 A 
HETATM   13  C   UNL     1      -3.499  -4.390 -32.634  1.00  0.00     0.012 A 
HETATM   14  C   UNL     1      -6.082  -4.387 -35.298  1.00  0.00     0.001 A 
HETATM   15  C   UNL     1      -6.307  -3.026 -35.454  1.00  0.00     0.001 A 
HETATM   16  C   UNL     1      -2.773  -3.508 -31.838  1.00  0.00     0.002 A 
HETATM   17  C   UNL     1      -2.964  -2.139 -31.976  1.00  0.00     0.010 A 
ENDBRANCH   7   8
ENDBRANCH   3   7
BRANCH   1  18
HETATM   18  C   UNL     1      -8.338   1.960 -31.922  1.00  0.00     0.095 A 
HETATM   19  C   UNL     1      -8.612   3.268 -31.576  1.00  0.00     0.107 A 
HETATM   20  O   UNL     1      -9.903   3.556 -31.881  1.00  0.00    -0.215 OA
HETATM   21  N   UNL     1     -10.510   2.446 -32.422  1.00  0.00    -0.131 NA
HETATM   22  C   UNL     1      -9.576   1.484 -32.442  1.00  0.00     0.087 A 
HETATM   23  C   UNL     1      -9.967   0.139 -32.929  1.00  0.00     0.075 C 
BRANCH  19  24
HETATM   24  C   UNL     1      -7.829   4.383 -30.992  1.00  0.00     0.065 C 
HETATM   25  C   UNL     1      -7.544   4.157 -29.518  1.00  0.00     0.012 C 
ENDBRANCH  19  24
ENDBRANCH   1  18
TORSDOF 4
ENDMDL
