MODEL 1
REMARK VINA RESULT:     -10.0      0.000      0.000
REMARK  5 active torsions:
REMARK  status: ('A' for Active; 'I' for Inactive)
REMARK    1  A    between atoms: C_4  and  C_5 
REMARK    2  A    between atoms: C_17  and  C_18 
REMARK    3  A    between atoms: C_18  and  N_19 
REMARK       I    between atoms: N_19  and  C_20 
REMARK    4  A    between atoms: C_20  and  C_21 
REMARK    5  A    between atoms: C_21  and  C_22 
ROOT
HETATM    1  C   UNL     1     -11.491   1.578 -34.395  1.00  0.00     0.048 C 
HETATM    2  C   UNL     1     -10.019   1.784 -34.190  1.00  0.00    -0.060 A 
HETATM    3  C   UNL     1      -9.130   0.689 -34.227  1.00  0.00     0.024 A 
HETATM    4  C   UNL     1      -7.738   0.849 -34.066  1.00  0.00     0.034 A 
HETATM    5  C   UNL     1      -7.279   2.150 -33.893  1.00  0.00     0.088 A 
HETATM    6  C   UNL     1      -8.146   3.236 -33.860  1.00  0.00    -0.021 A 
HETATM    7  C   UNL     1      -7.381   4.496 -33.744  1.00  0.00     0.075 C 
HETATM    8  C   UNL     1      -5.983   3.935 -33.446  1.00  0.00     0.151 C 
HETATM    9  O   UNL     1      -5.961   2.526 -33.801  1.00  0.00    -0.342 OA
HETATM   10  C   UNL     1      -9.513   3.075 -34.007  1.00  0.00     0.017 A 
ENDROOT
BRANCH   8  11
HETATM   11  C   UNL     1      -4.882   4.652 -34.238  1.00  0.00     0.155 C 
BRANCH  11  12
HETATM   12  N   UNL     1      -3.579   4.625 -33.596  1.00  0.00    -0.359 N 
HETATM   13  C   UNL     1      -2.646   5.618 -33.799  1.00  0.00     0.219 C 
HETATM   14  O   UNL     1      -2.839   6.575 -34.539  1.00  0.00    -0.274 OA
HETATM   15  H   UNL     1      -3.393   3.899 -32.915  1.00  0.00     0.162 HD
BRANCH  13  16
HETATM   16  C   UNL     1      -1.365   5.386 -33.027  1.00  0.00     0.128 C 
BRANCH  16  17
HETATM   17  C   UNL     1      -0.878   6.624 -32.262  1.00  0.00     0.094 C 
HETATM   18  N   UNL     1      -2.003   7.228 -31.553  1.00  0.00    -0.362 N 
HETATM   19  C   UNL     1      -2.368   6.906 -30.287  1.00  0.00     0.168 C 
HETATM   20  H   UNL     1      -2.664   7.797 -32.071  1.00  0.00     0.162 HD
HETATM   21  S   UNL     1      -3.803   7.438 -29.645  1.00  0.00    -0.041 SA
HETATM   22  N   UNL     1      -1.506   6.158 -29.557  1.00  0.00    -0.363 N 
HETATM   23  C   UNL     1      -0.288   5.557 -30.074  1.00  0.00     0.081 C 
HETATM   24  H   UNL     1      -1.839   5.885 -28.640  1.00  0.00     0.162 HD
HETATM   25  C   UNL     1       0.760   5.444 -28.971  1.00  0.00     0.032 C 
HETATM   26  C   UNL     1       0.248   6.358 -31.258  1.00  0.00     0.050 C 
ENDBRANCH  16  17
ENDBRANCH  13  16
ENDBRANCH  11  12
ENDBRANCH   8  11
BRANCH   4  27
HETATM   27  C   UNL     1      -6.880  -0.344 -34.117  1.00  0.00     0.112 A 
HETATM   28  S   UNL     1      -5.324  -0.369 -33.379  1.00  0.00    -0.067 SA
HETATM   29  C   UNL     1      -5.124  -2.017 -33.822  1.00  0.00     0.035 A 
HETATM   30  C   UNL     1      -6.270  -2.447 -34.490  1.00  0.00     0.075 A 
HETATM   31  C   UNL     1      -4.034  -2.874 -33.589  1.00  0.00     0.021 A 
HETATM   32  N   UNL     1      -7.262  -1.494 -34.638  1.00  0.00    -0.239 NA
HETATM   33  C   UNL     1      -6.330  -3.781 -34.944  1.00  0.00     0.033 A 
HETATM   34  C   UNL     1      -5.252  -4.642 -34.719  1.00  0.00     0.002 A 
HETATM   35  C   UNL     1      -4.119  -4.192 -34.049  1.00  0.00     0.002 A 
ENDBRANCH   4  27
TORSDOF 5
ENDMDL
MODEL 2
REMARK VINA RESULT:      -9.9      1.992      4.974
REMARK  5 active torsions:
REMARK  status: ('A' for Active; 'I' for Inactive)
REMARK    1  A    between atoms: C_4  and  C_5 
REMARK    2  A    between atoms: C_17  and  C_18 
REMARK    3  A    between atoms: C_18  and  N_19 
REMARK       I    between atoms: N_19  and  C_20 
REMARK    4  A    between atoms: C_20  and  C_21 
REMARK    5  A    between atoms: C_21  and  C_22 
ROOT
HETATM    1  C   UNL     1      -6.283  -3.501 -34.694  1.00  0.00     0.048 C 
HETATM    2  C   UNL     1      -6.219  -2.075 -34.230  1.00  0.00    -0.060 A 
HETATM    3  C   UNL     1      -7.369  -1.258 -34.261  1.00  0.00     0.024 A 
HETATM    4  C   UNL     1      -7.352   0.078 -33.809  1.00  0.00     0.034 A 
HETATM    5  C   UNL     1      -6.144   0.545 -33.304  1.00  0.00     0.088 A 
HETATM    6  C   UNL     1      -5.007  -0.252 -33.264  1.00  0.00    -0.021 A 
HETATM    7  C   UNL     1      -3.897   0.473 -32.609  1.00  0.00     0.075 C 
HETATM    8  C   UNL     1      -4.504   1.881 -32.534  1.00  0.00     0.151 C 
HETATM    9  O   UNL     1      -5.939   1.781 -32.740  1.00  0.00    -0.342 OA
HETATM   10  C   UNL     1      -5.024  -1.560 -33.719  1.00  0.00     0.017 A 
ENDROOT
BRANCH   8  11
HETATM   11  C   UNL     1      -4.256   2.556 -31.179  1.00  0.00     0.155 C 
BRANCH  11  12
HETATM   12  N   UNL     1      -2.972   3.230 -31.080  1.00  0.00    -0.359 N 
HETATM   13  C   UNL     1      -2.721   4.418 -31.730  1.00  0.00     0.219 C 
HETATM   14  O   UNL     1      -3.545   4.977 -32.443  1.00  0.00    -0.274 OA
HETATM   15  H   UNL     1      -2.279   2.854 -30.444  1.00  0.00     0.162 HD
BRANCH  13  16
HETATM   16  C   UNL     1      -1.322   4.938 -31.482  1.00  0.00     0.128 C 
BRANCH  16  17
HETATM   17  C   UNL     1      -1.266   6.452 -31.235  1.00  0.00     0.094 C 
HETATM   18  N   UNL     1      -2.500   6.882 -30.583  1.00  0.00    -0.362 N 
HETATM   19  C   UNL     1      -2.676   6.929 -29.239  1.00  0.00     0.168 C 
HETATM   20  H   UNL     1      -3.340   6.994 -31.141  1.00  0.00     0.162 HD
HETATM   21  S   UNL     1      -4.177   7.174 -28.577  1.00  0.00    -0.041 SA
HETATM   22  N   UNL     1      -1.576   6.796 -28.458  1.00  0.00    -0.363 N 
HETATM   23  C   UNL     1      -0.248   6.465 -28.946  1.00  0.00     0.081 C 
HETATM   24  H   UNL     1      -1.754   6.773 -27.460  1.00  0.00     0.162 HD
HETATM   25  C   UNL     1       0.819   7.081 -28.047  1.00  0.00     0.032 C 
HETATM   26  C   UNL     1      -0.076   6.923 -30.392  1.00  0.00     0.050 C 
ENDBRANCH  16  17
ENDBRANCH  13  16
ENDBRANCH  11  12
ENDBRANCH   8  11
BRANCH   4  27
HETATM   27  C   UNL     1      -8.593   0.862 -33.876  1.00  0.00     0.112 A 
HETATM   28  S   UNL     1     -10.025   0.356 -33.063  1.00  0.00    -0.067 SA
HETATM   29  C   UNL     1     -10.838   1.781 -33.577  1.00  0.00     0.035 A 
HETATM   30  C   UNL     1      -9.954   2.560 -34.321  1.00  0.00     0.075 A 
HETATM   31  C   UNL     1     -12.161   2.185 -33.333  1.00  0.00     0.021 A 
HETATM   32  N   UNL     1      -8.683   2.036 -34.472  1.00  0.00    -0.239 NA
HETATM   33  C   UNL     1     -10.408   3.789 -34.843  1.00  0.00     0.033 A 
HETATM   34  C   UNL     1     -11.723   4.203 -34.608  1.00  0.00     0.002 A 
HETATM   35  C   UNL     1     -12.587   3.409 -33.861  1.00  0.00     0.002 A 
ENDBRANCH   4  27
TORSDOF 5
ENDMDL
MODEL 3
REMARK VINA RESULT:      -9.8      1.631      2.282
REMARK  5 active torsions:
REMARK  status: ('A' for Active; 'I' for Inactive)
REMARK    1  A    between atoms: C_4  and  C_5 
REMARK    2  A    between atoms: C_17  and  C_18 
REMARK    3  A    between atoms: C_18  and  N_19 
REMARK       I    between atoms: N_19  and  C_20 
REMARK    4  A    between atoms: C_20  and  C_21 
REMARK    5  A    between atoms: C_21  and  C_22 
ROOT
HETATM    1  C   UNL     1      -9.284   2.630 -33.675  1.00  0.00     0.048 C 
HETATM    2  C   UNL     1      -7.821   2.574 -33.344  1.00  0.00    -0.060 A 
HETATM    3  C   UNL     1      -7.136   1.341 -33.326  1.00  0.00     0.024 A 
HETATM    4  C   UNL     1      -5.756   1.255 -33.047  1.00  0.00     0.034 A 
HETATM    5  C   UNL     1      -5.095   2.455 -32.813  1.00  0.00     0.088 A 
HETATM    6  C   UNL     1      -5.759   3.676 -32.832  1.00  0.00    -0.021 A 
HETATM    7  C   UNL     1      -4.800   4.783 -32.630  1.00  0.00     0.075 C 
HETATM    8  C   UNL     1      -3.552   3.985 -32.227  1.00  0.00     0.151 C 
HETATM    9  O   UNL     1      -3.744   2.595 -32.605  1.00  0.00    -0.342 OA
HETATM   10  C   UNL     1      -7.116   3.756 -33.096  1.00  0.00     0.017 A 
ENDROOT
BRANCH   8  11
HETATM   11  C   UNL     1      -2.279   4.501 -32.912  1.00  0.00     0.155 C 
BRANCH  11  12
HETATM   12  N   UNL     1      -1.242   4.928 -31.987  1.00  0.00    -0.359 N 
HETATM   13  C   UNL     1      -0.564   6.116 -32.152  1.00  0.00     0.219 C 
HETATM   14  O   UNL     1      -0.772   6.879 -33.088  1.00  0.00    -0.274 OA
HETATM   15  H   UNL     1      -1.082   4.375 -31.155  1.00  0.00     0.162 HD
BRANCH  13  16
HETATM   16  C   UNL     1       0.466   6.358 -31.071  1.00  0.00     0.128 C 
BRANCH  16  17
HETATM   17  C   UNL     1       0.147   7.566 -30.180  1.00  0.00     0.094 C 
HETATM   18  N   UNL     1      -1.292   7.820 -30.207  1.00  0.00    -0.362 N 
HETATM   19  C   UNL     1      -2.179   7.271 -29.340  1.00  0.00     0.168 C 
HETATM   20  H   UNL     1      -1.694   8.293 -31.009  1.00  0.00     0.162 HD
HETATM   21  S   UNL     1      -3.814   7.396 -29.591  1.00  0.00    -0.041 SA
HETATM   22  N   UNL     1      -1.681   6.640 -28.249  1.00  0.00    -0.363 N 
HETATM   23  C   UNL     1      -0.271   6.386 -28.010  1.00  0.00     0.081 C 
HETATM   24  H   UNL     1      -2.370   6.189 -27.658  1.00  0.00     0.162 HD
HETATM   25  C   UNL     1       0.022   6.363 -26.513  1.00  0.00     0.032 C 
HETATM   26  C   UNL     1       0.593   7.425 -28.721  1.00  0.00     0.050 C 
ENDBRANCH  16  17
ENDBRANCH  13  16
ENDBRANCH  11  12
ENDBRANCH   8  11
BRANCH   4  27
HETATM   27  C   UNL     1      -5.118  -0.069 -33.048  1.00  0.00     0.112 A 
HETATM   28  S   UNL     1      -4.172  -0.616 -31.716  1.00  0.00    -0.067 SA
HETATM   29  C   UNL     1      -3.939  -2.135 -32.487  1.00  0.00     0.035 A 
HETATM   30  C   UNL     1      -4.616  -2.131 -33.705  1.00  0.00     0.075 A 
HETATM   31  C   UNL     1      -3.214  -3.254 -32.043  1.00  0.00     0.021 A 
HETATM   32  N   UNL     1      -5.291  -0.961 -34.005  1.00  0.00    -0.239 NA
HETATM   33  C   UNL     1      -4.567  -3.287 -34.512  1.00  0.00     0.033 A 
HETATM   34  C   UNL     1      -3.849  -4.407 -34.081  1.00  0.00     0.002 A 
HETATM   35  C   UNL     1      -3.182  -4.388 -32.861  1.00  0.00     0.002 A 
ENDBRANCH   4  27
TORSDOF 5
ENDMDL
MODEL 4
REMARK VINA RESULT:      -9.7      2.920      3.888
REMARK  5 active torsions:
REMARK  status: ('A' for Active; 'I' for Inactive)
REMARK    1  A    between atoms: C_4  and  C_5 
REMARK    2  A    between atoms: C_17  and  C_18 
REMARK    3  A    between atoms: C_18  and  N_19 
REMARK       I    between atoms: N_19  and  C_20 
REMARK    4  A    between atoms: C_20  and  C_21 
REMARK    5  A    between atoms: C_21  and  C_22 
ROOT
HETATM    1  C   UNL     1     -13.798   0.337 -33.807  1.00  0.00     0.048 C 
HETATM    2  C   UNL     1     -12.583   1.184 -33.563  1.00  0.00    -0.060 A 
HETATM    3  C   UNL     1     -11.300   0.600 -33.511  1.00  0.00     0.024 A 
HETATM    4  C   UNL     1     -10.135   1.369 -33.311  1.00  0.00     0.034 A 
HETATM    5  C   UNL     1     -10.312   2.743 -33.192  1.00  0.00     0.088 A 
HETATM    6  C   UNL     1     -11.570   3.329 -33.246  1.00  0.00    -0.021 A 
HETATM    7  C   UNL     1     -11.452   4.801 -33.171  1.00  0.00     0.075 C 
HETATM    8  C   UNL     1      -9.969   4.932 -32.796  1.00  0.00     0.151 C 
HETATM    9  O   UNL     1      -9.305   3.670 -33.075  1.00  0.00    -0.342 OA
HETATM   10  C   UNL     1     -12.714   2.570 -33.432  1.00  0.00     0.017 A 
ENDROOT
BRANCH   8  11
HETATM   11  C   UNL     1      -9.259   6.038 -33.587  1.00  0.00     0.155 C 
BRANCH  11  12
HETATM   12  N   UNL     1      -7.810   5.927 -33.589  1.00  0.00    -0.359 N 
HETATM   13  C   UNL     1      -7.046   6.337 -32.519  1.00  0.00     0.219 C 
HETATM   14  O   UNL     1      -7.526   6.835 -31.507  1.00  0.00    -0.274 OA
HETATM   15  H   UNL     1      -7.366   5.453 -34.366  1.00  0.00     0.162 HD
BRANCH  13  16
HETATM   16  C   UNL     1      -5.565   6.123 -32.739  1.00  0.00     0.128 C 
BRANCH  16  17
HETATM   17  C   UNL     1      -5.248   4.939 -33.662  1.00  0.00     0.094 C 
HETATM   18  N   UNL     1      -4.024   5.221 -34.408  1.00  0.00    -0.362 N 
HETATM   19  C   UNL     1      -2.778   4.891 -33.983  1.00  0.00     0.168 C 
HETATM   20  H   UNL     1      -4.066   5.845 -35.207  1.00  0.00     0.162 HD
HETATM   21  S   UNL     1      -1.427   5.471 -34.751  1.00  0.00    -0.041 SA
HETATM   22  N   UNL     1      -2.679   4.050 -32.925  1.00  0.00    -0.363 N 
HETATM   23  C   UNL     1      -3.802   3.587 -32.126  1.00  0.00     0.081 C 
HETATM   24  H   UNL     1      -1.737   3.876 -32.597  1.00  0.00     0.162 HD
HETATM   25  C   UNL     1      -3.519   2.199 -31.562  1.00  0.00     0.032 C 
HETATM   26  C   UNL     1      -5.088   3.592 -32.949  1.00  0.00     0.050 C 
ENDBRANCH  16  17
ENDBRANCH  13  16
ENDBRANCH  11  12
ENDBRANCH   8  11
BRANCH   4  27
HETATM   27  C   UNL     1      -8.835   0.683 -33.269  1.00  0.00     0.112 A 
HETATM   28  S   UNL     1      -7.839   0.721 -31.865  1.00  0.00    -0.067 SA
HETATM   29  C   UNL     1      -6.698  -0.314 -32.628  1.00  0.00     0.035 A 
HETATM   30  C   UNL     1      -7.163  -0.636 -33.902  1.00  0.00     0.075 A 
HETATM   31  C   UNL     1      -5.481  -0.812 -32.134  1.00  0.00     0.021 A 
HETATM   32  N   UNL     1      -8.381  -0.076 -34.248  1.00  0.00    -0.239 NA
HETATM   33  C   UNL     1      -6.384  -1.486 -34.714  1.00  0.00     0.033 A 
HETATM   34  C   UNL     1      -5.170  -1.988 -34.233  1.00  0.00     0.002 A 
HETATM   35  C   UNL     1      -4.727  -1.653 -32.958  1.00  0.00     0.002 A 
ENDBRANCH   4  27
TORSDOF 5
ENDMDL
MODEL 5
REMARK VINA RESULT:      -9.5      3.133      6.123
REMARK  5 active torsions:
REMARK  status: ('A' for Active; 'I' for Inactive)
REMARK    1  A    between atoms: C_4  and  C_5 
REMARK    2  A    between atoms: C_17  and  C_18 
REMARK    3  A    between atoms: C_18  and  N_19 
REMARK       I    between atoms: N_19  and  C_20 
REMARK    4  A    between atoms: C_20  and  C_21 
REMARK    5  A    between atoms: C_21  and  C_22 
ROOT
HETATM    1  C   UNL     1      -6.262  -4.454 -35.098  1.00  0.00     0.048 C 
HETATM    2  C   UNL     1      -5.993  -3.077 -34.563  1.00  0.00    -0.060 A 
HETATM    3  C   UNL     1      -7.019  -2.110 -34.523  1.00  0.00     0.024 A 
HETATM    4  C   UNL     1      -6.809  -0.816 -34.002  1.00  0.00     0.034 A 
HETATM    5  C   UNL     1      -5.539  -0.548 -33.505  1.00  0.00     0.088 A 
HETATM    6  C   UNL     1      -4.523  -1.494 -33.535  1.00  0.00    -0.021 A 
HETATM    7  C   UNL     1      -3.311  -0.965 -32.872  1.00  0.00     0.075 C 
HETATM    8  C   UNL     1      -3.717   0.506 -32.708  1.00  0.00     0.151 C 
HETATM    9  O   UNL     1      -5.155   0.616 -32.884  1.00  0.00    -0.342 OA
HETATM   10  C   UNL     1      -4.729  -2.760 -34.057  1.00  0.00     0.017 A 
ENDROOT
BRANCH   8  11
HETATM   11  C   UNL     1      -3.353   1.066 -31.327  1.00  0.00     0.155 C 
BRANCH  11  12
HETATM   12  N   UNL     1      -4.212   2.151 -30.884  1.00  0.00    -0.359 N 
HETATM   13  C   UNL     1      -3.995   3.456 -31.268  1.00  0.00     0.219 C 
HETATM   14  O   UNL     1      -3.064   3.794 -31.989  1.00  0.00    -0.274 OA
HETATM   15  H   UNL     1      -5.041   1.921 -30.349  1.00  0.00     0.162 HD
BRANCH  13  16
HETATM   16  C   UNL     1      -5.014   4.415 -30.691  1.00  0.00     0.128 C 
BRANCH  16  17
HETATM   17  C   UNL     1      -5.808   3.830 -29.516  1.00  0.00     0.094 C 
HETATM   18  N   UNL     1      -6.332   4.920 -28.696  1.00  0.00    -0.362 N 
HETATM   19  C   UNL     1      -7.540   5.505 -28.888  1.00  0.00     0.168 C 
HETATM   20  H   UNL     1      -5.709   5.395 -28.051  1.00  0.00     0.162 HD
HETATM   21  S   UNL     1      -7.955   6.900 -28.091  1.00  0.00    -0.041 SA
HETATM   22  N   UNL     1      -8.406   4.895 -29.732  1.00  0.00    -0.363 N 
HETATM   23  C   UNL     1      -8.086   3.740 -30.555  1.00  0.00     0.081 C 
HETATM   24  H   UNL     1      -9.273   5.392 -29.899  1.00  0.00     0.162 HD
HETATM   25  C   UNL     1      -9.331   2.889 -30.787  1.00  0.00     0.032 C 
HETATM   26  C   UNL     1      -6.971   2.915 -29.916  1.00  0.00     0.050 C 
ENDBRANCH  16  17
ENDBRANCH  13  16
ENDBRANCH  11  12
ENDBRANCH   8  11
BRANCH   4  27
HETATM   27  C   UNL     1      -7.931   0.133 -33.997  1.00  0.00     0.112 A 
HETATM   28  S   UNL     1      -7.762   1.734 -34.608  1.00  0.00    -0.067 SA
HETATM   29  C   UNL     1      -9.427   2.040 -34.309  1.00  0.00     0.035 A 
HETATM   30  C   UNL     1     -10.008   0.890 -33.777  1.00  0.00     0.075 A 
HETATM   31  C   UNL     1     -10.169   3.212 -34.534  1.00  0.00     0.021 A 
HETATM   32  N   UNL     1      -9.155  -0.187 -33.619  1.00  0.00    -0.239 NA
HETATM   33  C   UNL     1     -11.382   0.910 -33.458  1.00  0.00     0.033 A 
HETATM   34  C   UNL     1     -12.131   2.070 -33.677  1.00  0.00     0.002 A 
HETATM   35  C   UNL     1     -11.530   3.206 -34.210  1.00  0.00     0.002 A 
ENDBRANCH   4  27
TORSDOF 5
ENDMDL
MODEL 6
REMARK VINA RESULT:      -9.3      3.332      8.507
REMARK  5 active torsions:
REMARK  status: ('A' for Active; 'I' for Inactive)
REMARK    1  A    between atoms: C_4  and  C_5 
REMARK    2  A    between atoms: C_17  and  C_18 
REMARK    3  A    between atoms: C_18  and  N_19 
REMARK       I    between atoms: N_19  and  C_20 
REMARK    4  A    between atoms: C_20  and  C_21 
REMARK    5  A    between atoms: C_21  and  C_22 
ROOT
HETATM    1  C   UNL     1      -4.093  -1.296 -33.484  1.00  0.00     0.048 C 
HETATM    2  C   UNL     1      -4.356  -0.097 -32.620  1.00  0.00    -0.060 A 
HETATM    3  C   UNL     1      -3.568   1.066 -32.746  1.00  0.00     0.024 A 
HETATM    4  C   UNL     1      -3.803   2.219 -31.970  1.00  0.00     0.034 A 
HETATM    5  C   UNL     1      -4.874   2.162 -31.085  1.00  0.00     0.088 A 
HETATM    6  C   UNL     1      -5.660   1.023 -30.955  1.00  0.00    -0.021 A 
HETATM    7  C   UNL     1      -6.766   1.271 -30.006  1.00  0.00     0.075 C 
HETATM    8  C   UNL     1      -6.323   2.622 -29.425  1.00  0.00     0.151 C 
HETATM    9  O   UNL     1      -5.319   3.200 -30.302  1.00  0.00    -0.342 OA
HETATM   10  C   UNL     1      -5.419  -0.112 -31.711  1.00  0.00     0.017 A 
ENDROOT
BRANCH   8  11
HETATM   11  C   UNL     1      -7.484   3.616 -29.297  1.00  0.00     0.155 C 
BRANCH  11  12
HETATM   12  N   UNL     1      -8.544   3.417 -30.272  1.00  0.00    -0.359 N 
HETATM   13  C   UNL     1      -8.573   4.104 -31.466  1.00  0.00     0.219 C 
HETATM   14  O   UNL     1      -7.729   4.934 -31.780  1.00  0.00    -0.274 OA
HETATM   15  H   UNL     1      -9.226   2.688 -30.100  1.00  0.00     0.162 HD
BRANCH  13  16
HETATM   16  C   UNL     1      -9.762   3.735 -32.326  1.00  0.00     0.128 C 
BRANCH  16  17
HETATM   17  C   UNL     1     -10.123   2.244 -32.265  1.00  0.00     0.094 C 
HETATM   18  N   UNL     1     -11.362   2.016 -33.005  1.00  0.00    -0.362 N 
HETATM   19  C   UNL     1     -11.416   1.713 -34.326  1.00  0.00     0.168 C 
HETATM   20  H   UNL     1     -12.247   2.258 -32.572  1.00  0.00     0.162 HD
HETATM   21  S   UNL     1     -12.855   1.725 -35.152  1.00  0.00    -0.041 SA
HETATM   22  N   UNL     1     -10.257   1.373 -34.939  1.00  0.00    -0.363 N 
HETATM   23  C   UNL     1      -8.942   1.446 -34.325  1.00  0.00     0.081 C 
HETATM   24  H   UNL     1     -10.325   1.214 -35.938  1.00  0.00     0.162 HD
HETATM   25  C   UNL     1      -8.018   0.384 -34.914  1.00  0.00     0.032 C 
HETATM   26  C   UNL     1      -9.046   1.300 -32.809  1.00  0.00     0.050 C 
ENDBRANCH  16  17
ENDBRANCH  13  16
ENDBRANCH  11  12
ENDBRANCH   8  11
BRANCH   4  27
HETATM   27  C   UNL     1      -2.935   3.389 -32.163  1.00  0.00     0.112 A 
HETATM   28  S   UNL     1      -3.134   4.449 -33.507  1.00  0.00    -0.067 SA
HETATM   29  C   UNL     1      -1.878   5.461 -32.913  1.00  0.00     0.035 A 
HETATM   30  C   UNL     1      -1.400   4.932 -31.715  1.00  0.00     0.075 A 
HETATM   31  C   UNL     1      -1.355   6.643 -33.463  1.00  0.00     0.021 A 
HETATM   32  N   UNL     1      -2.017   3.767 -31.294  1.00  0.00    -0.239 NA
HETATM   33  C   UNL     1      -0.362   5.607 -31.041  1.00  0.00     0.033 A 
HETATM   34  C   UNL     1       0.166   6.785 -31.579  1.00  0.00     0.002 A 
HETATM   35  C   UNL     1      -0.326   7.295 -32.775  1.00  0.00     0.002 A 
ENDBRANCH   4  27
TORSDOF 5
ENDMDL
MODEL 7
REMARK VINA RESULT:      -9.3      3.517      7.865
REMARK  5 active torsions:
REMARK  status: ('A' for Active; 'I' for Inactive)
REMARK    1  A    between atoms: C_4  and  C_5 
REMARK    2  A    between atoms: C_17  and  C_18 
REMARK    3  A    between atoms: C_18  and  N_19 
REMARK       I    between atoms: N_19  and  C_20 
REMARK    4  A    between atoms: C_20  and  C_21 
REMARK    5  A    between atoms: C_21  and  C_22 
ROOT
HETATM    1  C   UNL     1      -1.793   4.567 -31.686  1.00  0.00     0.048 C 
HETATM    2  C   UNL     1      -3.177   3.991 -31.754  1.00  0.00    -0.060 A 
HETATM    3  C   UNL     1      -3.392   2.702 -32.286  1.00  0.00     0.024 A 
HETATM    4  C   UNL     1      -4.675   2.119 -32.341  1.00  0.00     0.034 A 
HETATM    5  C   UNL     1      -5.720   2.872 -31.819  1.00  0.00     0.088 A 
HETATM    6  C   UNL     1      -5.519   4.140 -31.288  1.00  0.00    -0.021 A 
HETATM    7  C   UNL     1      -6.785   4.671 -30.738  1.00  0.00     0.075 C 
HETATM    8  C   UNL     1      -7.772   3.627 -31.281  1.00  0.00     0.151 C 
HETATM    9  O   UNL     1      -7.024   2.454 -31.703  1.00  0.00    -0.342 OA
HETATM   10  C   UNL     1      -4.260   4.715 -31.246  1.00  0.00     0.017 A 
ENDROOT
BRANCH   8  11
HETATM   11  C   UNL     1      -8.804   3.192 -30.232  1.00  0.00     0.155 C 
BRANCH  11  12
HETATM   12  N   UNL     1     -10.157   3.074 -30.748  1.00  0.00    -0.359 N 
HETATM   13  C   UNL     1     -10.849   4.161 -31.236  1.00  0.00     0.219 C 
HETATM   14  O   UNL     1     -10.385   5.294 -31.254  1.00  0.00    -0.274 OA
HETATM   15  H   UNL     1     -10.562   2.149 -30.829  1.00  0.00     0.162 HD
BRANCH  13  16
HETATM   16  C   UNL     1     -12.236   3.803 -31.723  1.00  0.00     0.128 C 
BRANCH  16  17
HETATM   17  C   UNL     1     -12.340   3.698 -33.251  1.00  0.00     0.094 C 
HETATM   18  N   UNL     1     -11.103   3.130 -33.782  1.00  0.00    -0.362 N 
HETATM   19  C   UNL     1     -10.889   1.802 -33.962  1.00  0.00     0.168 C 
HETATM   20  H   UNL     1     -10.286   3.724 -33.869  1.00  0.00     0.162 HD
HETATM   21  S   UNL     1      -9.379   1.217 -34.320  1.00  0.00    -0.041 SA
HETATM   22  N   UNL     1     -11.959   0.976 -33.866  1.00  0.00    -0.363 N 
HETATM   23  C   UNL     1     -13.288   1.387 -33.446  1.00  0.00     0.081 C 
HETATM   24  H   UNL     1     -11.752  -0.012 -33.944  1.00  0.00     0.162 HD
HETATM   25  C   UNL     1     -14.351   0.514 -34.108  1.00  0.00     0.032 C 
HETATM   26  C   UNL     1     -13.521   2.863 -33.759  1.00  0.00     0.050 C 
ENDBRANCH  16  17
ENDBRANCH  13  16
ENDBRANCH  11  12
ENDBRANCH   8  11
BRANCH   4  27
HETATM   27  C   UNL     1      -4.814   0.772 -32.912  1.00  0.00     0.112 A 
HETATM   28  S   UNL     1      -3.577  -0.414 -32.737  1.00  0.00    -0.067 SA
HETATM   29  C   UNL     1      -4.551  -1.572 -33.552  1.00  0.00     0.035 A 
HETATM   30  C   UNL     1      -5.768  -0.981 -33.889  1.00  0.00     0.075 A 
HETATM   31  C   UNL     1      -4.264  -2.911 -33.866  1.00  0.00     0.021 A 
HETATM   32  N   UNL     1      -5.910   0.342 -33.508  1.00  0.00    -0.239 NA
HETATM   33  C   UNL     1      -6.734  -1.754 -34.564  1.00  0.00     0.033 A 
HETATM   34  C   UNL     1      -6.460  -3.088 -34.883  1.00  0.00     0.002 A 
HETATM   35  C   UNL     1      -5.239  -3.657 -34.536  1.00  0.00     0.002 A 
ENDBRANCH   4  27
TORSDOF 5
ENDMDL
MODEL 8
REMARK VINA RESULT:      -9.2      3.675      9.095
REMARK  5 active torsions:
REMARK  status: ('A' for Active; 'I' for Inactive)
REMARK    1  A    between atoms: C_4  and  C_5 
REMARK    2  A    between atoms: C_17  and  C_18 
REMARK    3  A    between atoms: C_18  and  N_19 
REMARK       I    between atoms: N_19  and  C_20 
REMARK    4  A    between atoms: C_20  and  C_21 
REMARK    5  A    between atoms: C_21  and  C_22 
ROOT
HETATM    1  C   UNL     1      -5.941  -1.704 -34.053  1.00  0.00     0.048 C 
HETATM    2  C   UNL     1      -6.292  -0.411 -33.375  1.00  0.00    -0.060 A 
HETATM    3  C   UNL     1      -5.361   0.648 -33.324  1.00  0.00     0.024 A 
HETATM    4  C   UNL     1      -5.667   1.885 -32.719  1.00  0.00     0.034 A 
HETATM    5  C   UNL     1      -6.947   2.018 -32.194  1.00  0.00     0.088 A 
HETATM    6  C   UNL     1      -7.873   0.983 -32.243  1.00  0.00    -0.021 A 
HETATM    7  C   UNL     1      -9.168   1.428 -31.684  1.00  0.00     0.075 C 
HETATM    8  C   UNL     1      -8.747   2.772 -31.073  1.00  0.00     0.151 C 
HETATM    9  O   UNL     1      -7.467   3.162 -31.640  1.00  0.00    -0.342 OA
HETATM   10  C   UNL     1      -7.566  -0.234 -32.828  1.00  0.00     0.017 A 
ENDROOT
BRANCH   8  11
HETATM   11  C   UNL     1      -9.762   3.888 -31.354  1.00  0.00     0.155 C 
BRANCH  11  12
HETATM   12  N   UNL     1     -11.149   3.468 -31.244  1.00  0.00    -0.359 N 
HETATM   13  C   UNL     1     -12.193   4.334 -31.482  1.00  0.00     0.219 C 
HETATM   14  O   UNL     1     -12.030   5.511 -31.783  1.00  0.00    -0.274 OA
HETATM   15  H   UNL     1     -11.343   2.489 -31.074  1.00  0.00     0.162 HD
BRANCH  13  16
HETATM   16  C   UNL     1     -13.547   3.681 -31.314  1.00  0.00     0.128 C 
BRANCH  16  17
HETATM   17  C   UNL     1     -14.296   3.472 -32.638  1.00  0.00     0.094 C 
HETATM   18  N   UNL     1     -13.512   4.042 -33.731  1.00  0.00    -0.362 N 
HETATM   19  C   UNL     1     -12.585   3.355 -34.444  1.00  0.00     0.168 C 
HETATM   20  H   UNL     1     -13.521   5.047 -33.873  1.00  0.00     0.162 HD
HETATM   21  S   UNL     1     -11.556   4.131 -35.488  1.00  0.00    -0.041 SA
HETATM   22  N   UNL     1     -12.549   2.009 -34.292  1.00  0.00    -0.363 N 
HETATM   23  C   UNL     1     -13.330   1.263 -33.320  1.00  0.00     0.081 C 
HETATM   24  H   UNL     1     -11.804   1.536 -34.790  1.00  0.00     0.162 HD
HETATM   25  C   UNL     1     -13.638  -0.137 -33.843  1.00  0.00     0.032 C 
HETATM   26  C   UNL     1     -14.616   2.012 -32.973  1.00  0.00     0.050 C 
ENDBRANCH  16  17
ENDBRANCH  13  16
ENDBRANCH  11  12
ENDBRANCH   8  11
BRANCH   4  27
HETATM   27  C   UNL     1      -4.641   2.937 -32.708  1.00  0.00     0.112 A 
HETATM   28  S   UNL     1      -3.318   2.896 -31.606  1.00  0.00    -0.067 SA
HETATM   29  C   UNL     1      -2.665   4.320 -32.314  1.00  0.00     0.035 A 
HETATM   30  C   UNL     1      -3.493   4.724 -33.360  1.00  0.00     0.075 A 
HETATM   31  C   UNL     1      -1.499   5.027 -31.974  1.00  0.00     0.021 A 
HETATM   32  N   UNL     1      -4.601   3.925 -33.582  1.00  0.00    -0.239 NA
HETATM   33  C   UNL     1      -3.146   5.877 -34.094  1.00  0.00     0.033 A 
HETATM   34  C   UNL     1      -1.988   6.589 -33.765  1.00  0.00     0.002 A 
HETATM   35  C   UNL     1      -1.176   6.167 -32.718  1.00  0.00     0.002 A 
ENDBRANCH   4  27
TORSDOF 5
ENDMDL
MODEL 9
REMARK VINA RESULT:      -9.2      4.322      8.752
REMARK  5 active torsions:
REMARK  status: ('A' for Active; 'I' for Inactive)
REMARK    1  A    between atoms: C_4  and  C_5 
REMARK    2  A    between atoms: C_17  and  C_18 
REMARK    3  A    between atoms: C_18  and  N_19 
REMARK       I    between atoms: N_19  and  C_20 
REMARK    4  A    between atoms: C_20  and  C_21 
REMARK    5  A    between atoms: C_21  and  C_22 
ROOT
HETATM    1  C   UNL     1      -4.915   5.156 -33.035  1.00  0.00     0.048 C 
HETATM    2  C   UNL     1      -5.749   3.930 -33.272  1.00  0.00    -0.060 A 
HETATM    3  C   UNL     1      -5.177   2.644 -33.175  1.00  0.00     0.024 A 
HETATM    4  C   UNL     1      -5.937   1.471 -33.365  1.00  0.00     0.034 A 
HETATM    5  C   UNL     1      -7.290   1.645 -33.630  1.00  0.00     0.088 A 
HETATM    6  C   UNL     1      -7.864   2.907 -33.724  1.00  0.00    -0.021 A 
HETATM    7  C   UNL     1      -9.323   2.790 -33.933  1.00  0.00     0.075 C 
HETATM    8  C   UNL     1      -9.434   1.285 -34.212  1.00  0.00     0.151 C 
HETATM    9  O   UNL     1      -8.213   0.636 -33.764  1.00  0.00    -0.342 OA
HETATM   10  C   UNL     1      -7.114   4.057 -33.547  1.00  0.00     0.017 A 
ENDROOT
BRANCH   8  11
HETATM   11  C   UNL     1     -10.620   0.638 -33.484  1.00  0.00     0.155 C 
BRANCH  11  12
HETATM   12  N   UNL     1     -11.725   1.548 -33.229  1.00  0.00    -0.359 N 
HETATM   13  C   UNL     1     -12.724   1.757 -34.154  1.00  0.00     0.219 C 
HETATM   14  O   UNL     1     -12.744   1.211 -35.251  1.00  0.00    -0.274 OA
HETATM   15  H   UNL     1     -11.801   1.968 -32.311  1.00  0.00     0.162 HD
BRANCH  13  16
HETATM   16  C   UNL     1     -13.771   2.739 -33.675  1.00  0.00     0.128 C 
BRANCH  16  17
HETATM   17  C   UNL     1     -14.123   2.583 -32.190  1.00  0.00     0.094 C 
HETATM   18  N   UNL     1     -13.866   3.843 -31.496  1.00  0.00    -0.362 N 
HETATM   19  C   UNL     1     -14.783   4.831 -31.346  1.00  0.00     0.168 C 
HETATM   20  H   UNL     1     -12.911   4.087 -31.254  1.00  0.00     0.162 HD
HETATM   21  S   UNL     1     -14.346   6.329 -30.782  1.00  0.00    -0.041 SA
HETATM   22  N   UNL     1     -16.072   4.542 -31.647  1.00  0.00    -0.363 N 
HETATM   23  C   UNL     1     -16.523   3.300 -32.252  1.00  0.00     0.081 C 
HETATM   24  H   UNL     1     -16.717   5.320 -31.582  1.00  0.00     0.162 HD
HETATM   25  C   UNL     1     -17.945   2.975 -31.806  1.00  0.00     0.032 C 
HETATM   26  C   UNL     1     -15.568   2.157 -31.913  1.00  0.00     0.050 C 
ENDBRANCH  16  17
ENDBRANCH  13  16
ENDBRANCH  11  12
ENDBRANCH   8  11
BRANCH   4  27
HETATM   27  C   UNL     1      -5.265   0.169 -33.247  1.00  0.00     0.112 A 
HETATM   28  S   UNL     1      -4.279  -0.219 -31.888  1.00  0.00    -0.067 SA
HETATM   29  C   UNL     1      -4.023  -1.802 -32.507  1.00  0.00     0.035 A 
HETATM   30  C   UNL     1      -4.723  -1.937 -33.704  1.00  0.00     0.075 A 
HETATM   31  C   UNL     1      -3.261  -2.853 -31.969  1.00  0.00     0.021 A 
HETATM   32  N   UNL     1      -5.434  -0.819 -34.105  1.00  0.00    -0.239 NA
HETATM   33  C   UNL     1      -4.662  -3.167 -34.391  1.00  0.00     0.033 A 
HETATM   34  C   UNL     1      -3.907  -4.221 -33.866  1.00  0.00     0.002 A 
HETATM   35  C   UNL     1      -3.216  -4.063 -32.669  1.00  0.00     0.002 A 
ENDBRANCH   4  27
TORSDOF 5
ENDMDL
MODEL 10
REMARK VINA RESULT:      -9.1      3.749      9.149
REMARK  5 active torsions:
REMARK  status: ('A' for Active; 'I' for Inactive)
REMARK    1  A    between atoms: C_4  and  C_5 
REMARK    2  A    between atoms: C_17  and  C_18 
REMARK    3  A    between atoms: C_18  and  N_19 
REMARK       I    between atoms: N_19  and  C_20 
REMARK    4  A    between atoms: C_20  and  C_21 
REMARK    5  A    between atoms: C_21  and  C_22 
ROOT
HETATM    1  C   UNL     1      -3.813  -1.618 -33.174  1.00  0.00     0.048 C 
HETATM    2  C   UNL     1      -4.352  -0.358 -32.562  1.00  0.00    -0.060 A 
HETATM    3  C   UNL     1      -3.634   0.852 -32.662  1.00  0.00     0.024 A 
HETATM    4  C   UNL     1      -4.123   2.060 -32.122  1.00  0.00     0.034 A 
HETATM    5  C   UNL     1      -5.368   2.004 -31.506  1.00  0.00     0.088 A 
HETATM    6  C   UNL     1      -6.086   0.818 -31.406  1.00  0.00    -0.021 A 
HETATM    7  C   UNL     1      -7.400   1.068 -30.776  1.00  0.00     0.075 C 
HETATM    8  C   UNL     1      -7.198   2.513 -30.297  1.00  0.00     0.151 C 
HETATM    9  O   UNL     1      -6.054   3.078 -30.993  1.00  0.00    -0.342 OA
HETATM   10  C   UNL     1      -5.598  -0.369 -31.926  1.00  0.00     0.017 A 
ENDROOT
BRANCH   8  11
HETATM   11  C   UNL     1      -8.419   3.400 -30.573  1.00  0.00     0.155 C 
BRANCH  11  12
HETATM   12  N   UNL     1      -9.402   2.795 -31.456  1.00  0.00    -0.359 N 
HETATM   13  C   UNL     1      -9.503   3.147 -32.784  1.00  0.00     0.219 C 
HETATM   14  O   UNL     1      -8.792   3.997 -33.305  1.00  0.00    -0.274 OA
HETATM   15  H   UNL     1      -9.965   2.032 -31.098  1.00  0.00     0.162 HD
BRANCH  13  16
HETATM   16  C   UNL     1     -10.592   2.388 -33.511  1.00  0.00     0.128 C 
BRANCH  16  17
HETATM   17  C   UNL     1     -11.764   3.273 -33.955  1.00  0.00     0.094 C 
HETATM   18  N   UNL     1     -12.862   2.426 -34.417  1.00  0.00    -0.362 N 
HETATM   19  C   UNL     1     -13.852   1.959 -33.617  1.00  0.00     0.168 C 
HETATM   20  H   UNL     1     -12.810   2.013 -35.342  1.00  0.00     0.162 HD
HETATM   21  S   UNL     1     -14.911   0.798 -34.150  1.00  0.00    -0.041 SA
HETATM   22  N   UNL     1     -13.963   2.495 -32.377  1.00  0.00    -0.363 N 
HETATM   23  C   UNL     1     -13.015   3.427 -31.790  1.00  0.00     0.081 C 
HETATM   24  H   UNL     1     -14.673   2.078 -31.787  1.00  0.00     0.162 HD
HETATM   25  C   UNL     1     -13.721   4.357 -30.808  1.00  0.00     0.032 C 
HETATM   26  C   UNL     1     -12.298   4.223 -32.878  1.00  0.00     0.050 C 
ENDBRANCH  16  17
ENDBRANCH  13  16
ENDBRANCH  11  12
ENDBRANCH   8  11
BRANCH   4  27
HETATM   27  C   UNL     1      -3.313   3.277 -32.269  1.00  0.00     0.112 A 
HETATM   28  S   UNL     1      -3.724   4.504 -33.406  1.00  0.00    -0.067 SA
HETATM   29  C   UNL     1      -2.412   5.471 -32.860  1.00  0.00     0.035 A 
HETATM   30  C   UNL     1      -1.755   4.799 -31.829  1.00  0.00     0.075 A 
HETATM   31  C   UNL     1      -1.995   6.737 -33.305  1.00  0.00     0.021 A 
HETATM   32  N   UNL     1      -2.283   3.565 -31.495  1.00  0.00    -0.239 NA
HETATM   33  C   UNL     1      -0.641   5.414 -31.221  1.00  0.00     0.033 A 
HETATM   34  C   UNL     1      -0.217   6.674 -31.656  1.00  0.00     0.002 A 
HETATM   35  C   UNL     1      -0.888   7.325 -32.686  1.00  0.00     0.002 A 
ENDBRANCH   4  27
TORSDOF 5
ENDMDL
