MODEL 1
REMARK VINA RESULT:      -8.9      0.000      0.000
REMARK  8 active torsions:
REMARK  status: ('A' for Active; 'I' for Inactive)
REMARK    1  A    between atoms: C_2  and  C_3 
REMARK    2  A    between atoms: C_4  and  O_5 
REMARK    3  A    between atoms: N_10  and  N_11 
REMARK       I    between atoms: N_11  and  C_12 
REMARK    4  A    between atoms: C_12  and  C_13 
REMARK    5  A    between atoms: C_13  and  N_14 
REMARK       I    between atoms: N_14  and  C_15 
REMARK    6  A    between atoms: C_15  and  C_16 
REMARK    7  A    between atoms: C_16  and  N_17 
REMARK       I    between atoms: N_17  and  C_18 
REMARK    8  A    between atoms: C_18  and  C_19 
ROOT
HETATM    1  C   UNL     1      -5.660   3.705 -32.409  1.00  0.00     0.227 C 
ENDROOT
BRANCH   1   2
HETATM    2  C   UNL     1      -5.218   2.253 -32.597  1.00  0.00     0.255 C 
HETATM    3  N   UNL     1      -6.217   1.396 -33.028  1.00  0.00    -0.246 N 
HETATM    4  H   UNL     1      -7.107   1.778 -33.337  1.00  0.00     0.192 HD
HETATM    5  O   UNL     1      -4.089   1.886 -32.266  1.00  0.00    -0.270 OA
BRANCH   3   6
HETATM    6  N   UNL     1      -5.932   0.072 -33.169  1.00  0.00    -0.176 NA
HETATM    7  C   UNL     1      -6.357  -0.573 -34.216  1.00  0.00     0.064 C 
HETATM    8  C   UNL     1      -7.225   0.045 -35.285  1.00  0.00     0.073 C 
BRANCH   7   9
HETATM    9  C   UNL     1      -5.974  -2.015 -34.348  1.00  0.00     0.023 A 
HETATM   10  C   UNL     1      -4.673  -2.438 -34.038  1.00  0.00     0.077 A 
HETATM   11  C   UNL     1      -4.324  -3.786 -34.128  1.00  0.00     0.037 A 
HETATM   12  C   UNL     1      -5.264  -4.723 -34.551  1.00  0.00     0.003 A 
HETATM   13  C   UNL     1      -6.551  -4.312 -34.891  1.00  0.00     0.001 A 
HETATM   14  C   UNL     1      -6.906  -2.964 -34.793  1.00  0.00     0.016 A 
BRANCH  10  15
HETATM   15  O   UNL     1      -3.680  -1.588 -33.632  1.00  0.00    -0.360 OA
HETATM   16  H   UNL     1      -3.122  -2.060 -32.970  1.00  0.00     0.217 HD
ENDBRANCH  10  15
ENDBRANCH   7   9
ENDBRANCH   3   6
ENDBRANCH   1   2
BRANCH   1  17
HETATM   17  N   UNL     1      -4.680   4.738 -32.709  1.00  0.00    -0.351 N 
HETATM   18  C   UNL     1      -4.352   5.076 -34.003  1.00  0.00     0.235 C 
HETATM   19  O   UNL     1      -4.969   4.673 -34.985  1.00  0.00    -0.272 OA
HETATM   20  H   UNL     1      -4.278   5.287 -31.951  1.00  0.00     0.163 HD
BRANCH  18  21
HETATM   21  C   UNL     1      -3.185   6.058 -34.111  1.00  0.00     0.225 C 
BRANCH  21  22
HETATM   22  N   UNL     1      -2.576   6.304 -32.823  1.00  0.00    -0.348 N 
HETATM   23  C   UNL     1      -1.862   7.446 -32.568  1.00  0.00     0.253 C 
HETATM   24  O   UNL     1      -1.607   8.242 -33.472  1.00  0.00    -0.268 OA
HETATM   25  H   UNL     1      -2.677   5.590 -32.110  1.00  0.00     0.163 HD
BRANCH  23  26
HETATM   26  C   UNL     1      -1.377   7.703 -31.170  1.00  0.00     0.053 A 
HETATM   27  C   UNL     1      -0.322   7.047 -30.513  1.00  0.00     0.049 A 
HETATM   28 CL   UNL     1       0.620   5.768 -31.199  1.00  0.00    -0.083 Cl
HETATM   29  C   UNL     1       0.033   7.417 -29.205  1.00  0.00     0.025 A 
HETATM   30  C   UNL     1      -0.648   8.434 -28.539  1.00  0.00     0.002 A 
HETATM   31  C   UNL     1      -1.701   9.083 -29.171  1.00  0.00     0.001 A 
HETATM   32  C   UNL     1      -2.065   8.714 -30.467  1.00  0.00     0.019 A 
ENDBRANCH  23  26
ENDBRANCH  21  22
ENDBRANCH  18  21
ENDBRANCH   1  17
TORSDOF 8
ENDMDL
MODEL 2
REMARK VINA RESULT:      -8.8      2.100      2.658
REMARK  8 active torsions:
REMARK  status: ('A' for Active; 'I' for Inactive)
REMARK    1  A    between atoms: C_2  and  C_3 
REMARK    2  A    between atoms: C_4  and  O_5 
REMARK    3  A    between atoms: N_10  and  N_11 
REMARK       I    between atoms: N_11  and  C_12 
REMARK    4  A    between atoms: C_12  and  C_13 
REMARK    5  A    between atoms: C_13  and  N_14 
REMARK       I    between atoms: N_14  and  C_15 
REMARK    6  A    between atoms: C_15  and  C_16 
REMARK    7  A    between atoms: C_16  and  N_17 
REMARK       I    between atoms: N_17  and  C_18 
REMARK    8  A    between atoms: C_18  and  C_19 
ROOT
HETATM    1  C   UNL     1      -7.613   2.699 -31.062  1.00  0.00     0.227 C 
ENDROOT
BRANCH   1   2
HETATM    2  C   UNL     1      -6.936   1.349 -31.304  1.00  0.00     0.255 C 
HETATM    3  N   UNL     1      -7.308   0.719 -32.480  1.00  0.00    -0.246 N 
HETATM    4  H   UNL     1      -7.859   1.226 -33.168  1.00  0.00     0.192 HD
HETATM    5  O   UNL     1      -6.217   0.837 -30.444  1.00  0.00    -0.270 OA
BRANCH   3   6
HETATM    6  N   UNL     1      -6.800  -0.514 -32.754  1.00  0.00    -0.176 NA
HETATM    7  C   UNL     1      -6.742  -0.931 -33.985  1.00  0.00     0.064 C 
HETATM    8  C   UNL     1      -7.272  -0.147 -35.160  1.00  0.00     0.073 C 
BRANCH   7   9
HETATM    9  C   UNL     1      -6.129  -2.274 -34.237  1.00  0.00     0.023 A 
HETATM   10  C   UNL     1      -4.765  -2.492 -33.992  1.00  0.00     0.077 A 
HETATM   11  C   UNL     1      -4.199  -3.751 -34.195  1.00  0.00     0.037 A 
HETATM   12  C   UNL     1      -4.985  -4.802 -34.666  1.00  0.00     0.003 A 
HETATM   13  C   UNL     1      -6.334  -4.591 -34.942  1.00  0.00     0.001 A 
HETATM   14  C   UNL     1      -6.906  -3.332 -34.731  1.00  0.00     0.016 A 
BRANCH  10  15
HETATM   15  O   UNL     1      -3.913  -1.518 -33.545  1.00  0.00    -0.360 OA
HETATM   16  H   UNL     1      -3.960  -0.758 -34.171  1.00  0.00     0.217 HD
ENDBRANCH  10  15
ENDBRANCH   7   9
ENDBRANCH   3   6
ENDBRANCH   1   2
BRANCH   1  17
HETATM   17  N   UNL     1      -7.063   3.849 -31.763  1.00  0.00    -0.351 N 
HETATM   18  C   UNL     1      -7.363   4.108 -33.083  1.00  0.00     0.235 C 
HETATM   19  O   UNL     1      -8.235   3.512 -33.708  1.00  0.00    -0.272 OA
HETATM   20  H   UNL     1      -6.504   4.530 -31.254  1.00  0.00     0.163 HD
BRANCH  18  21
HETATM   21  C   UNL     1      -6.559   5.259 -33.687  1.00  0.00     0.225 C 
BRANCH  21  22
HETATM   22  N   UNL     1      -5.258   5.382 -33.067  1.00  0.00    -0.348 N 
HETATM   23  C   UNL     1      -4.112   5.503 -33.809  1.00  0.00     0.253 C 
HETATM   24  O   UNL     1      -4.142   5.380 -35.034  1.00  0.00    -0.268 OA
HETATM   25  H   UNL     1      -5.215   5.356 -32.054  1.00  0.00     0.163 HD
BRANCH  23  26
HETATM   26  C   UNL     1      -2.814   5.768 -33.103  1.00  0.00     0.053 A 
HETATM   27  C   UNL     1      -2.161   4.916 -32.195  1.00  0.00     0.049 A 
HETATM   28 CL   UNL     1      -2.762   3.376 -31.687  1.00  0.00    -0.083 Cl
HETATM   29  C   UNL     1      -0.931   5.295 -31.632  1.00  0.00     0.025 A 
HETATM   30  C   UNL     1      -0.338   6.512 -31.959  1.00  0.00     0.002 A 
HETATM   31  C   UNL     1      -0.977   7.371 -32.845  1.00  0.00     0.001 A 
HETATM   32  C   UNL     1      -2.204   7.005 -33.402  1.00  0.00     0.019 A 
ENDBRANCH  23  26
ENDBRANCH  21  22
ENDBRANCH  18  21
ENDBRANCH   1  17
TORSDOF 8
ENDMDL
MODEL 3
REMARK VINA RESULT:      -8.7      4.781      7.841
REMARK  8 active torsions:
REMARK  status: ('A' for Active; 'I' for Inactive)
REMARK    1  A    between atoms: C_2  and  C_3 
REMARK    2  A    between atoms: C_4  and  O_5 
REMARK    3  A    between atoms: N_10  and  N_11 
REMARK       I    between atoms: N_11  and  C_12 
REMARK    4  A    between atoms: C_12  and  C_13 
REMARK    5  A    between atoms: C_13  and  N_14 
REMARK       I    between atoms: N_14  and  C_15 
REMARK    6  A    between atoms: C_15  and  C_16 
REMARK    7  A    between atoms: C_16  and  N_17 
REMARK       I    between atoms: N_17  and  C_18 
REMARK    8  A    between atoms: C_18  and  C_19 
ROOT
HETATM    1  C   UNL     1      -6.344   3.295 -31.787  1.00  0.00     0.227 C 
ENDROOT
BRANCH   1   2
HETATM    2  C   UNL     1      -5.827   1.862 -31.933  1.00  0.00     0.255 C 
HETATM    3  N   UNL     1      -6.489   1.103 -32.884  1.00  0.00    -0.246 N 
HETATM    4  H   UNL     1      -7.144   1.554 -33.518  1.00  0.00     0.192 HD
HETATM    5  O   UNL     1      -4.971   1.416 -31.168  1.00  0.00    -0.270 OA
BRANCH   3   6
HETATM    6  N   UNL     1      -6.136  -0.202 -33.046  1.00  0.00    -0.176 NA
HETATM    7  C   UNL     1      -6.366  -0.799 -34.178  1.00  0.00     0.064 C 
HETATM    8  C   UNL     1      -7.077  -0.146 -35.339  1.00  0.00     0.073 C 
BRANCH   7   9
HETATM    9  C   UNL     1      -5.914  -2.219 -34.321  1.00  0.00     0.023 A 
HETATM   10  C   UNL     1      -4.613  -2.593 -33.952  1.00  0.00     0.077 A 
HETATM   11  C   UNL     1      -4.201  -3.922 -34.053  1.00  0.00     0.037 A 
HETATM   12  C   UNL     1      -5.076  -4.889 -34.546  1.00  0.00     0.003 A 
HETATM   13  C   UNL     1      -6.360  -4.525 -34.945  1.00  0.00     0.001 A 
HETATM   14  C   UNL     1      -6.779  -3.196 -34.836  1.00  0.00     0.016 A 
BRANCH  10  15
HETATM   15  O   UNL     1      -3.681  -1.712 -33.475  1.00  0.00    -0.360 OA
HETATM   16  H   UNL     1      -3.391  -2.023 -32.586  1.00  0.00     0.217 HD
ENDBRANCH  10  15
ENDBRANCH   7   9
ENDBRANCH   3   6
ENDBRANCH   1   2
BRANCH   1  17
HETATM   17  N   UNL     1      -7.588   3.620 -32.468  1.00  0.00    -0.351 N 
HETATM   18  C   UNL     1      -7.612   4.381 -33.616  1.00  0.00     0.235 C 
HETATM   19  O   UNL     1      -6.604   4.689 -34.245  1.00  0.00    -0.272 OA
HETATM   20  H   UNL     1      -8.463   3.214 -32.141  1.00  0.00     0.163 HD
BRANCH  18  21
HETATM   21  C   UNL     1      -9.019   4.754 -34.084  1.00  0.00     0.225 C 
BRANCH  21  22
HETATM   22  N   UNL     1      -9.974   3.710 -33.782  1.00  0.00    -0.348 N 
HETATM   23  C   UNL     1     -10.905   3.296 -34.699  1.00  0.00     0.253 C 
HETATM   24  O   UNL     1     -11.042   3.893 -35.768  1.00  0.00    -0.268 OA
HETATM   25  H   UNL     1      -9.947   3.301 -32.854  1.00  0.00     0.163 HD
BRANCH  23  26
HETATM   26  C   UNL     1     -11.772   2.115 -34.371  1.00  0.00     0.053 A 
HETATM   27  C   UNL     1     -11.386   0.954 -33.682  1.00  0.00     0.049 A 
HETATM   28 CL   UNL     1      -9.789   0.648 -33.090  1.00  0.00    -0.083 Cl
HETATM   29  C   UNL     1     -12.323  -0.062 -33.429  1.00  0.00     0.025 A 
HETATM   30  C   UNL     1     -13.644   0.061 -33.852  1.00  0.00     0.002 A 
HETATM   31  C   UNL     1     -14.039   1.198 -34.547  1.00  0.00     0.001 A 
HETATM   32  C   UNL     1     -13.110   2.207 -34.810  1.00  0.00     0.019 A 
ENDBRANCH  23  26
ENDBRANCH  21  22
ENDBRANCH  18  21
ENDBRANCH   1  17
TORSDOF 8
ENDMDL
MODEL 4
REMARK VINA RESULT:      -8.6      2.811     10.330
REMARK  8 active torsions:
REMARK  status: ('A' for Active; 'I' for Inactive)
REMARK    1  A    between atoms: C_2  and  C_3 
REMARK    2  A    between atoms: C_4  and  O_5 
REMARK    3  A    between atoms: N_10  and  N_11 
REMARK       I    between atoms: N_11  and  C_12 
REMARK    4  A    between atoms: C_12  and  C_13 
REMARK    5  A    between atoms: C_13  and  N_14 
REMARK       I    between atoms: N_14  and  C_15 
REMARK    6  A    between atoms: C_15  and  C_16 
REMARK    7  A    between atoms: C_16  and  N_17 
REMARK       I    between atoms: N_17  and  C_18 
REMARK    8  A    between atoms: C_18  and  C_19 
ROOT
HETATM    1  C   UNL     1      -2.085   4.589 -33.218  1.00  0.00     0.227 C 
ENDROOT
BRANCH   1   2
HETATM    2  C   UNL     1      -1.567   5.600 -32.193  1.00  0.00     0.255 C 
HETATM    3  N   UNL     1      -1.515   5.128 -30.892  1.00  0.00    -0.246 N 
HETATM    4  H   UNL     1      -1.663   4.138 -30.710  1.00  0.00     0.192 HD
HETATM    5  O   UNL     1      -1.338   6.767 -32.514  1.00  0.00    -0.270 OA
BRANCH   3   6
HETATM    6  N   UNL     1      -1.120   5.975 -29.901  1.00  0.00    -0.176 NA
HETATM    7  C   UNL     1       0.050   5.827 -29.353  1.00  0.00     0.064 C 
HETATM    8  C   UNL     1       1.005   4.712 -29.703  1.00  0.00     0.073 C 
BRANCH   7   9
HETATM    9  C   UNL     1       0.457   6.815 -28.303  1.00  0.00     0.023 A 
HETATM   10  C   UNL     1       0.097   6.617 -26.961  1.00  0.00     0.077 A 
HETATM   11  C   UNL     1       0.503   7.518 -25.976  1.00  0.00     0.037 A 
HETATM   12  C   UNL     1       1.254   8.640 -26.324  1.00  0.00     0.003 A 
HETATM   13  C   UNL     1       1.591   8.865 -27.657  1.00  0.00     0.001 A 
HETATM   14  C   UNL     1       1.194   7.958 -28.645  1.00  0.00     0.016 A 
BRANCH  10  15
HETATM   15  O   UNL     1      -0.651   5.555 -26.529  1.00  0.00    -0.360 OA
HETATM   16  H   UNL     1      -0.440   5.396 -25.579  1.00  0.00     0.217 HD
ENDBRANCH  10  15
ENDBRANCH   7   9
ENDBRANCH   3   6
ENDBRANCH   1   2
BRANCH   1  17
HETATM   17  N   UNL     1      -3.047   3.604 -32.746  1.00  0.00    -0.351 N 
HETATM   18  C   UNL     1      -4.401   3.859 -32.733  1.00  0.00     0.235 C 
HETATM   19  O   UNL     1      -4.910   4.838 -33.270  1.00  0.00    -0.272 OA
HETATM   20  H   UNL     1      -2.730   2.671 -32.491  1.00  0.00     0.163 HD
BRANCH  18  21
HETATM   21  C   UNL     1      -5.230   2.772 -32.048  1.00  0.00     0.225 C 
BRANCH  21  22
HETATM   22  N   UNL     1      -4.983   1.470 -32.628  1.00  0.00    -0.348 N 
HETATM   23  C   UNL     1      -5.884   0.444 -32.510  1.00  0.00     0.253 C 
HETATM   24  O   UNL     1      -6.879   0.563 -31.793  1.00  0.00    -0.268 OA
HETATM   25  H   UNL     1      -4.103   1.330 -33.113  1.00  0.00     0.163 HD
BRANCH  23  26
HETATM   26  C   UNL     1      -5.630  -0.835 -33.253  1.00  0.00     0.053 A 
HETATM   27  C   UNL     1      -4.470  -1.625 -33.194  1.00  0.00     0.049 A 
HETATM   28 CL   UNL     1      -3.070  -1.247 -32.251  1.00  0.00    -0.083 Cl
HETATM   29  C   UNL     1      -4.390  -2.817 -33.934  1.00  0.00     0.025 A 
HETATM   30  C   UNL     1      -5.450  -3.236 -34.734  1.00  0.00     0.002 A 
HETATM   31  C   UNL     1      -6.599  -2.459 -34.813  1.00  0.00     0.001 A 
HETATM   32  C   UNL     1      -6.682  -1.269 -34.088  1.00  0.00     0.019 A 
ENDBRANCH  23  26
ENDBRANCH  21  22
ENDBRANCH  18  21
ENDBRANCH   1  17
TORSDOF 8
ENDMDL
MODEL 5
REMARK VINA RESULT:      -8.5      2.392      9.928
REMARK  8 active torsions:
REMARK  status: ('A' for Active; 'I' for Inactive)
REMARK    1  A    between atoms: C_2  and  C_3 
REMARK    2  A    between atoms: C_4  and  O_5 
REMARK    3  A    between atoms: N_10  and  N_11 
REMARK       I    between atoms: N_11  and  C_12 
REMARK    4  A    between atoms: C_12  and  C_13 
REMARK    5  A    between atoms: C_13  and  N_14 
REMARK       I    between atoms: N_14  and  C_15 
REMARK    6  A    between atoms: C_15  and  C_16 
REMARK    7  A    between atoms: C_16  and  N_17 
REMARK       I    between atoms: N_17  and  C_18 
REMARK    8  A    between atoms: C_18  and  C_19 
ROOT
HETATM    1  C   UNL     1      -4.876   4.711 -34.076  1.00  0.00     0.227 C 
ENDROOT
BRANCH   1   2
HETATM    2  C   UNL     1      -4.179   5.202 -32.806  1.00  0.00     0.255 C 
HETATM    3  N   UNL     1      -2.867   4.780 -32.668  1.00  0.00    -0.246 N 
HETATM    4  H   UNL     1      -2.402   4.323 -33.448  1.00  0.00     0.192 HD
HETATM    5  O   UNL     1      -4.800   5.820 -31.940  1.00  0.00    -0.270 OA
BRANCH   3   6
HETATM    6  N   UNL     1      -2.182   5.121 -31.541  1.00  0.00    -0.176 NA
HETATM    7  C   UNL     1      -1.287   6.065 -31.589  1.00  0.00     0.064 C 
HETATM    8  C   UNL     1      -0.897   6.786 -32.856  1.00  0.00     0.073 C 
BRANCH   7   9
HETATM    9  C   UNL     1      -0.598   6.436 -30.312  1.00  0.00     0.023 A 
HETATM   10  C   UNL     1       0.084   5.465 -29.562  1.00  0.00     0.077 A 
HETATM   11  C   UNL     1       0.755   5.815 -28.390  1.00  0.00     0.037 A 
HETATM   12  C   UNL     1       0.733   7.135 -27.941  1.00  0.00     0.003 A 
HETATM   13  C   UNL     1       0.033   8.102 -28.659  1.00  0.00     0.001 A 
HETATM   14  C   UNL     1      -0.632   7.756 -29.839  1.00  0.00     0.016 A 
BRANCH  10  15
HETATM   15  O   UNL     1       0.145   4.144 -29.916  1.00  0.00    -0.360 OA
HETATM   16  H   UNL     1      -0.730   3.734 -29.724  1.00  0.00     0.217 HD
ENDBRANCH  10  15
ENDBRANCH   7   9
ENDBRANCH   3   6
ENDBRANCH   1   2
BRANCH   1  17
HETATM   17  N   UNL     1      -5.943   3.735 -33.908  1.00  0.00    -0.351 N 
HETATM   18  C   UNL     1      -5.726   2.519 -33.297  1.00  0.00     0.235 C 
HETATM   19  O   UNL     1      -4.692   2.237 -32.700  1.00  0.00    -0.272 OA
HETATM   20  H   UNL     1      -6.895   3.978 -34.174  1.00  0.00     0.163 HD
BRANCH  18  21
HETATM   21  C   UNL     1      -6.922   1.569 -33.367  1.00  0.00     0.225 C 
BRANCH  21  22
HETATM   22  N   UNL     1      -6.501   0.185 -33.365  1.00  0.00    -0.348 N 
HETATM   23  C   UNL     1      -6.534  -0.581 -34.502  1.00  0.00     0.253 C 
HETATM   24  O   UNL     1      -7.046  -0.149 -35.535  1.00  0.00    -0.268 OA
HETATM   25  H   UNL     1      -6.198  -0.214 -32.484  1.00  0.00     0.163 HD
BRANCH  23  26
HETATM   26  C   UNL     1      -5.953  -1.965 -34.462  1.00  0.00     0.053 A 
HETATM   27  C   UNL     1      -4.670  -2.326 -34.018  1.00  0.00     0.049 A 
HETATM   28 CL   UNL     1      -3.478  -1.210 -33.446  1.00  0.00    -0.083 Cl
HETATM   29  C   UNL     1      -4.276  -3.674 -34.019  1.00  0.00     0.025 A 
HETATM   30  C   UNL     1      -5.143  -4.673 -34.456  1.00  0.00     0.002 A 
HETATM   31  C   UNL     1      -6.411  -4.331 -34.910  1.00  0.00     0.001 A 
HETATM   32  C   UNL     1      -6.805  -2.992 -34.921  1.00  0.00     0.019 A 
ENDBRANCH  23  26
ENDBRANCH  21  22
ENDBRANCH  18  21
ENDBRANCH   1  17
TORSDOF 8
ENDMDL
MODEL 6
REMARK VINA RESULT:      -8.5      4.168      7.147
REMARK  8 active torsions:
REMARK  status: ('A' for Active; 'I' for Inactive)
REMARK    1  A    between atoms: C_2  and  C_3 
REMARK    2  A    between atoms: C_4  and  O_5 
REMARK    3  A    between atoms: N_10  and  N_11 
REMARK       I    between atoms: N_11  and  C_12 
REMARK    4  A    between atoms: C_12  and  C_13 
REMARK    5  A    between atoms: C_13  and  N_14 
REMARK       I    between atoms: N_14  and  C_15 
REMARK    6  A    between atoms: C_15  and  C_16 
REMARK    7  A    between atoms: C_16  and  N_17 
REMARK       I    between atoms: N_17  and  C_18 
REMARK    8  A    between atoms: C_18  and  C_19 
ROOT
HETATM    1  C   UNL     1      -4.899   3.628 -32.109  1.00  0.00     0.227 C 
ENDROOT
BRANCH   1   2
HETATM    2  C   UNL     1      -4.613   2.166 -32.454  1.00  0.00     0.255 C 
HETATM    3  N   UNL     1      -5.742   1.386 -32.648  1.00  0.00    -0.246 N 
HETATM    4  H   UNL     1      -6.655   1.831 -32.706  1.00  0.00     0.192 HD
HETATM    5  O   UNL     1      -3.464   1.723 -32.434  1.00  0.00    -0.270 OA
BRANCH   3   6
HETATM    6  N   UNL     1      -5.588   0.058 -32.903  1.00  0.00    -0.176 NA
HETATM    7  C   UNL     1      -6.127  -0.463 -33.967  1.00  0.00     0.064 C 
HETATM    8  C   UNL     1      -6.992   0.311 -34.932  1.00  0.00     0.073 C 
BRANCH   7   9
HETATM    9  C   UNL     1      -5.886  -1.917 -34.228  1.00  0.00     0.023 A 
HETATM   10  C   UNL     1      -4.638  -2.494 -33.949  1.00  0.00     0.077 A 
HETATM   11  C   UNL     1      -4.422  -3.856 -34.161  1.00  0.00     0.037 A 
HETATM   12  C   UNL     1      -5.443  -4.653 -34.675  1.00  0.00     0.003 A 
HETATM   13  C   UNL     1      -6.678  -4.087 -34.985  1.00  0.00     0.001 A 
HETATM   14  C   UNL     1      -6.900  -2.724 -34.765  1.00  0.00     0.016 A 
BRANCH  10  15
HETATM   15  O   UNL     1      -3.573  -1.788 -33.459  1.00  0.00    -0.360 OA
HETATM   16  H   UNL     1      -2.968  -2.420 -33.004  1.00  0.00     0.217 HD
ENDBRANCH  10  15
ENDBRANCH   7   9
ENDBRANCH   3   6
ENDBRANCH   1   2
BRANCH   1  17
HETATM   17  N   UNL     1      -6.231   4.130 -32.413  1.00  0.00    -0.351 N 
HETATM   18  C   UNL     1      -6.515   4.762 -33.604  1.00  0.00     0.235 C 
HETATM   19  O   UNL     1      -5.740   4.795 -34.554  1.00  0.00    -0.272 OA
HETATM   20  H   UNL     1      -6.998   3.945 -31.771  1.00  0.00     0.163 HD
BRANCH  18  21
HETATM   21  C   UNL     1      -7.919   5.365 -33.666  1.00  0.00     0.225 C 
BRANCH  21  22
HETATM   22  N   UNL     1      -8.896   4.393 -34.105  1.00  0.00    -0.348 N 
HETATM   23  C   UNL     1      -9.557   3.582 -33.219  1.00  0.00     0.253 C 
HETATM   24  O   UNL     1      -9.244   3.567 -32.028  1.00  0.00    -0.268 OA
HETATM   25  H   UNL     1      -9.065   4.313 -35.102  1.00  0.00     0.163 HD
BRANCH  23  26
HETATM   26  C   UNL     1     -10.657   2.695 -33.727  1.00  0.00     0.053 A 
HETATM   27  C   UNL     1     -10.833   1.330 -33.447  1.00  0.00     0.049 A 
HETATM   28 CL   UNL     1      -9.771   0.384 -32.462  1.00  0.00    -0.083 Cl
HETATM   29  C   UNL     1     -11.932   0.636 -33.980  1.00  0.00     0.025 A 
HETATM   30  C   UNL     1     -12.863   1.283 -34.789  1.00  0.00     0.002 A 
HETATM   31  C   UNL     1     -12.696   2.630 -35.086  1.00  0.00     0.001 A 
HETATM   32  C   UNL     1     -11.600   3.323 -34.568  1.00  0.00     0.019 A 
ENDBRANCH  23  26
ENDBRANCH  21  22
ENDBRANCH  18  21
ENDBRANCH   1  17
TORSDOF 8
ENDMDL
MODEL 7
REMARK VINA RESULT:      -8.4      4.906      8.606
REMARK  8 active torsions:
REMARK  status: ('A' for Active; 'I' for Inactive)
REMARK    1  A    between atoms: C_2  and  C_3 
REMARK    2  A    between atoms: C_4  and  O_5 
REMARK    3  A    between atoms: N_10  and  N_11 
REMARK       I    between atoms: N_11  and  C_12 
REMARK    4  A    between atoms: C_12  and  C_13 
REMARK    5  A    between atoms: C_13  and  N_14 
REMARK       I    between atoms: N_14  and  C_15 
REMARK    6  A    between atoms: C_15  and  C_16 
REMARK    7  A    between atoms: C_16  and  N_17 
REMARK       I    between atoms: N_17  and  C_18 
REMARK    8  A    between atoms: C_18  and  C_19 
ROOT
HETATM    1  C   UNL     1      -5.647   2.580 -30.261  1.00  0.00     0.227 C 
ENDROOT
BRANCH   1   2
HETATM    2  C   UNL     1      -6.771   2.884 -31.253  1.00  0.00     0.255 C 
HETATM    3  N   UNL     1      -7.974   2.256 -30.973  1.00  0.00    -0.246 N 
HETATM    4  H   UNL     1      -8.095   1.777 -30.084  1.00  0.00     0.192 HD
HETATM    5  O   UNL     1      -6.556   3.540 -32.273  1.00  0.00    -0.270 OA
BRANCH   3   6
HETATM    6  N   UNL     1      -9.017   2.422 -31.833  1.00  0.00    -0.176 NA
HETATM    7  C   UNL     1      -9.400   1.431 -32.584  1.00  0.00     0.064 C 
HETATM    8  C   UNL     1      -8.708   0.090 -32.618  1.00  0.00     0.073 C 
BRANCH   7   9
HETATM    9  C   UNL     1     -10.583   1.649 -33.475  1.00  0.00     0.023 A 
HETATM   10  C   UNL     1     -10.637   2.763 -34.327  1.00  0.00     0.077 A 
HETATM   11  C   UNL     1     -11.724   2.950 -35.183  1.00  0.00     0.037 A 
HETATM   12  C   UNL     1     -12.779   2.040 -35.180  1.00  0.00     0.003 A 
HETATM   13  C   UNL     1     -12.752   0.947 -34.317  1.00  0.00     0.001 A 
HETATM   14  C   UNL     1     -11.661   0.751 -33.465  1.00  0.00     0.016 A 
BRANCH  10  15
HETATM   15  O   UNL     1      -9.657   3.717 -34.386  1.00  0.00    -0.360 OA
HETATM   16  H   UNL     1      -9.298   3.733 -35.304  1.00  0.00     0.217 HD
ENDBRANCH  10  15
ENDBRANCH   7   9
ENDBRANCH   3   6
ENDBRANCH   1   2
BRANCH   1  17
HETATM   17  N   UNL     1      -4.834   1.402 -30.524  1.00  0.00    -0.351 N 
HETATM   18  C   UNL     1      -3.614   1.488 -31.157  1.00  0.00     0.235 C 
HETATM   19  O   UNL     1      -3.042   2.551 -31.384  1.00  0.00    -0.272 OA
HETATM   20  H   UNL     1      -5.128   0.496 -30.166  1.00  0.00     0.163 HD
BRANCH  18  21
HETATM   21  C   UNL     1      -2.992   0.132 -31.493  1.00  0.00     0.225 C 
BRANCH  21  22
HETATM   22  N   UNL     1      -3.774  -0.582 -32.478  1.00  0.00    -0.348 N 
HETATM   23  C   UNL     1      -3.746  -1.949 -32.570  1.00  0.00     0.253 C 
HETATM   24  O   UNL     1      -2.951  -2.607 -31.897  1.00  0.00    -0.268 OA
HETATM   25  H   UNL     1      -4.336  -0.034 -33.120  1.00  0.00     0.163 HD
BRANCH  23  26
HETATM   26  C   UNL     1      -4.686  -2.633 -33.519  1.00  0.00     0.053 A 
HETATM   27  C   UNL     1      -4.539  -3.918 -34.069  1.00  0.00     0.049 A 
HETATM   28 CL   UNL     1      -3.196  -4.966 -33.770  1.00  0.00    -0.083 Cl
HETATM   29  C   UNL     1      -5.522  -4.434 -34.930  1.00  0.00     0.025 A 
HETATM   30  C   UNL     1      -6.654  -3.690 -35.252  1.00  0.00     0.002 A 
HETATM   31  C   UNL     1      -6.809  -2.413 -34.726  1.00  0.00     0.001 A 
HETATM   32  C   UNL     1      -5.831  -1.890 -33.878  1.00  0.00     0.019 A 
ENDBRANCH  23  26
ENDBRANCH  21  22
ENDBRANCH  18  21
ENDBRANCH   1  17
TORSDOF 8
ENDMDL
MODEL 8
REMARK VINA RESULT:      -8.3      1.950      2.523
REMARK  8 active torsions:
REMARK  status: ('A' for Active; 'I' for Inactive)
REMARK    1  A    between atoms: C_2  and  C_3 
REMARK    2  A    between atoms: C_4  and  O_5 
REMARK    3  A    between atoms: N_10  and  N_11 
REMARK       I    between atoms: N_11  and  C_12 
REMARK    4  A    between atoms: C_12  and  C_13 
REMARK    5  A    between atoms: C_13  and  N_14 
REMARK       I    between atoms: N_14  and  C_15 
REMARK    6  A    between atoms: C_15  and  C_16 
REMARK    7  A    between atoms: C_16  and  N_17 
REMARK       I    between atoms: N_17  and  C_18 
REMARK    8  A    between atoms: C_18  and  C_19 
ROOT
HETATM    1  C   UNL     1      -7.040   3.315 -32.287  1.00  0.00     0.227 C 
ENDROOT
BRANCH   1   2
HETATM    2  C   UNL     1      -6.363   1.974 -32.577  1.00  0.00     0.255 C 
HETATM    3  N   UNL     1      -7.236   0.910 -32.735  1.00  0.00    -0.246 N 
HETATM    4  H   UNL     1      -8.235   1.086 -32.806  1.00  0.00     0.192 HD
HETATM    5  O   UNL     1      -5.137   1.863 -32.546  1.00  0.00    -0.270 OA
BRANCH   3   6
HETATM    6  N   UNL     1      -6.723  -0.335 -32.940  1.00  0.00    -0.176 NA
HETATM    7  C   UNL     1      -6.811  -0.885 -34.115  1.00  0.00     0.064 C 
HETATM    8  C   UNL     1      -7.519  -0.249 -35.287  1.00  0.00     0.073 C 
BRANCH   7   9
HETATM    9  C   UNL     1      -6.188  -2.234 -34.301  1.00  0.00     0.023 A 
HETATM   10  C   UNL     1      -4.820  -2.428 -34.052  1.00  0.00     0.077 A 
HETATM   11  C   UNL     1      -4.245  -3.691 -34.192  1.00  0.00     0.037 A 
HETATM   12  C   UNL     1      -5.024  -4.771 -34.606  1.00  0.00     0.003 A 
HETATM   13  C   UNL     1      -6.376  -4.585 -34.886  1.00  0.00     0.001 A 
HETATM   14  C   UNL     1      -6.957  -3.323 -34.737  1.00  0.00     0.016 A 
BRANCH  10  15
HETATM   15  O   UNL     1      -3.975  -1.425 -33.659  1.00  0.00    -0.360 OA
HETATM   16  H   UNL     1      -4.136  -1.244 -32.704  1.00  0.00     0.217 HD
ENDBRANCH  10  15
ENDBRANCH   7   9
ENDBRANCH   3   6
ENDBRANCH   1   2
BRANCH   1  17
HETATM   17  N   UNL     1      -6.286   4.279 -31.501  1.00  0.00    -0.351 N 
HETATM   18  C   UNL     1      -6.485   4.427 -30.145  1.00  0.00     0.235 C 
HETATM   19  O   UNL     1      -7.166   3.657 -29.474  1.00  0.00    -0.272 OA
HETATM   20  H   UNL     1      -5.533   4.807 -31.937  1.00  0.00     0.163 HD
BRANCH  18  21
HETATM   21  C   UNL     1      -5.722   5.600 -29.530  1.00  0.00     0.225 C 
BRANCH  21  22
HETATM   22  N   UNL     1      -4.301   5.501 -29.782  1.00  0.00    -0.348 N 
HETATM   23  C   UNL     1      -3.648   6.393 -30.592  1.00  0.00     0.253 C 
HETATM   24  O   UNL     1      -4.276   7.234 -31.236  1.00  0.00    -0.268 OA
HETATM   25  H   UNL     1      -3.800   4.731 -29.353  1.00  0.00     0.163 HD
BRANCH  23  26
HETATM   26  C   UNL     1      -2.152   6.317 -30.698  1.00  0.00     0.053 A 
HETATM   27  C   UNL     1      -1.411   5.459 -31.528  1.00  0.00     0.049 A 
HETATM   28 CL   UNL     1      -2.101   4.281 -32.590  1.00  0.00    -0.083 Cl
HETATM   29  C   UNL     1      -0.007   5.523 -31.535  1.00  0.00     0.025 A 
HETATM   30  C   UNL     1       0.672   6.430 -30.725  1.00  0.00     0.002 A 
HETATM   31  C   UNL     1      -0.046   7.275 -29.889  1.00  0.00     0.001 A 
HETATM   32  C   UNL     1      -1.440   7.212 -29.871  1.00  0.00     0.019 A 
ENDBRANCH  23  26
ENDBRANCH  21  22
ENDBRANCH  18  21
ENDBRANCH   1  17
TORSDOF 8
ENDMDL
MODEL 9
REMARK VINA RESULT:      -8.2      2.832     10.882
REMARK  8 active torsions:
REMARK  status: ('A' for Active; 'I' for Inactive)
REMARK    1  A    between atoms: C_2  and  C_3 
REMARK    2  A    between atoms: C_4  and  O_5 
REMARK    3  A    between atoms: N_10  and  N_11 
REMARK       I    between atoms: N_11  and  C_12 
REMARK    4  A    between atoms: C_12  and  C_13 
REMARK    5  A    between atoms: C_13  and  N_14 
REMARK       I    between atoms: N_14  and  C_15 
REMARK    6  A    between atoms: C_15  and  C_16 
REMARK    7  A    between atoms: C_16  and  N_17 
REMARK       I    between atoms: N_17  and  C_18 
REMARK    8  A    between atoms: C_18  and  C_19 
ROOT
HETATM    1  C   UNL     1      -3.842   4.176 -32.253  1.00  0.00     0.227 C 
ENDROOT
BRANCH   1   2
HETATM    2  C   UNL     1      -3.492   5.164 -31.139  1.00  0.00     0.255 C 
HETATM    3  N   UNL     1      -2.146   5.482 -31.051  1.00  0.00    -0.246 N 
HETATM    4  H   UNL     1      -1.512   5.186 -31.789  1.00  0.00     0.192 HD
HETATM    5  O   UNL     1      -4.342   5.533 -30.328  1.00  0.00    -0.270 OA
BRANCH   3   6
HETATM    6  N   UNL     1      -1.730   6.310 -30.054  1.00  0.00    -0.176 NA
HETATM    7  C   UNL     1      -0.588   6.923 -30.157  1.00  0.00     0.064 C 
HETATM    8  C   UNL     1       0.368   6.726 -31.309  1.00  0.00     0.073 C 
BRANCH   7   9
HETATM    9  C   UNL     1      -0.199   7.861 -29.056  1.00  0.00     0.023 A 
HETATM   10  C   UNL     1      -1.132   8.768 -28.530  1.00  0.00     0.077 A 
HETATM   11  C   UNL     1      -0.782   9.620 -27.482  1.00  0.00     0.037 A 
HETATM   12  C   UNL     1       0.511   9.592 -26.963  1.00  0.00     0.003 A 
HETATM   13  C   UNL     1       1.456   8.718 -27.496  1.00  0.00     0.001 A 
HETATM   14  C   UNL     1       1.105   7.857 -28.541  1.00  0.00     0.016 A 
BRANCH  10  15
HETATM   15  O   UNL     1      -2.418   8.879 -28.988  1.00  0.00    -0.360 OA
HETATM   16  H   UNL     1      -2.515   8.296 -29.777  1.00  0.00     0.217 HD
ENDBRANCH  10  15
ENDBRANCH   7   9
ENDBRANCH   3   6
ENDBRANCH   1   2
BRANCH   1  17
HETATM   17  N   UNL     1      -3.606   2.766 -31.984  1.00  0.00    -0.351 N 
HETATM   18  C   UNL     1      -4.566   1.966 -31.403  1.00  0.00     0.235 C 
HETATM   19  O   UNL     1      -5.729   2.319 -31.234  1.00  0.00    -0.272 OA
HETATM   20  H   UNL     1      -2.743   2.329 -32.300  1.00  0.00     0.163 HD
BRANCH  18  21
HETATM   21  C   UNL     1      -4.072   0.563 -31.048  1.00  0.00     0.225 C 
BRANCH  21  22
HETATM   22  N   UNL     1      -4.757  -0.452 -31.817  1.00  0.00    -0.348 N 
HETATM   23  C   UNL     1      -4.236  -0.950 -32.983  1.00  0.00     0.253 C 
HETATM   24  O   UNL     1      -3.224  -0.453 -33.481  1.00  0.00    -0.268 OA
HETATM   25  H   UNL     1      -5.656  -0.775 -31.476  1.00  0.00     0.163 HD
BRANCH  23  26
HETATM   26  C   UNL     1      -4.928  -2.099 -33.657  1.00  0.00     0.053 A 
HETATM   27  C   UNL     1      -6.226  -2.101 -34.194  1.00  0.00     0.049 A 
HETATM   28 CL   UNL     1      -7.308  -0.751 -34.154  1.00  0.00    -0.083 Cl
HETATM   29  C   UNL     1      -6.729  -3.254 -34.819  1.00  0.00     0.025 A 
HETATM   30  C   UNL     1      -5.958  -4.409 -34.918  1.00  0.00     0.002 A 
HETATM   31  C   UNL     1      -4.678  -4.428 -34.380  1.00  0.00     0.001 A 
HETATM   32  C   UNL     1      -4.174  -3.289 -33.749  1.00  0.00     0.019 A 
ENDBRANCH  23  26
ENDBRANCH  21  22
ENDBRANCH  18  21
ENDBRANCH   1  17
TORSDOF 8
ENDMDL
MODEL 10
REMARK VINA RESULT:      -8.2      1.792      1.974
REMARK  8 active torsions:
REMARK  status: ('A' for Active; 'I' for Inactive)
REMARK    1  A    between atoms: C_2  and  C_3 
REMARK    2  A    between atoms: C_4  and  O_5 
REMARK    3  A    between atoms: N_10  and  N_11 
REMARK       I    between atoms: N_11  and  C_12 
REMARK    4  A    between atoms: C_12  and  C_13 
REMARK    5  A    between atoms: C_13  and  N_14 
REMARK       I    between atoms: N_14  and  C_15 
REMARK    6  A    between atoms: C_15  and  C_16 
REMARK    7  A    between atoms: C_16  and  N_17 
REMARK       I    between atoms: N_17  and  C_18 
REMARK    8  A    between atoms: C_18  and  C_19 
ROOT
HETATM    1  C   UNL     1      -5.462   2.310 -30.078  1.00  0.00     0.227 C 
ENDROOT
BRANCH   1   2
HETATM    2  C   UNL     1      -5.596   0.856 -30.536  1.00  0.00     0.255 C 
HETATM    3  N   UNL     1      -4.879   0.543 -31.679  1.00  0.00    -0.246 N 
HETATM    4  H   UNL     1      -4.208   1.211 -32.050  1.00  0.00     0.192 HD
HETATM    5  O   UNL     1      -6.381   0.086 -29.981  1.00  0.00    -0.270 OA
BRANCH   3   6
HETATM    6  N   UNL     1      -4.981  -0.713 -32.195  1.00  0.00    -0.176 NA
HETATM    7  C   UNL     1      -5.538  -0.892 -33.358  1.00  0.00     0.064 C 
HETATM    8  C   UNL     1      -6.155   0.221 -34.170  1.00  0.00     0.073 C 
BRANCH   7   9
HETATM    9  C   UNL     1      -5.581  -2.286 -33.902  1.00  0.00     0.023 A 
HETATM   10  C   UNL     1      -4.488  -3.150 -33.735  1.00  0.00     0.077 A 
HETATM   11  C   UNL     1      -4.540  -4.460 -34.212  1.00  0.00     0.037 A 
HETATM   12  C   UNL     1      -5.674  -4.915 -34.883  1.00  0.00     0.003 A 
HETATM   13  C   UNL     1      -6.753  -4.057 -35.083  1.00  0.00     0.001 A 
HETATM   14  C   UNL     1      -6.709  -2.747 -34.598  1.00  0.00     0.016 A 
BRANCH  10  15
HETATM   15  O   UNL     1      -3.328  -2.787 -33.106  1.00  0.00    -0.360 OA
HETATM   16  H   UNL     1      -3.517  -1.999 -32.545  1.00  0.00     0.217 HD
ENDBRANCH  10  15
ENDBRANCH   7   9
ENDBRANCH   3   6
ENDBRANCH   1   2
BRANCH   1  17
HETATM   17  N   UNL     1      -4.303   3.048 -30.555  1.00  0.00    -0.351 N 
HETATM   18  C   UNL     1      -4.259   3.594 -31.819  1.00  0.00     0.235 C 
HETATM   19  O   UNL     1      -5.233   3.658 -32.563  1.00  0.00    -0.272 OA
HETATM   20  H   UNL     1      -3.531   3.241 -29.920  1.00  0.00     0.163 HD
BRANCH  18  21
HETATM   21  C   UNL     1      -2.898   4.183 -32.193  1.00  0.00     0.225 C 
BRANCH  21  22
HETATM   22  N   UNL     1      -2.291   4.870 -31.075  1.00  0.00    -0.348 N 
HETATM   23  C   UNL     1      -1.164   5.636 -31.223  1.00  0.00     0.253 C 
HETATM   24  O   UNL     1      -0.558   5.660 -32.295  1.00  0.00    -0.268 OA
HETATM   25  H   UNL     1      -2.716   4.750 -30.162  1.00  0.00     0.163 HD
BRANCH  23  26
HETATM   26  C   UNL     1      -0.667   6.433 -30.052  1.00  0.00     0.053 A 
HETATM   27  C   UNL     1       0.357   6.070 -29.161  1.00  0.00     0.049 A 
HETATM   28 CL   UNL     1       1.240   4.584 -29.233  1.00  0.00    -0.083 Cl
HETATM   29  C   UNL     1       0.728   6.938 -28.121  1.00  0.00     0.025 A 
HETATM   30  C   UNL     1       0.095   8.167 -27.953  1.00  0.00     0.002 A 
HETATM   31  C   UNL     1      -0.929   8.535 -28.817  1.00  0.00     0.001 A 
HETATM   32  C   UNL     1      -1.310   7.673 -29.848  1.00  0.00     0.019 A 
ENDBRANCH  23  26
ENDBRANCH  21  22
ENDBRANCH  18  21
ENDBRANCH   1  17
TORSDOF 8
ENDMDL
