MODEL 1
REMARK VINA RESULT:      -9.4      0.000      0.000
REMARK  6 active torsions:
REMARK  status: ('A' for Active; 'I' for Inactive)
REMARK    1  A    between atoms: O_2  and  C_3 
REMARK    2  A    between atoms: C_6  and  C_7 
REMARK    3  A    between atoms: C_9  and  N_10 
REMARK    4  A    between atoms: N_10  and  N_11 
REMARK       I    between atoms: N_10  and  C_21 
REMARK       I    between atoms: N_11  and  C_12 
REMARK       I    between atoms: C_12  and  N_13 
REMARK    5  A    between atoms: N_13  and  C_14 
REMARK       I    between atoms: C_21  and  N_22 
REMARK    6  A    between atoms: N_22  and  C_23 
ROOT
HETATM    1  N   UNL     1      -7.733   2.540 -32.878  1.00  0.00    -0.176 N 
HETATM    2  C   UNL     1      -7.572   1.136 -33.046  1.00  0.00     0.348 C 
HETATM    3  N   UNL     1      -6.329   0.810 -33.580  1.00  0.00    -0.307 N 
HETATM    4  O   UNL     1      -8.427   0.292 -32.792  1.00  0.00    -0.245 OA
HETATM    5  H   UNL     1      -5.907   1.568 -34.112  1.00  0.00     0.170 HD
ENDROOT
BRANCH   1   6
HETATM    6  C   UNL     1      -8.971   3.026 -32.452  1.00  0.00     0.197 A 
HETATM    7  N   UNL     1     -10.160   2.780 -32.950  1.00  0.00    -0.222 NA
HETATM    8  C   UNL     1     -11.155   3.345 -32.164  1.00  0.00     0.076 A 
HETATM    9  C   UNL     1     -10.682   4.127 -31.128  1.00  0.00     0.086 A 
HETATM   10  S   UNL     1      -8.971   4.060 -31.073  1.00  0.00    -0.060 SA
BRANCH   8  11
HETATM   11  C   UNL     1     -12.565   3.040 -32.409  1.00  0.00    -0.007 A 
HETATM   12  C   UNL     1     -13.604   3.616 -31.668  1.00  0.00     0.016 A 
HETATM   13  C   UNL     1     -14.931   3.221 -31.879  1.00  0.00     0.037 A 
HETATM   14  C   UNL     1     -15.248   2.247 -32.827  1.00  0.00     0.068 A 
HETATM   15  C   UNL     1     -14.226   1.690 -33.591  1.00  0.00     0.037 A 
HETATM   16  C   UNL     1     -12.898   2.086 -33.384  1.00  0.00     0.016 A 
BRANCH  14  17
HETATM   17  O   UNL     1     -16.576   1.935 -32.907  1.00  0.00    -0.356 OA
HETATM   18  C   UNL     1     -17.475   2.787 -32.206  1.00  0.00     0.210 C 
ENDBRANCH  14  17
ENDBRANCH   8  11
ENDBRANCH   1   6
BRANCH   1  19
HETATM   19  N   UNL     1      -6.602   3.330 -32.488  1.00  0.00    -0.239 N 
HETATM   20  C   UNL     1      -6.166   4.404 -33.219  1.00  0.00     0.335 C 
HETATM   21  N   UNL     1      -5.065   4.991 -32.651  1.00  0.00    -0.337 N 
HETATM   22  O   UNL     1      -6.659   4.749 -34.286  1.00  0.00    -0.246 OA
HETATM   23  H   UNL     1      -4.733   4.629 -31.769  1.00  0.00     0.164 HD
HETATM   24  H   UNL     1      -5.933   2.823 -31.924  1.00  0.00     0.192 HD
BRANCH  21  25
HETATM   25  C   UNL     1      -4.202   5.910 -33.385  1.00  0.00     0.086 C 
HETATM   26  C   UNL     1      -3.406   6.798 -32.422  1.00  0.00     0.025 C 
HETATM   27  C   UNL     1      -2.319   6.033 -31.665  1.00  0.00     0.002 C 
HETATM   28  C   UNL     1      -1.407   5.253 -32.609  1.00  0.00     0.000 C 
HETATM   29  C   UNL     1      -2.199   4.347 -33.547  1.00  0.00     0.002 C 
HETATM   30  C   UNL     1      -3.265   5.128 -34.317  1.00  0.00     0.025 C 
ENDBRANCH  21  25
ENDBRANCH   1  19
BRANCH   3  31
HETATM   31  C   UNL     1      -5.763  -0.460 -33.783  1.00  0.00     0.036 A 
HETATM   32  C   UNL     1      -6.249  -1.397 -34.697  1.00  0.00     0.031 A 
HETATM   33  C   UNL     1      -5.628  -2.645 -34.827  1.00  0.00     0.026 A 
HETATM   34  C   UNL     1      -4.527  -2.962 -34.035  1.00  0.00     0.034 A 
HETATM   35 CL   UNL     1      -3.769  -4.498 -34.193  1.00  0.00    -0.084 Cl
HETATM   36  C   UNL     1      -4.040  -2.042 -33.112  1.00  0.00     0.026 A 
HETATM   37  C   UNL     1      -4.657  -0.794 -32.987  1.00  0.00     0.031 A 
ENDBRANCH   3  31
TORSDOF 6
ENDMDL
MODEL 2
REMARK VINA RESULT:      -9.4      3.135      9.218
REMARK  6 active torsions:
REMARK  status: ('A' for Active; 'I' for Inactive)
REMARK    1  A    between atoms: O_2  and  C_3 
REMARK    2  A    between atoms: C_6  and  C_7 
REMARK    3  A    between atoms: C_9  and  N_10 
REMARK    4  A    between atoms: N_10  and  N_11 
REMARK       I    between atoms: N_10  and  C_21 
REMARK       I    between atoms: N_11  and  C_12 
REMARK       I    between atoms: C_12  and  N_13 
REMARK    5  A    between atoms: N_13  and  C_14 
REMARK       I    between atoms: C_21  and  N_22 
REMARK    6  A    between atoms: N_22  and  C_23 
ROOT
HETATM    1  N   UNL     1      -4.802   3.189 -32.096  1.00  0.00    -0.176 N 
HETATM    2  C   UNL     1      -4.039   2.009 -32.324  1.00  0.00     0.348 C 
HETATM    3  N   UNL     1      -4.818   0.858 -32.251  1.00  0.00    -0.307 N 
HETATM    4  O   UNL     1      -2.828   1.979 -32.526  1.00  0.00    -0.245 OA
HETATM    5  H   UNL     1      -5.659   0.975 -31.690  1.00  0.00     0.170 HD
ENDROOT
BRANCH   1   6
HETATM    6  C   UNL     1      -4.135   4.415 -32.031  1.00  0.00     0.197 A 
HETATM    7  N   UNL     1      -3.353   4.869 -31.080  1.00  0.00    -0.222 NA
HETATM    8  C   UNL     1      -2.774   6.077 -31.448  1.00  0.00     0.076 A 
HETATM    9  C   UNL     1      -3.234   6.583 -32.647  1.00  0.00     0.086 A 
HETATM   10  S   UNL     1      -4.320   5.475 -33.376  1.00  0.00    -0.060 SA
BRANCH   8  11
HETATM   11  C   UNL     1      -1.715   6.676 -30.634  1.00  0.00    -0.007 A 
HETATM   12  C   UNL     1      -0.378   6.721 -31.047  1.00  0.00     0.016 A 
HETATM   13  C   UNL     1       0.614   7.220 -30.193  1.00  0.00     0.037 A 
HETATM   14  C   UNL     1       0.293   7.681 -28.915  1.00  0.00     0.068 A 
HETATM   15  C   UNL     1      -1.038   7.670 -28.506  1.00  0.00     0.037 A 
HETATM   16  C   UNL     1      -2.031   7.174 -29.360  1.00  0.00     0.016 A 
BRANCH  14  17
HETATM   17  O   UNL     1       1.360   8.112 -28.177  1.00  0.00    -0.356 OA
HETATM   18  C   UNL     1       1.394   7.712 -26.812  1.00  0.00     0.210 C 
ENDBRANCH  14  17
ENDBRANCH   8  11
ENDBRANCH   1   6
BRANCH   1  19
HETATM   19  N   UNL     1      -6.148   3.253 -32.582  1.00  0.00    -0.239 N 
HETATM   20  C   UNL     1      -7.228   2.923 -31.806  1.00  0.00     0.335 C 
HETATM   21  N   UNL     1      -8.407   3.054 -32.495  1.00  0.00    -0.337 N 
HETATM   22  O   UNL     1      -7.141   2.496 -30.662  1.00  0.00    -0.246 OA
HETATM   23  H   UNL     1      -8.371   3.414 -33.437  1.00  0.00     0.164 HD
HETATM   24  H   UNL     1      -6.219   3.143 -33.585  1.00  0.00     0.192 HD
BRANCH  21  25
HETATM   25  C   UNL     1      -9.651   2.446 -32.037  1.00  0.00     0.086 C 
HETATM   26  C   UNL     1     -10.864   3.220 -32.569  1.00  0.00     0.025 C 
HETATM   27  C   UNL     1     -11.072   3.043 -34.073  1.00  0.00     0.002 C 
HETATM   28  C   UNL     1     -11.114   1.571 -34.475  1.00  0.00     0.000 C 
HETATM   29  C   UNL     1      -9.891   0.809 -33.971  1.00  0.00     0.002 C 
HETATM   30  C   UNL     1      -9.709   0.971 -32.461  1.00  0.00     0.025 C 
ENDBRANCH  21  25
ENDBRANCH   1  19
BRANCH   3  31
HETATM   31  C   UNL     1      -4.453  -0.471 -32.527  1.00  0.00     0.036 A 
HETATM   32  C   UNL     1      -3.587  -1.225 -31.733  1.00  0.00     0.031 A 
HETATM   33  C   UNL     1      -3.270  -2.542 -32.089  1.00  0.00     0.026 A 
HETATM   34  C   UNL     1      -3.811  -3.101 -33.244  1.00  0.00     0.034 A 
HETATM   35 CL   UNL     1      -3.416  -4.718 -33.681  1.00  0.00    -0.084 Cl
HETATM   36  C   UNL     1      -4.666  -2.357 -34.050  1.00  0.00     0.026 A 
HETATM   37  C   UNL     1      -4.986  -1.045 -33.690  1.00  0.00     0.031 A 
ENDBRANCH   3  31
TORSDOF 6
ENDMDL
MODEL 3
REMARK VINA RESULT:      -8.9      1.230      1.948
REMARK  6 active torsions:
REMARK  status: ('A' for Active; 'I' for Inactive)
REMARK    1  A    between atoms: O_2  and  C_3 
REMARK    2  A    between atoms: C_6  and  C_7 
REMARK    3  A    between atoms: C_9  and  N_10 
REMARK    4  A    between atoms: N_10  and  N_11 
REMARK       I    between atoms: N_10  and  C_21 
REMARK       I    between atoms: N_11  and  C_12 
REMARK       I    between atoms: C_12  and  N_13 
REMARK    5  A    between atoms: N_13  and  C_14 
REMARK       I    between atoms: C_21  and  N_22 
REMARK    6  A    between atoms: N_22  and  C_23 
ROOT
HETATM    1  N   UNL     1      -6.506   2.644 -32.179  1.00  0.00    -0.176 N 
HETATM    2  C   UNL     1      -6.432   1.223 -32.205  1.00  0.00     0.348 C 
HETATM    3  N   UNL     1      -5.272   0.769 -32.825  1.00  0.00    -0.307 N 
HETATM    4  O   UNL     1      -7.294   0.463 -31.772  1.00  0.00    -0.245 OA
HETATM    5  H   UNL     1      -4.875   1.440 -33.479  1.00  0.00     0.170 HD
ENDROOT
BRANCH   1   6
HETATM    6  C   UNL     1      -7.666   3.246 -31.684  1.00  0.00     0.197 A 
HETATM    7  N   UNL     1      -8.886   3.183 -32.163  1.00  0.00    -0.222 NA
HETATM    8  C   UNL     1      -9.788   3.807 -31.311  1.00  0.00     0.076 A 
HETATM    9  C   UNL     1      -9.201   4.447 -30.237  1.00  0.00     0.086 A 
HETATM   10  S   UNL     1      -7.510   4.167 -30.236  1.00  0.00    -0.060 SA
BRANCH   8  11
HETATM   11  C   UNL     1     -11.229   3.695 -31.537  1.00  0.00    -0.007 A 
HETATM   12  C   UNL     1     -11.771   3.148 -32.706  1.00  0.00     0.016 A 
HETATM   13  C   UNL     1     -13.156   3.148 -32.916  1.00  0.00     0.037 A 
HETATM   14  C   UNL     1     -14.024   3.693 -31.970  1.00  0.00     0.068 A 
HETATM   15  C   UNL     1     -13.498   4.212 -30.789  1.00  0.00     0.037 A 
HETATM   16  C   UNL     1     -12.113   4.209 -30.576  1.00  0.00     0.016 A 
BRANCH  14  17
HETATM   17  O   UNL     1     -15.346   3.656 -32.315  1.00  0.00    -0.356 OA
HETATM   18  C   UNL     1     -15.979   2.382 -32.279  1.00  0.00     0.210 C 
ENDBRANCH  14  17
ENDBRANCH   8  11
ENDBRANCH   1   6
BRANCH   1  19
HETATM   19  N   UNL     1      -5.303   3.402 -31.997  1.00  0.00    -0.239 N 
HETATM   20  C   UNL     1      -4.870   4.327 -32.910  1.00  0.00     0.335 C 
HETATM   21  N   UNL     1      -3.693   4.912 -32.520  1.00  0.00    -0.337 N 
HETATM   22  O   UNL     1      -5.432   4.550 -33.975  1.00  0.00    -0.246 OA
HETATM   23  H   UNL     1      -3.308   4.658 -31.623  1.00  0.00     0.164 HD
HETATM   24  H   UNL     1      -4.618   2.935 -31.416  1.00  0.00     0.192 HD
BRANCH  21  25
HETATM   25  C   UNL     1      -2.845   5.655 -33.446  1.00  0.00     0.086 C 
HETATM   26  C   UNL     1      -2.816   7.145 -33.083  1.00  0.00     0.025 C 
HETATM   27  C   UNL     1      -2.041   7.431 -31.796  1.00  0.00     0.002 C 
HETATM   28  C   UNL     1      -0.641   6.823 -31.826  1.00  0.00     0.000 C 
HETATM   29  C   UNL     1      -0.673   5.334 -32.158  1.00  0.00     0.002 C 
HETATM   30  C   UNL     1      -1.428   5.063 -33.460  1.00  0.00     0.025 C 
ENDBRANCH  21  25
ENDBRANCH   1  19
BRANCH   3  31
HETATM   31  C   UNL     1      -4.793  -0.547 -32.943  1.00  0.00     0.036 A 
HETATM   32  C   UNL     1      -3.865  -1.122 -32.073  1.00  0.00     0.031 A 
HETATM   33  C   UNL     1      -3.435  -2.440 -32.270  1.00  0.00     0.026 A 
HETATM   34  C   UNL     1      -3.924  -3.180 -33.344  1.00  0.00     0.034 A 
HETATM   35 CL   UNL     1      -3.390  -4.797 -33.587  1.00  0.00    -0.084 Cl
HETATM   36  C   UNL     1      -4.841  -2.615 -34.225  1.00  0.00     0.026 A 
HETATM   37  C   UNL     1      -5.274  -1.301 -34.023  1.00  0.00     0.031 A 
ENDBRANCH   3  31
TORSDOF 6
ENDMDL
MODEL 4
REMARK VINA RESULT:      -8.8      1.316      1.722
REMARK  6 active torsions:
REMARK  status: ('A' for Active; 'I' for Inactive)
REMARK    1  A    between atoms: O_2  and  C_3 
REMARK    2  A    between atoms: C_6  and  C_7 
REMARK    3  A    between atoms: C_9  and  N_10 
REMARK    4  A    between atoms: N_10  and  N_11 
REMARK       I    between atoms: N_10  and  C_21 
REMARK       I    between atoms: N_11  and  C_12 
REMARK       I    between atoms: C_12  and  N_13 
REMARK    5  A    between atoms: N_13  and  C_14 
REMARK       I    between atoms: C_21  and  N_22 
REMARK    6  A    between atoms: N_22  and  C_23 
ROOT
HETATM    1  N   UNL     1      -7.323   2.224 -33.059  1.00  0.00    -0.176 N 
HETATM    2  C   UNL     1      -7.076   0.832 -32.902  1.00  0.00     0.348 C 
HETATM    3  N   UNL     1      -6.100   0.369 -33.781  1.00  0.00    -0.307 N 
HETATM    4  O   UNL     1      -7.666   0.093 -32.118  1.00  0.00    -0.245 OA
HETATM    5  H   UNL     1      -6.004   0.944 -34.615  1.00  0.00     0.170 HD
ENDROOT
BRANCH   1   6
HETATM    6  C   UNL     1      -8.355   2.809 -32.320  1.00  0.00     0.197 A 
HETATM    7  N   UNL     1      -9.584   3.069 -32.698  1.00  0.00    -0.222 NA
HETATM    8  C   UNL     1     -10.345   3.530 -31.632  1.00  0.00     0.076 A 
HETATM    9  C   UNL     1      -9.628   3.726 -30.468  1.00  0.00     0.086 A 
HETATM   10  S   UNL     1      -8.005   3.218 -30.683  1.00  0.00    -0.060 SA
BRANCH   8  11
HETATM   11  C   UNL     1     -11.793   3.699 -31.766  1.00  0.00    -0.007 A 
HETATM   12  C   UNL     1     -12.551   4.458 -30.867  1.00  0.00     0.016 A 
HETATM   13  C   UNL     1     -13.946   4.514 -30.984  1.00  0.00     0.037 A 
HETATM   14  C   UNL     1     -14.609   3.816 -31.994  1.00  0.00     0.068 A 
HETATM   15  C   UNL     1     -13.862   3.083 -32.912  1.00  0.00     0.037 A 
HETATM   16  C   UNL     1     -12.467   3.029 -32.799  1.00  0.00     0.016 A 
BRANCH  14  17
HETATM   17  O   UNL     1     -15.971   3.933 -31.973  1.00  0.00    -0.356 OA
HETATM   18  C   UNL     1     -16.496   5.203 -31.606  1.00  0.00     0.210 C 
ENDBRANCH  14  17
ENDBRANCH   8  11
ENDBRANCH   1   6
BRANCH   1  19
HETATM   19  N   UNL     1      -6.230   3.096 -33.372  1.00  0.00    -0.239 N 
HETATM   20  C   UNL     1      -5.023   3.024 -32.728  1.00  0.00     0.335 C 
HETATM   21  N   UNL     1      -4.142   3.966 -33.193  1.00  0.00    -0.337 N 
HETATM   22  O   UNL     1      -4.788   2.257 -31.802  1.00  0.00    -0.246 OA
HETATM   23  H   UNL     1      -4.432   4.552 -33.960  1.00  0.00     0.164 HD
HETATM   24  H   UNL     1      -6.521   3.984 -33.758  1.00  0.00     0.192 HD
BRANCH  21  25
HETATM   25  C   UNL     1      -2.936   4.338 -32.461  1.00  0.00     0.086 C 
HETATM   26  C   UNL     1      -1.777   4.616 -33.425  1.00  0.00     0.025 C 
HETATM   27  C   UNL     1      -1.958   5.908 -34.222  1.00  0.00     0.002 C 
HETATM   28  C   UNL     1      -2.245   7.102 -33.315  1.00  0.00     0.000 C 
HETATM   29  C   UNL     1      -3.419   6.836 -32.377  1.00  0.00     0.002 C 
HETATM   30  C   UNL     1      -3.214   5.556 -31.567  1.00  0.00     0.025 C 
ENDBRANCH  21  25
ENDBRANCH   1  19
BRANCH   3  31
HETATM   31  C   UNL     1      -5.510  -0.904 -33.851  1.00  0.00     0.036 A 
HETATM   32  C   UNL     1      -5.990  -1.947 -34.645  1.00  0.00     0.031 A 
HETATM   33  C   UNL     1      -5.344  -3.188 -34.647  1.00  0.00     0.026 A 
HETATM   34  C   UNL     1      -4.223  -3.392 -33.845  1.00  0.00     0.034 A 
HETATM   35 CL   UNL     1      -3.434  -4.921 -33.845  1.00  0.00    -0.084 Cl
HETATM   36  C   UNL     1      -3.741  -2.365 -33.040  1.00  0.00     0.026 A 
HETATM   37  C   UNL     1      -4.383  -1.124 -33.044  1.00  0.00     0.031 A 
ENDBRANCH   3  31
TORSDOF 6
ENDMDL
MODEL 5
REMARK VINA RESULT:      -8.6      2.604      5.785
REMARK  6 active torsions:
REMARK  status: ('A' for Active; 'I' for Inactive)
REMARK    1  A    between atoms: O_2  and  C_3 
REMARK    2  A    between atoms: C_6  and  C_7 
REMARK    3  A    between atoms: C_9  and  N_10 
REMARK    4  A    between atoms: N_10  and  N_11 
REMARK       I    between atoms: N_10  and  C_21 
REMARK       I    between atoms: N_11  and  C_12 
REMARK       I    between atoms: C_12  and  N_13 
REMARK    5  A    between atoms: N_13  and  C_14 
REMARK       I    between atoms: C_21  and  N_22 
REMARK    6  A    between atoms: N_22  and  C_23 
ROOT
HETATM    1  N   UNL     1      -8.600   3.151 -33.898  1.00  0.00    -0.176 N 
HETATM    2  C   UNL     1      -7.748   4.290 -33.882  1.00  0.00     0.348 C 
HETATM    3  N   UNL     1      -6.453   3.972 -33.481  1.00  0.00    -0.307 N 
HETATM    4  O   UNL     1      -8.096   5.437 -34.149  1.00  0.00    -0.245 OA
HETATM    5  H   UNL     1      -6.403   3.130 -32.912  1.00  0.00     0.170 HD
ENDROOT
BRANCH   1   6
HETATM    6  C   UNL     1      -9.957   3.334 -34.176  1.00  0.00     0.197 A 
HETATM    7  N   UNL     1     -10.993   2.801 -33.572  1.00  0.00    -0.222 NA
HETATM    8  C   UNL     1     -12.180   3.336 -34.054  1.00  0.00     0.076 A 
HETATM    9  C   UNL     1     -12.019   4.196 -35.123  1.00  0.00     0.086 A 
HETATM   10  S   UNL     1     -10.352   4.424 -35.450  1.00  0.00    -0.060 SA
BRANCH   8  11
HETATM   11  C   UNL     1     -13.454   3.040 -33.399  1.00  0.00    -0.007 A 
HETATM   12  C   UNL     1     -14.162   1.853 -33.623  1.00  0.00     0.016 A 
HETATM   13  C   UNL     1     -15.423   1.657 -33.045  1.00  0.00     0.037 A 
HETATM   14  C   UNL     1     -16.000   2.636 -32.235  1.00  0.00     0.068 A 
HETATM   15  C   UNL     1     -15.291   3.807 -31.980  1.00  0.00     0.037 A 
HETATM   16  C   UNL     1     -14.029   4.004 -32.556  1.00  0.00     0.016 A 
BRANCH  14  17
HETATM   17  O   UNL     1     -17.245   2.328 -31.762  1.00  0.00    -0.356 OA
HETATM   18  C   UNL     1     -18.330   3.090 -32.276  1.00  0.00     0.210 C 
ENDBRANCH  14  17
ENDBRANCH   8  11
ENDBRANCH   1   6
BRANCH   1  19
HETATM   19  N   UNL     1      -8.063   1.884 -34.297  1.00  0.00    -0.239 N 
HETATM   20  C   UNL     1      -8.063   0.790 -33.471  1.00  0.00     0.335 C 
HETATM   21  N   UNL     1      -7.487  -0.300 -34.071  1.00  0.00    -0.337 N 
HETATM   22  O   UNL     1      -8.465   0.809 -32.314  1.00  0.00    -0.246 OA
HETATM   23  H   UNL     1      -7.186  -0.212 -35.030  1.00  0.00     0.164 HD
HETATM   24  H   UNL     1      -7.345   1.957 -35.006  1.00  0.00     0.192 HD
BRANCH  21  25
HETATM   25  C   UNL     1      -7.046  -1.466 -33.315  1.00  0.00     0.086 C 
HETATM   26  C   UNL     1      -6.899  -2.686 -34.232  1.00  0.00     0.025 C 
HETATM   27  C   UNL     1      -5.709  -2.578 -35.185  1.00  0.00     0.002 C 
HETATM   28  C   UNL     1      -4.412  -2.261 -34.446  1.00  0.00     0.000 C 
HETATM   29  C   UNL     1      -4.550  -1.028 -33.557  1.00  0.00     0.002 C 
HETATM   30  C   UNL     1      -5.727  -1.160 -32.590  1.00  0.00     0.025 C 
ENDBRANCH  21  25
ENDBRANCH   1  19
BRANCH   3  31
HETATM   31  C   UNL     1      -5.314   4.794 -33.449  1.00  0.00     0.036 A 
HETATM   32  C   UNL     1      -4.939   5.570 -32.351  1.00  0.00     0.031 A 
HETATM   33  C   UNL     1      -3.791   6.368 -32.409  1.00  0.00     0.026 A 
HETATM   34  C   UNL     1      -3.022   6.400 -33.570  1.00  0.00     0.034 A 
HETATM   35 CL   UNL     1      -1.614   7.387 -33.641  1.00  0.00    -0.084 Cl
HETATM   36  C   UNL     1      -3.391   5.641 -34.676  1.00  0.00     0.026 A 
HETATM   37  C   UNL     1      -4.534   4.839 -34.614  1.00  0.00     0.031 A 
ENDBRANCH   3  31
TORSDOF 6
ENDMDL
MODEL 6
REMARK VINA RESULT:      -8.6      3.071      4.623
REMARK  6 active torsions:
REMARK  status: ('A' for Active; 'I' for Inactive)
REMARK    1  A    between atoms: O_2  and  C_3 
REMARK    2  A    between atoms: C_6  and  C_7 
REMARK    3  A    between atoms: C_9  and  N_10 
REMARK    4  A    between atoms: N_10  and  N_11 
REMARK       I    between atoms: N_10  and  C_21 
REMARK       I    between atoms: N_11  and  C_12 
REMARK       I    between atoms: C_12  and  N_13 
REMARK    5  A    between atoms: N_13  and  C_14 
REMARK       I    between atoms: C_21  and  N_22 
REMARK    6  A    between atoms: N_22  and  C_23 
ROOT
HETATM    1  N   UNL     1      -7.044   2.712 -33.332  1.00  0.00    -0.176 N 
HETATM    2  C   UNL     1      -6.981   1.303 -33.143  1.00  0.00     0.348 C 
HETATM    3  N   UNL     1      -6.058   0.700 -33.992  1.00  0.00    -0.307 N 
HETATM    4  O   UNL     1      -7.676   0.664 -32.357  1.00  0.00    -0.245 OA
HETATM    5  H   UNL     1      -5.873   1.239 -34.835  1.00  0.00     0.170 HD
ENDROOT
BRANCH   1   6
HETATM    6  C   UNL     1      -8.005   3.441 -32.626  1.00  0.00     0.197 A 
HETATM    7  N   UNL     1      -7.879   4.054 -31.473  1.00  0.00    -0.222 NA
HETATM    8  C   UNL     1      -9.022   4.781 -31.168  1.00  0.00     0.076 A 
HETATM    9  C   UNL     1     -10.061   4.601 -32.061  1.00  0.00     0.086 A 
HETATM   10  S   UNL     1      -9.556   3.600 -33.358  1.00  0.00    -0.060 SA
BRANCH   8  11
HETATM   11  C   UNL     1      -9.042   5.701 -30.031  1.00  0.00    -0.007 A 
HETATM   12  C   UNL     1      -9.997   6.716 -29.897  1.00  0.00     0.016 A 
HETATM   13  C   UNL     1      -9.918   7.631 -28.838  1.00  0.00     0.037 A 
HETATM   14  C   UNL     1      -8.889   7.553 -27.899  1.00  0.00     0.068 A 
HETATM   15  C   UNL     1      -7.952   6.528 -28.005  1.00  0.00     0.037 A 
HETATM   16  C   UNL     1      -8.032   5.610 -29.061  1.00  0.00     0.016 A 
BRANCH  14  17
HETATM   17  O   UNL     1      -8.915   8.525 -26.938  1.00  0.00    -0.356 OA
HETATM   18  C   UNL     1     -10.133   9.243 -26.790  1.00  0.00     0.210 C 
ENDBRANCH  14  17
ENDBRANCH   8  11
ENDBRANCH   1   6
BRANCH   1  19
HETATM   19  N   UNL     1      -5.841   3.429 -33.639  1.00  0.00    -0.239 N 
HETATM   20  C   UNL     1      -4.732   3.384 -32.837  1.00  0.00     0.335 C 
HETATM   21  N   UNL     1      -3.715   4.158 -33.333  1.00  0.00    -0.337 N 
HETATM   22  O   UNL     1      -4.685   2.781 -31.771  1.00  0.00    -0.246 OA
HETATM   23  H   UNL     1      -3.854   4.616 -34.220  1.00  0.00     0.164 HD
HETATM   24  H   UNL     1      -5.998   4.252 -34.206  1.00  0.00     0.192 HD
BRANCH  21  25
HETATM   25  C   UNL     1      -2.574   4.565 -32.520  1.00  0.00     0.086 C 
HETATM   26  C   UNL     1      -1.369   4.906 -33.404  1.00  0.00     0.025 C 
HETATM   27  C   UNL     1      -1.554   6.205 -34.190  1.00  0.00     0.002 C 
HETATM   28  C   UNL     1      -1.946   7.370 -33.285  1.00  0.00     0.000 C 
HETATM   29  C   UNL     1      -3.164   7.039 -32.427  1.00  0.00     0.002 C 
HETATM   30  C   UNL     1      -2.957   5.754 -31.626  1.00  0.00     0.025 C 
ENDBRANCH  21  25
ENDBRANCH   1  19
BRANCH   3  31
HETATM   31  C   UNL     1      -5.636  -0.640 -34.025  1.00  0.00     0.036 A 
HETATM   32  C   UNL     1      -4.498  -1.118 -33.372  1.00  0.00     0.031 A 
HETATM   33  C   UNL     1      -4.145  -2.470 -33.466  1.00  0.00     0.026 A 
HETATM   34  C   UNL     1      -4.924  -3.342 -34.222  1.00  0.00     0.034 A 
HETATM   35 CL   UNL     1      -4.486  -5.002 -34.341  1.00  0.00    -0.084 Cl
HETATM   36  C   UNL     1      -6.054  -2.877 -34.887  1.00  0.00     0.026 A 
HETATM   37  C   UNL     1      -6.408  -1.529 -34.787  1.00  0.00     0.031 A 
ENDBRANCH   3  31
TORSDOF 6
ENDMDL
MODEL 7
REMARK VINA RESULT:      -8.5      3.551      4.693
REMARK  6 active torsions:
REMARK  status: ('A' for Active; 'I' for Inactive)
REMARK    1  A    between atoms: O_2  and  C_3 
REMARK    2  A    between atoms: C_6  and  C_7 
REMARK    3  A    between atoms: C_9  and  N_10 
REMARK    4  A    between atoms: N_10  and  N_11 
REMARK       I    between atoms: N_10  and  C_21 
REMARK       I    between atoms: N_11  and  C_12 
REMARK       I    between atoms: C_12  and  N_13 
REMARK    5  A    between atoms: N_13  and  C_14 
REMARK       I    between atoms: C_21  and  N_22 
REMARK    6  A    between atoms: N_22  and  C_23 
ROOT
HETATM    1  N   UNL     1      -6.909   4.069 -32.830  1.00  0.00    -0.176 N 
HETATM    2  C   UNL     1      -7.197   2.684 -32.986  1.00  0.00     0.348 C 
HETATM    3  N   UNL     1      -6.146   1.992 -33.580  1.00  0.00    -0.307 N 
HETATM    4  O   UNL     1      -8.255   2.143 -32.675  1.00  0.00    -0.245 OA
HETATM    5  H   UNL     1      -5.541   2.585 -34.145  1.00  0.00     0.170 HD
ENDROOT
BRANCH   1   6
HETATM    6  C   UNL     1      -7.912   4.912 -32.346  1.00  0.00     0.197 A 
HETATM    7  N   UNL     1      -8.138   5.285 -31.109  1.00  0.00    -0.222 NA
HETATM    8  C   UNL     1      -9.148   6.236 -31.052  1.00  0.00     0.076 A 
HETATM    9  C   UNL     1      -9.762   6.481 -32.265  1.00  0.00     0.086 A 
HETATM   10  S   UNL     1      -8.987   5.592 -33.509  1.00  0.00    -0.060 SA
BRANCH   8  11
HETATM   11  C   UNL     1      -9.441   6.943 -29.805  1.00  0.00    -0.007 A 
HETATM   12  C   UNL     1      -8.586   6.905 -28.697  1.00  0.00     0.016 A 
HETATM   13  C   UNL     1      -8.954   7.521 -27.493  1.00  0.00     0.037 A 
HETATM   14  C   UNL     1     -10.177   8.182 -27.372  1.00  0.00     0.068 A 
HETATM   15  C   UNL     1     -11.021   8.252 -28.477  1.00  0.00     0.037 A 
HETATM   16  C   UNL     1     -10.653   7.639 -29.682  1.00  0.00     0.016 A 
BRANCH  14  17
HETATM   17  O   UNL     1     -10.423   8.710 -26.135  1.00  0.00    -0.356 OA
HETATM   18  C   UNL     1     -11.134   7.886 -25.219  1.00  0.00     0.210 C 
ENDBRANCH  14  17
ENDBRANCH   8  11
ENDBRANCH   1   6
BRANCH   1  19
HETATM   19  N   UNL     1      -5.571   4.471 -32.511  1.00  0.00    -0.239 N 
HETATM   20  C   UNL     1      -4.754   5.097 -33.415  1.00  0.00     0.335 C 
HETATM   21  N   UNL     1      -3.521   5.372 -32.881  1.00  0.00    -0.337 N 
HETATM   22  O   UNL     1      -5.067   5.318 -34.578  1.00  0.00    -0.246 OA
HETATM   23  H   UNL     1      -3.362   5.148 -31.910  1.00  0.00     0.164 HD
HETATM   24  H   UNL     1      -5.148   3.915 -31.778  1.00  0.00     0.192 HD
BRANCH  21  25
HETATM   25  C   UNL     1      -2.368   5.706 -33.709  1.00  0.00     0.086 C 
HETATM   26  C   UNL     1      -2.126   7.220 -33.722  1.00  0.00     0.025 C 
HETATM   27  C   UNL     1      -1.602   7.753 -32.388  1.00  0.00     0.002 C 
HETATM   28  C   UNL     1      -0.374   6.983 -31.908  1.00  0.00     0.000 C 
HETATM   29  C   UNL     1      -0.626   5.479 -31.866  1.00  0.00     0.002 C 
HETATM   30  C   UNL     1      -1.123   4.953 -33.213  1.00  0.00     0.025 C 
ENDBRANCH  21  25
ENDBRANCH   1  19
BRANCH   3  31
HETATM   31  C   UNL     1      -6.010   0.610 -33.794  1.00  0.00     0.036 A 
HETATM   32  C   UNL     1      -5.082  -0.197 -33.133  1.00  0.00     0.031 A 
HETATM   33  C   UNL     1      -5.010  -1.566 -33.415  1.00  0.00     0.026 A 
HETATM   34  C   UNL     1      -5.857  -2.128 -34.368  1.00  0.00     0.034 A 
HETATM   35 CL   UNL     1      -5.761  -3.810 -34.717  1.00  0.00    -0.084 Cl
HETATM   36  C   UNL     1      -6.778  -1.333 -35.042  1.00  0.00     0.026 A 
HETATM   37  C   UNL     1      -6.854   0.032 -34.755  1.00  0.00     0.031 A 
ENDBRANCH   3  31
TORSDOF 6
ENDMDL
MODEL 8
REMARK VINA RESULT:      -8.3      4.122      9.922
REMARK  6 active torsions:
REMARK  status: ('A' for Active; 'I' for Inactive)
REMARK    1  A    between atoms: O_2  and  C_3 
REMARK    2  A    between atoms: C_6  and  C_7 
REMARK    3  A    between atoms: C_9  and  N_10 
REMARK    4  A    between atoms: N_10  and  N_11 
REMARK       I    between atoms: N_10  and  C_21 
REMARK       I    between atoms: N_11  and  C_12 
REMARK       I    between atoms: C_12  and  N_13 
REMARK    5  A    between atoms: N_13  and  C_14 
REMARK       I    between atoms: C_21  and  N_22 
REMARK    6  A    between atoms: N_22  and  C_23 
ROOT
HETATM    1  N   UNL     1      -5.679   4.768 -34.021  1.00  0.00    -0.176 N 
HETATM    2  C   UNL     1      -6.792   5.495 -33.514  1.00  0.00     0.348 C 
HETATM    3  N   UNL     1      -8.000   5.035 -34.032  1.00  0.00    -0.307 N 
HETATM    4  O   UNL     1      -6.721   6.445 -32.739  1.00  0.00    -0.245 OA
HETATM    5  H   UNL     1      -7.900   4.564 -34.928  1.00  0.00     0.170 HD
ENDROOT
BRANCH   1   6
HETATM    6  C   UNL     1      -4.392   5.186 -33.675  1.00  0.00     0.197 A 
HETATM    7  N   UNL     1      -3.912   5.449 -32.482  1.00  0.00    -0.222 NA
HETATM    8  C   UNL     1      -2.549   5.706 -32.539  1.00  0.00     0.076 A 
HETATM    9  C   UNL     1      -2.035   5.750 -33.821  1.00  0.00     0.086 A 
HETATM   10  S   UNL     1      -3.254   5.353 -34.958  1.00  0.00    -0.060 SA
BRANCH   8  11
HETATM   11  C   UNL     1      -1.760   5.831 -31.313  1.00  0.00    -0.007 A 
HETATM   12  C   UNL     1      -2.079   6.742 -30.299  1.00  0.00     0.016 A 
HETATM   13  C   UNL     1      -1.240   6.890 -29.187  1.00  0.00     0.037 A 
HETATM   14  C   UNL     1      -0.071   6.139 -29.066  1.00  0.00     0.068 A 
HETATM   15  C   UNL     1       0.240   5.208 -30.054  1.00  0.00     0.037 A 
HETATM   16  C   UNL     1      -0.599   5.056 -31.165  1.00  0.00     0.016 A 
BRANCH  14  17
HETATM   17  O   UNL     1       0.669   6.406 -27.948  1.00  0.00    -0.356 OA
HETATM   18  C   UNL     1      -0.041   6.491 -26.718  1.00  0.00     0.210 C 
ENDBRANCH  14  17
ENDBRANCH   8  11
ENDBRANCH   1   6
BRANCH   1  19
HETATM   19  N   UNL     1      -5.817   3.362 -34.265  1.00  0.00    -0.239 N 
HETATM   20  C   UNL     1      -6.291   2.493 -33.318  1.00  0.00     0.335 C 
HETATM   21  N   UNL     1      -6.321   1.203 -33.781  1.00  0.00    -0.337 N 
HETATM   22  O   UNL     1      -6.585   2.823 -32.175  1.00  0.00    -0.246 OA
HETATM   23  H   UNL     1      -6.058   1.036 -34.741  1.00  0.00     0.164 HD
HETATM   24  H   UNL     1      -5.181   3.012 -34.970  1.00  0.00     0.192 HD
BRANCH  21  25
HETATM   25  C   UNL     1      -6.444   0.055 -32.891  1.00  0.00     0.086 C 
HETATM   26  C   UNL     1      -7.216  -1.082 -33.570  1.00  0.00     0.025 C 
HETATM   27  C   UNL     1      -6.423  -1.756 -34.691  1.00  0.00     0.002 C 
HETATM   28  C   UNL     1      -5.041  -2.205 -34.223  1.00  0.00     0.000 C 
HETATM   29  C   UNL     1      -4.262  -1.064 -33.574  1.00  0.00     0.002 C 
HETATM   30  C   UNL     1      -5.053  -0.416 -32.438  1.00  0.00     0.025 C 
ENDBRANCH  21  25
ENDBRANCH   1  19
BRANCH   3  31
HETATM   31  C   UNL     1      -9.307   5.419 -33.690  1.00  0.00     0.036 A 
HETATM   32  C   UNL     1     -10.097   6.277 -34.459  1.00  0.00     0.031 A 
HETATM   33  C   UNL     1     -11.389   6.614 -34.037  1.00  0.00     0.026 A 
HETATM   34  C   UNL     1     -11.888   6.104 -32.841  1.00  0.00     0.034 A 
HETATM   35 CL   UNL     1     -13.474   6.525 -32.323  1.00  0.00    -0.084 Cl
HETATM   36  C   UNL     1     -11.107   5.258 -32.060  1.00  0.00     0.026 A 
HETATM   37  C   UNL     1      -9.820   4.917 -32.485  1.00  0.00     0.031 A 
ENDBRANCH   3  31
TORSDOF 6
ENDMDL
MODEL 9
REMARK VINA RESULT:      -8.3      2.466      3.000
REMARK  6 active torsions:
REMARK  status: ('A' for Active; 'I' for Inactive)
REMARK    1  A    between atoms: O_2  and  C_3 
REMARK    2  A    between atoms: C_6  and  C_7 
REMARK    3  A    between atoms: C_9  and  N_10 
REMARK    4  A    between atoms: N_10  and  N_11 
REMARK       I    between atoms: N_10  and  C_21 
REMARK       I    between atoms: N_11  and  C_12 
REMARK       I    between atoms: C_12  and  N_13 
REMARK    5  A    between atoms: N_13  and  C_14 
REMARK       I    between atoms: C_21  and  N_22 
REMARK    6  A    between atoms: N_22  and  C_23 
ROOT
HETATM    1  N   UNL     1      -8.460   2.617 -33.952  1.00  0.00    -0.176 N 
HETATM    2  C   UNL     1      -8.159   1.237 -34.126  1.00  0.00     0.348 C 
HETATM    3  N   UNL     1      -6.791   0.987 -34.066  1.00  0.00    -0.307 N 
HETATM    4  O   UNL     1      -8.985   0.355 -34.342  1.00  0.00    -0.245 OA
HETATM    5  H   UNL     1      -6.222   1.798 -34.298  1.00  0.00     0.170 HD
ENDROOT
BRANCH   1   6
HETATM    6  C   UNL     1      -9.785   3.036 -34.095  1.00  0.00     0.197 A 
HETATM    7  N   UNL     1     -10.874   2.478 -33.620  1.00  0.00    -0.222 NA
HETATM    8  C   UNL     1     -11.987   3.271 -33.866  1.00  0.00     0.076 A 
HETATM    9  C   UNL     1     -11.730   4.381 -34.645  1.00  0.00     0.086 A 
HETATM   10  S   UNL     1     -10.051   4.492 -34.977  1.00  0.00    -0.060 SA
BRANCH   8  11
HETATM   11  C   UNL     1     -13.280   2.951 -33.261  1.00  0.00    -0.007 A 
HETATM   12  C   UNL     1     -13.970   1.763 -33.533  1.00  0.00     0.016 A 
HETATM   13  C   UNL     1     -15.247   1.545 -33.002  1.00  0.00     0.037 A 
HETATM   14  C   UNL     1     -15.861   2.503 -32.194  1.00  0.00     0.068 A 
HETATM   15  C   UNL     1     -15.171   3.674 -31.891  1.00  0.00     0.037 A 
HETATM   16  C   UNL     1     -13.892   3.893 -32.419  1.00  0.00     0.016 A 
BRANCH  14  17
HETATM   17  O   UNL     1     -17.118   2.174 -31.769  1.00  0.00    -0.356 OA
HETATM   18  C   UNL     1     -18.186   2.976 -32.259  1.00  0.00     0.210 C 
ENDBRANCH  14  17
ENDBRANCH   8  11
ENDBRANCH   1   6
BRANCH   1  19
HETATM   19  N   UNL     1      -7.672   3.393 -33.042  1.00  0.00    -0.239 N 
HETATM   20  C   UNL     1      -7.768   3.257 -31.682  1.00  0.00     0.335 C 
HETATM   21  N   UNL     1      -6.923   4.114 -31.025  1.00  0.00    -0.337 N 
HETATM   22  O   UNL     1      -8.564   2.510 -31.126  1.00  0.00    -0.246 OA
HETATM   23  H   UNL     1      -6.306   4.691 -31.576  1.00  0.00     0.164 HD
HETATM   24  H   UNL     1      -7.383   4.286 -33.421  1.00  0.00     0.192 HD
BRANCH  21  25
HETATM   25  C   UNL     1      -7.072   4.424 -29.607  1.00  0.00     0.086 C 
HETATM   26  C   UNL     1      -5.741   4.900 -29.011  1.00  0.00     0.025 C 
HETATM   27  C   UNL     1      -5.333   6.291 -29.499  1.00  0.00     0.002 C 
HETATM   28  C   UNL     1      -6.447   7.315 -29.301  1.00  0.00     0.000 C 
HETATM   29  C   UNL     1      -7.762   6.853 -29.922  1.00  0.00     0.002 C 
HETATM   30  C   UNL     1      -8.174   5.474 -29.406  1.00  0.00     0.025 C 
ENDBRANCH  21  25
ENDBRANCH   1  19
BRANCH   3  31
HETATM   31  C   UNL     1      -6.120  -0.248 -34.080  1.00  0.00     0.036 A 
HETATM   32  C   UNL     1      -6.458  -1.313 -34.917  1.00  0.00     0.031 A 
HETATM   33  C   UNL     1      -5.739  -2.513 -34.858  1.00  0.00     0.026 A 
HETATM   34  C   UNL     1      -4.690  -2.654 -33.953  1.00  0.00     0.034 A 
HETATM   35 CL   UNL     1      -3.813  -4.132 -33.878  1.00  0.00    -0.084 Cl
HETATM   36  C   UNL     1      -4.350  -1.604 -33.105  1.00  0.00     0.026 A 
HETATM   37  C   UNL     1      -5.064  -0.405 -33.170  1.00  0.00     0.031 A 
ENDBRANCH   3  31
TORSDOF 6
ENDMDL
MODEL 10
REMARK VINA RESULT:      -8.3      4.345      8.104
REMARK  6 active torsions:
REMARK  status: ('A' for Active; 'I' for Inactive)
REMARK    1  A    between atoms: O_2  and  C_3 
REMARK    2  A    between atoms: C_6  and  C_7 
REMARK    3  A    between atoms: C_9  and  N_10 
REMARK    4  A    between atoms: N_10  and  N_11 
REMARK       I    between atoms: N_10  and  C_21 
REMARK       I    between atoms: N_11  and  C_12 
REMARK       I    between atoms: C_12  and  N_13 
REMARK    5  A    between atoms: N_13  and  C_14 
REMARK       I    between atoms: C_21  and  N_22 
REMARK    6  A    between atoms: N_22  and  C_23 
ROOT
HETATM    1  N   UNL     1      -8.302   3.929 -33.511  1.00  0.00    -0.176 N 
HETATM    2  C   UNL     1      -9.441   4.465 -34.175  1.00  0.00     0.348 C 
HETATM    3  N   UNL     1      -9.411   5.856 -34.228  1.00  0.00    -0.307 N 
HETATM    4  O   UNL     1     -10.374   3.804 -34.624  1.00  0.00    -0.245 OA
HETATM    5  H   UNL     1      -8.844   6.275 -33.495  1.00  0.00     0.170 HD
ENDROOT
BRANCH   1   6
HETATM    6  C   UNL     1      -8.246   2.551 -33.285  1.00  0.00     0.197 A 
HETATM    7  N   UNL     1      -7.422   1.672 -33.804  1.00  0.00    -0.222 NA
HETATM    8  C   UNL     1      -7.600   0.422 -33.226  1.00  0.00     0.076 A 
HETATM    9  C   UNL     1      -8.661   0.352 -32.345  1.00  0.00     0.086 A 
HETATM   10  S   UNL     1      -9.372   1.900 -32.155  1.00  0.00    -0.060 SA
BRANCH   8  11
HETATM   11  C   UNL     1      -6.665  -0.669 -33.503  1.00  0.00    -0.007 A 
HETATM   12  C   UNL     1      -5.316  -0.621 -33.133  1.00  0.00     0.016 A 
HETATM   13  C   UNL     1      -4.439  -1.650 -33.503  1.00  0.00     0.037 A 
HETATM   14  C   UNL     1      -4.889  -2.740 -34.248  1.00  0.00     0.068 A 
HETATM   15  C   UNL     1      -6.235  -2.814 -34.595  1.00  0.00     0.037 A 
HETATM   16  C   UNL     1      -7.113  -1.787 -34.223  1.00  0.00     0.016 A 
BRANCH  14  17
HETATM   17  O   UNL     1      -3.923  -3.654 -34.566  1.00  0.00    -0.356 OA
HETATM   18  C   UNL     1      -3.963  -4.894 -33.870  1.00  0.00     0.210 C 
ENDBRANCH  14  17
ENDBRANCH   8  11
ENDBRANCH   1   6
BRANCH   1  19
HETATM   19  N   UNL     1      -7.031   4.570 -33.679  1.00  0.00    -0.239 N 
HETATM   20  C   UNL     1      -6.118   4.671 -32.663  1.00  0.00     0.335 C 
HETATM   21  N   UNL     1      -4.986   5.334 -33.062  1.00  0.00    -0.337 N 
HETATM   22  O   UNL     1      -6.322   4.278 -31.521  1.00  0.00    -0.246 OA
HETATM   23  H   UNL     1      -4.916   5.619 -34.027  1.00  0.00     0.164 HD
HETATM   24  H   UNL     1      -7.029   5.273 -34.406  1.00  0.00     0.192 HD
BRANCH  21  25
HETATM   25  C   UNL     1      -4.024   5.881 -32.111  1.00  0.00     0.086 C 
HETATM   26  C   UNL     1      -3.015   4.810 -31.680  1.00  0.00     0.025 C 
HETATM   27  C   UNL     1      -2.035   4.431 -32.791  1.00  0.00     0.002 C 
HETATM   28  C   UNL     1      -1.348   5.656 -33.389  1.00  0.00     0.000 C 
HETATM   29  C   UNL     1      -2.355   6.708 -33.846  1.00  0.00     0.002 C 
HETATM   30  C   UNL     1      -3.311   7.098 -32.718  1.00  0.00     0.025 C 
ENDBRANCH  21  25
ENDBRANCH   1  19
BRANCH   3  31
HETATM   31  C   UNL     1     -10.288   6.731 -34.892  1.00  0.00     0.036 A 
HETATM   32  C   UNL     1     -10.115   7.162 -36.208  1.00  0.00     0.031 A 
HETATM   33  C   UNL     1     -11.035   8.044 -36.789  1.00  0.00     0.026 A 
HETATM   34  C   UNL     1     -12.122   8.505 -36.049  1.00  0.00     0.034 A 
HETATM   35 CL   UNL     1     -13.247   9.593 -36.762  1.00  0.00    -0.084 Cl
HETATM   36  C   UNL     1     -12.299   8.092 -34.732  1.00  0.00     0.026 A 
HETATM   37  C   UNL     1     -11.384   7.206 -34.156  1.00  0.00     0.031 A 
ENDBRANCH   3  31
TORSDOF 6
ENDMDL
