MODEL 1
REMARK VINA RESULT:      -9.2      0.000      0.000
REMARK  3 active torsions:
REMARK  status: ('A' for Active; 'I' for Inactive)
REMARK    1  A    between atoms: N_5  and  C_6 
REMARK    2  A    between atoms: C_7  and  C_8 
REMARK       I    between atoms: C_8  and  N_9 
REMARK    3  A    between atoms: N_9  and  N_10 
ROOT
HETATM    1  C   UNL     1      -6.994   4.178 -33.859  1.00  0.00     0.056 C 
HETATM    2  C   UNL     1      -7.525   2.824 -33.425  1.00  0.00     0.158 C 
HETATM    3  C   UNL     1      -6.823   1.658 -34.129  1.00  0.00     0.267 C 
HETATM    4  O   UNL     1      -6.759   1.524 -35.348  1.00  0.00    -0.269 OA
HETATM    5  N   UNL     1      -6.450   0.744 -33.165  1.00  0.00    -0.230 N 
HETATM    6  C   UNL     1      -6.859   1.172 -31.924  1.00  0.00     0.333 C 
HETATM    7  O   UNL     1      -6.894   0.508 -30.898  1.00  0.00    -0.246 OA
HETATM    8  N   UNL     1      -7.258   2.509 -32.025  1.00  0.00    -0.309 N 
HETATM    9  C   UNL     1      -8.098   3.116 -30.986  1.00  0.00     0.134 C 
HETATM   10  C   UNL     1      -9.583   2.718 -31.138  1.00  0.00     0.061 C 
HETATM   11  C   UNL     1      -9.958   2.622 -32.586  1.00  0.00    -0.018 A 
HETATM   12  C   UNL     1      -9.016   2.679 -33.599  1.00  0.00     0.055 A 
HETATM   13  N   UNL     1      -9.658   2.466 -34.791  1.00  0.00    -0.356 N 
HETATM   14  H   UNL     1      -9.211   2.404 -35.699  1.00  0.00     0.166 HD
HETATM   15  C   UNL     1     -10.993   2.213 -34.559  1.00  0.00     0.043 A 
HETATM   16  C   UNL     1     -11.213   2.330 -33.184  1.00  0.00    -0.001 A 
HETATM   17  C   UNL     1     -12.011   1.867 -35.455  1.00  0.00     0.030 A 
HETATM   18  C   UNL     1     -13.287   1.636 -34.932  1.00  0.00     0.002 A 
HETATM   19  C   UNL     1     -13.536   1.755 -33.567  1.00  0.00     0.001 A 
HETATM   20  C   UNL     1     -12.508   2.101 -32.682  1.00  0.00     0.014 A 
ENDROOT
BRANCH   5  21
HETATM   21  C   UNL     1      -6.261  -0.610 -33.511  1.00  0.00     0.063 A 
HETATM   22  C   UNL     1      -4.981  -1.185 -33.545  1.00  0.00     0.060 A 
HETATM   23  C   UNL     1      -4.801  -2.460 -34.101  1.00  0.00     0.019 A 
HETATM   24  C   UNL     1      -5.895  -3.172 -34.592  1.00  0.00     0.001 A 
HETATM   25  C   UNL     1      -7.174  -2.623 -34.518  1.00  0.00     0.002 A 
HETATM   26  C   UNL     1      -7.360  -1.347 -33.979  1.00  0.00     0.031 A 
BRANCH  22  27
HETATM   27  C   UNL     1      -3.793  -0.533 -32.944  1.00  0.00     0.268 C 
HETATM   28  N   UNL     1      -3.728  -0.573 -31.554  1.00  0.00    -0.290 N 
HETATM   29  H   UNL     1      -4.415  -1.092 -31.008  1.00  0.00     0.183 HD
HETATM   30  O   UNL     1      -2.904  -0.063 -33.648  1.00  0.00    -0.266 OA
BRANCH  28  31
HETATM   31  N   UNL     1      -2.593  -0.054 -30.899  1.00  0.00    -0.247 NA
HETATM   32  H   UNL     1      -2.015  -0.861 -30.629  1.00  0.00     0.143 HD
HETATM   33  H   UNL     1      -2.905   0.315 -29.994  1.00  0.00     0.143 HD
ENDBRANCH  28  31
ENDBRANCH  22  27
ENDBRANCH   5  21
TORSDOF 3
ENDMDL
MODEL 2
REMARK VINA RESULT:      -9.1      1.765      2.841
REMARK  3 active torsions:
REMARK  status: ('A' for Active; 'I' for Inactive)
REMARK    1  A    between atoms: N_5  and  C_6 
REMARK    2  A    between atoms: C_7  and  C_8 
REMARK       I    between atoms: C_8  and  N_9 
REMARK    3  A    between atoms: N_9  and  N_10 
ROOT
HETATM    1  C   UNL     1      -6.329   4.890 -32.228  1.00  0.00     0.056 C 
HETATM    2  C   UNL     1      -7.054   3.564 -32.368  1.00  0.00     0.158 C 
HETATM    3  C   UNL     1      -6.310   2.574 -33.270  1.00  0.00     0.267 C 
HETATM    4  O   UNL     1      -5.983   2.806 -34.431  1.00  0.00    -0.269 OA
HETATM    5  N   UNL     1      -6.241   1.366 -32.607  1.00  0.00    -0.230 N 
HETATM    6  C   UNL     1      -6.884   1.456 -31.394  1.00  0.00     0.333 C 
HETATM    7  O   UNL     1      -7.204   0.526 -30.668  1.00  0.00    -0.246 OA
HETATM    8  N   UNL     1      -7.138   2.804 -31.126  1.00  0.00    -0.309 N 
HETATM    9  C   UNL     1      -8.138   3.188 -30.123  1.00  0.00     0.134 C 
HETATM   10  C   UNL     1      -9.577   3.083 -30.673  1.00  0.00     0.061 C 
HETATM   11  C   UNL     1      -9.622   3.487 -32.115  1.00  0.00    -0.018 A 
HETATM   12  C   UNL     1      -8.474   3.704 -32.858  1.00  0.00     0.055 A 
HETATM   13  N   UNL     1      -8.844   3.961 -34.152  1.00  0.00    -0.356 N 
HETATM   14  H   UNL     1      -8.210   4.110 -34.929  1.00  0.00     0.166 HD
HETATM   15  C   UNL     1     -10.214   3.853 -34.271  1.00  0.00     0.043 A 
HETATM   16  C   UNL     1     -10.729   3.581 -33.001  1.00  0.00    -0.001 A 
HETATM   17  C   UNL     1     -11.027   3.952 -35.406  1.00  0.00     0.030 A 
HETATM   18  C   UNL     1     -12.403   3.768 -35.237  1.00  0.00     0.002 A 
HETATM   19  C   UNL     1     -12.944   3.505 -33.981  1.00  0.00     0.001 A 
HETATM   20  C   UNL     1     -12.119   3.408 -32.855  1.00  0.00     0.014 A 
ENDROOT
BRANCH   5  21
HETATM   21  C   UNL     1      -6.091   0.167 -33.335  1.00  0.00     0.063 A 
HETATM   22  C   UNL     1      -7.203  -0.539 -33.820  1.00  0.00     0.060 A 
HETATM   23  C   UNL     1      -7.039  -1.830 -34.342  1.00  0.00     0.019 A 
HETATM   24  C   UNL     1      -5.769  -2.403 -34.410  1.00  0.00     0.001 A 
HETATM   25  C   UNL     1      -4.657  -1.687 -33.971  1.00  0.00     0.002 A 
HETATM   26  C   UNL     1      -4.813  -0.406 -33.435  1.00  0.00     0.031 A 
BRANCH  22  27
HETATM   27  C   UNL     1      -8.563   0.050 -33.880  1.00  0.00     0.268 C 
HETATM   28  N   UNL     1      -9.430  -0.345 -32.866  1.00  0.00    -0.290 N 
HETATM   29  H   UNL     1      -9.110  -0.933 -32.096  1.00  0.00     0.183 HD
HETATM   30  O   UNL     1      -8.855   0.884 -34.731  1.00  0.00    -0.266 OA
BRANCH  28  31
HETATM   31  N   UNL     1     -10.716   0.228 -32.792  1.00  0.00    -0.247 NA
HETATM   32  H   UNL     1     -10.580   1.244 -32.697  1.00  0.00     0.143 HD
HETATM   33  H   UNL     1     -11.115  -0.033 -31.885  1.00  0.00     0.143 HD
ENDBRANCH  28  31
ENDBRANCH  22  27
ENDBRANCH   5  21
TORSDOF 3
ENDMDL
MODEL 3
REMARK VINA RESULT:      -8.9     14.532     16.550
REMARK  3 active torsions:
REMARK  status: ('A' for Active; 'I' for Inactive)
REMARK    1  A    between atoms: N_5  and  C_6 
REMARK    2  A    between atoms: C_7  and  C_8 
REMARK       I    between atoms: C_8  and  N_9 
REMARK    3  A    between atoms: N_9  and  N_10 
ROOT
HETATM    1  C   UNL     1      -5.552 -13.193 -34.732  1.00  0.00     0.056 C 
HETATM    2  C   UNL     1      -5.362 -13.810 -36.106  1.00  0.00     0.158 C 
HETATM    3  C   UNL     1      -4.151 -13.239 -36.851  1.00  0.00     0.267 C 
HETATM    4  O   UNL     1      -3.984 -12.045 -37.085  1.00  0.00    -0.269 OA
HETATM    5  N   UNL     1      -3.412 -14.299 -37.335  1.00  0.00    -0.230 N 
HETATM    6  C   UNL     1      -4.026 -15.487 -37.014  1.00  0.00     0.333 C 
HETATM    7  O   UNL     1      -3.768 -16.590 -37.476  1.00  0.00    -0.246 OA
HETATM    8  N   UNL     1      -5.028 -15.230 -36.073  1.00  0.00    -0.309 N 
HETATM    9  C   UNL     1      -6.097 -16.207 -35.836  1.00  0.00     0.134 C 
HETATM   10  C   UNL     1      -7.185 -16.149 -36.930  1.00  0.00     0.061 C 
HETATM   11  C   UNL     1      -7.410 -14.737 -37.376  1.00  0.00    -0.018 A 
HETATM   12  C   UNL     1      -6.580 -13.698 -36.988  1.00  0.00     0.055 A 
HETATM   13  N   UNL     1      -6.988 -12.561 -37.636  1.00  0.00    -0.356 N 
HETATM   14  H   UNL     1      -6.535 -11.656 -37.581  1.00  0.00     0.166 HD
HETATM   15  C   UNL     1      -8.034 -12.861 -38.484  1.00  0.00     0.043 A 
HETATM   16  C   UNL     1      -8.334 -14.216 -38.321  1.00  0.00    -0.001 A 
HETATM   17  C   UNL     1      -8.713 -12.045 -39.395  1.00  0.00     0.030 A 
HETATM   18  C   UNL     1      -9.729 -12.629 -40.158  1.00  0.00     0.002 A 
HETATM   19  C   UNL     1     -10.056 -13.975 -40.010  1.00  0.00     0.001 A 
HETATM   20  C   UNL     1      -9.366 -14.780 -39.096  1.00  0.00     0.014 A 
ENDROOT
BRANCH   5  21
HETATM   21  C   UNL     1      -2.568 -14.122 -38.450  1.00  0.00     0.063 A 
HETATM   22  C   UNL     1      -3.033 -14.318 -39.759  1.00  0.00     0.060 A 
HETATM   23  C   UNL     1      -2.125 -14.352 -40.827  1.00  0.00     0.019 A 
HETATM   24  C   UNL     1      -0.763 -14.160 -40.596  1.00  0.00     0.001 A 
HETATM   25  C   UNL     1      -0.302 -13.920 -39.303  1.00  0.00     0.002 A 
HETATM   26  C   UNL     1      -1.199 -13.899 -38.231  1.00  0.00     0.031 A 
BRANCH  22  27
HETATM   27  C   UNL     1      -4.475 -14.419 -40.091  1.00  0.00     0.268 C 
HETATM   28  N   UNL     1      -4.949 -15.709 -40.311  1.00  0.00    -0.290 N 
HETATM   29  H   UNL     1      -4.351 -16.523 -40.167  1.00  0.00     0.183 HD
HETATM   30  O   UNL     1      -5.196 -13.426 -40.091  1.00  0.00    -0.266 OA
BRANCH  28  31
HETATM   31  N   UNL     1      -6.323 -15.911 -40.548  1.00  0.00    -0.247 NA
HETATM   32  H   UNL     1      -6.629 -16.646 -39.896  1.00  0.00     0.143 HD
HETATM   33  H   UNL     1      -6.412 -16.368 -41.462  1.00  0.00     0.143 HD
ENDBRANCH  28  31
ENDBRANCH  22  27
ENDBRANCH   5  21
TORSDOF 3
ENDMDL
MODEL 4
REMARK VINA RESULT:      -8.9      2.707      6.331
REMARK  3 active torsions:
REMARK  status: ('A' for Active; 'I' for Inactive)
REMARK    1  A    between atoms: N_5  and  C_6 
REMARK    2  A    between atoms: C_7  and  C_8 
REMARK       I    between atoms: C_8  and  N_9 
REMARK    3  A    between atoms: N_9  and  N_10 
ROOT
HETATM    1  C   UNL     1      -8.358   5.357 -30.470  1.00  0.00     0.056 C 
HETATM    2  C   UNL     1      -8.716   4.317 -31.517  1.00  0.00     0.158 C 
HETATM    3  C   UNL     1     -10.119   3.735 -31.318  1.00  0.00     0.267 C 
HETATM    4  O   UNL     1     -10.504   3.195 -30.284  1.00  0.00    -0.269 OA
HETATM    5  N   UNL     1     -10.772   3.779 -32.533  1.00  0.00    -0.230 N 
HETATM    6  C   UNL     1      -9.939   4.294 -33.498  1.00  0.00     0.333 C 
HETATM    7  O   UNL     1     -10.115   4.261 -34.708  1.00  0.00    -0.246 OA
HETATM    8  N   UNL     1      -8.823   4.855 -32.868  1.00  0.00    -0.309 N 
HETATM    9  C   UNL     1      -7.596   5.123 -33.627  1.00  0.00     0.134 C 
HETATM   10  C   UNL     1      -6.761   3.843 -33.846  1.00  0.00     0.061 C 
HETATM   11  C   UNL     1      -6.839   2.951 -32.645  1.00  0.00    -0.018 A 
HETATM   12  C   UNL     1      -7.722   3.186 -31.605  1.00  0.00     0.055 A 
HETATM   13  N   UNL     1      -7.620   2.149 -30.715  1.00  0.00    -0.356 N 
HETATM   14  H   UNL     1      -8.182   2.030 -29.880  1.00  0.00     0.166 HD
HETATM   15  C   UNL     1      -6.726   1.214 -31.194  1.00  0.00     0.043 A 
HETATM   16  C   UNL     1      -6.202   1.706 -32.393  1.00  0.00    -0.001 A 
HETATM   17  C   UNL     1      -6.363  -0.032 -30.671  1.00  0.00     0.030 A 
HETATM   18  C   UNL     1      -5.440  -0.795 -31.392  1.00  0.00     0.002 A 
HETATM   19  C   UNL     1      -4.895  -0.326 -32.585  1.00  0.00     0.001 A 
HETATM   20  C   UNL     1      -5.268   0.922 -33.096  1.00  0.00     0.014 A 
ENDROOT
BRANCH   5  21
HETATM   21  C   UNL     1     -11.833   2.889 -32.798  1.00  0.00     0.063 A 
HETATM   22  C   UNL     1     -11.610   1.643 -33.404  1.00  0.00     0.060 A 
HETATM   23  C   UNL     1     -12.696   0.880 -33.855  1.00  0.00     0.019 A 
HETATM   24  C   UNL     1     -14.000   1.339 -33.674  1.00  0.00     0.001 A 
HETATM   25  C   UNL     1     -14.228   2.555 -33.032  1.00  0.00     0.002 A 
HETATM   26  C   UNL     1     -13.151   3.329 -32.593  1.00  0.00     0.031 A 
BRANCH  22  27
HETATM   27  C   UNL     1     -10.259   1.044 -33.530  1.00  0.00     0.268 C 
HETATM   28  N   UNL     1      -9.664   1.168 -34.782  1.00  0.00    -0.290 N 
HETATM   29  H   UNL     1     -10.105   1.712 -35.524  1.00  0.00     0.183 HD
HETATM   30  O   UNL     1      -9.696   0.543 -32.561  1.00  0.00    -0.266 OA
BRANCH  28  31
HETATM   31  N   UNL     1      -8.347   0.705 -34.971  1.00  0.00    -0.247 NA
HETATM   32  H   UNL     1      -8.421  -0.219 -35.418  1.00  0.00     0.143 HD
HETATM   33  H   UNL     1      -7.966   0.479 -34.046  1.00  0.00     0.143 HD
ENDBRANCH  28  31
ENDBRANCH  22  27
ENDBRANCH   5  21
TORSDOF 3
ENDMDL
MODEL 5
REMARK VINA RESULT:      -8.7      3.124      6.590
REMARK  3 active torsions:
REMARK  status: ('A' for Active; 'I' for Inactive)
REMARK    1  A    between atoms: N_5  and  C_6 
REMARK    2  A    between atoms: C_7  and  C_8 
REMARK       I    between atoms: C_8  and  N_9 
REMARK    3  A    between atoms: N_9  and  N_10 
ROOT
HETATM    1  C   UNL     1      -7.007   4.370 -29.497  1.00  0.00     0.056 C 
HETATM    2  C   UNL     1      -6.505   3.995 -30.879  1.00  0.00     0.158 C 
HETATM    3  C   UNL     1      -6.445   2.480 -31.098  1.00  0.00     0.267 C 
HETATM    4  O   UNL     1      -5.820   1.702 -30.383  1.00  0.00    -0.269 OA
HETATM    5  N   UNL     1      -7.060   2.201 -32.302  1.00  0.00    -0.230 N 
HETATM    6  C   UNL     1      -7.480   3.368 -32.898  1.00  0.00     0.333 C 
HETATM    7  O   UNL     1      -7.851   3.503 -34.056  1.00  0.00    -0.246 OA
HETATM    8  N   UNL     1      -7.396   4.401 -31.960  1.00  0.00    -0.309 N 
HETATM    9  C   UNL     1      -7.396   5.803 -32.394  1.00  0.00     0.134 C 
HETATM   10  C   UNL     1      -6.014   6.243 -32.923  1.00  0.00     0.061 C 
HETATM   11  C   UNL     1      -4.916   5.599 -32.132  1.00  0.00    -0.018 A 
HETATM   12  C   UNL     1      -5.161   4.593 -31.212  1.00  0.00     0.055 A 
HETATM   13  N   UNL     1      -3.955   4.150 -30.733  1.00  0.00    -0.356 N 
HETATM   14  H   UNL     1      -3.824   3.385 -30.082  1.00  0.00     0.166 HD
HETATM   15  C   UNL     1      -2.930   4.814 -31.375  1.00  0.00     0.043 A 
HETATM   16  C   UNL     1      -3.508   5.748 -32.240  1.00  0.00    -0.001 A 
HETATM   17  C   UNL     1      -1.546   4.642 -31.272  1.00  0.00     0.030 A 
HETATM   18  C   UNL     1      -0.730   5.446 -32.074  1.00  0.00     0.002 A 
HETATM   19  C   UNL     1      -1.277   6.391 -32.937  1.00  0.00     0.001 A 
HETATM   20  C   UNL     1      -2.665   6.552 -33.031  1.00  0.00     0.014 A 
ENDROOT
BRANCH   5  21
HETATM   21  C   UNL     1      -6.732   1.027 -33.009  1.00  0.00     0.063 A 
HETATM   22  C   UNL     1      -7.721   0.126 -33.432  1.00  0.00     0.060 A 
HETATM   23  C   UNL     1      -7.355  -1.131 -33.933  1.00  0.00     0.019 A 
HETATM   24  C   UNL     1      -6.008  -1.478 -34.041  1.00  0.00     0.001 A 
HETATM   25  C   UNL     1      -5.022  -0.569 -33.664  1.00  0.00     0.002 A 
HETATM   26  C   UNL     1      -5.378   0.680 -33.151  1.00  0.00     0.031 A 
BRANCH  22  27
HETATM   27  C   UNL     1      -9.164   0.469 -33.448  1.00  0.00     0.268 C 
HETATM   28  N   UNL     1      -9.606   1.142 -34.583  1.00  0.00    -0.290 N 
HETATM   29  H   UNL     1      -8.985   1.305 -35.376  1.00  0.00     0.183 HD
HETATM   30  O   UNL     1      -9.911   0.107 -32.544  1.00  0.00    -0.266 OA
BRANCH  28  31
HETATM   31  N   UNL     1     -10.977   1.433 -34.725  1.00  0.00    -0.247 NA
HETATM   32  H   UNL     1     -11.409   1.276 -33.804  1.00  0.00     0.143 HD
HETATM   33  H   UNL     1     -11.390   0.690 -35.299  1.00  0.00     0.143 HD
ENDBRANCH  28  31
ENDBRANCH  22  27
ENDBRANCH   5  21
TORSDOF 3
ENDMDL
MODEL 6
REMARK VINA RESULT:      -8.5      2.234      5.051
REMARK  3 active torsions:
REMARK  status: ('A' for Active; 'I' for Inactive)
REMARK    1  A    between atoms: N_5  and  C_6 
REMARK    2  A    between atoms: C_7  and  C_8 
REMARK       I    between atoms: C_8  and  N_9 
REMARK    3  A    between atoms: N_9  and  N_10 
ROOT
HETATM    1  C   UNL     1      -8.352   1.998 -30.822  1.00  0.00     0.056 C 
HETATM    2  C   UNL     1      -7.445   1.621 -31.980  1.00  0.00     0.158 C 
HETATM    3  C   UNL     1      -7.021   0.148 -31.947  1.00  0.00     0.267 C 
HETATM    4  O   UNL     1      -6.455  -0.387 -30.998  1.00  0.00    -0.269 OA
HETATM    5  N   UNL     1      -7.236  -0.382 -33.202  1.00  0.00    -0.230 N 
HETATM    6  C   UNL     1      -7.718   0.588 -34.049  1.00  0.00     0.333 C 
HETATM    7  O   UNL     1      -7.798   0.519 -35.268  1.00  0.00    -0.246 OA
HETATM    8  N   UNL     1      -8.092   1.698 -33.285  1.00  0.00    -0.309 N 
HETATM    9  C   UNL     1      -8.268   3.012 -33.916  1.00  0.00     0.134 C 
HETATM   10  C   UNL     1      -6.917   3.713 -34.175  1.00  0.00     0.061 C 
HETATM   11  C   UNL     1      -5.952   3.426 -33.065  1.00  0.00    -0.018 A 
HETATM   12  C   UNL     1      -6.212   2.484 -32.084  1.00  0.00     0.055 A 
HETATM   13  N   UNL     1      -5.106   2.387 -31.280  1.00  0.00    -0.356 N 
HETATM   14  H   UNL     1      -4.993   1.741 -30.508  1.00  0.00     0.166 HD
HETATM   15  C   UNL     1      -4.110   3.210 -31.764  1.00  0.00     0.043 A 
HETATM   16  C   UNL     1      -4.624   3.892 -32.870  1.00  0.00    -0.001 A 
HETATM   17  C   UNL     1      -2.793   3.380 -31.322  1.00  0.00     0.030 A 
HETATM   18  C   UNL     1      -1.981   4.273 -32.028  1.00  0.00     0.002 A 
HETATM   19  C   UNL     1      -2.471   4.973 -33.128  1.00  0.00     0.001 A 
HETATM   20  C   UNL     1      -3.789   4.792 -33.559  1.00  0.00     0.014 A 
ENDROOT
BRANCH   5  21
HETATM   21  C   UNL     1      -6.502  -1.509 -33.628  1.00  0.00     0.063 A 
HETATM   22  C   UNL     1      -5.099  -1.512 -33.629  1.00  0.00     0.060 A 
HETATM   23  C   UNL     1      -4.402  -2.551 -34.260  1.00  0.00     0.019 A 
HETATM   24  C   UNL     1      -5.098  -3.600 -34.860  1.00  0.00     0.001 A 
HETATM   25  C   UNL     1      -6.491  -3.624 -34.823  1.00  0.00     0.002 A 
HETATM   26  C   UNL     1      -7.194  -2.584 -34.209  1.00  0.00     0.031 A 
BRANCH  22  27
HETATM   27  C   UNL     1      -4.295  -0.489 -32.916  1.00  0.00     0.268 C 
HETATM   28  N   UNL     1      -3.786  -0.882 -31.682  1.00  0.00    -0.290 N 
HETATM   29  H   UNL     1      -3.896  -1.838 -31.346  1.00  0.00     0.183 HD
HETATM   30  O   UNL     1      -4.048   0.596 -33.435  1.00  0.00    -0.266 OA
BRANCH  28  31
HETATM   31  N   UNL     1      -2.939  -0.007 -30.973  1.00  0.00    -0.247 NA
HETATM   32  H   UNL     1      -3.097  -0.191 -29.973  1.00  0.00     0.143 HD
HETATM   33  H   UNL     1      -3.312   0.941 -31.089  1.00  0.00     0.143 HD
ENDBRANCH  28  31
ENDBRANCH  22  27
ENDBRANCH   5  21
TORSDOF 3
ENDMDL
MODEL 7
REMARK VINA RESULT:      -8.4      3.842      5.404
REMARK  3 active torsions:
REMARK  status: ('A' for Active; 'I' for Inactive)
REMARK    1  A    between atoms: N_5  and  C_6 
REMARK    2  A    between atoms: C_7  and  C_8 
REMARK       I    between atoms: C_8  and  N_9 
REMARK    3  A    between atoms: N_9  and  N_10 
ROOT
HETATM    1  C   UNL     1      -6.547   4.468 -28.961  1.00  0.00     0.056 C 
HETATM    2  C   UNL     1      -6.037   3.913 -30.278  1.00  0.00     0.158 C 
HETATM    3  C   UNL     1      -5.087   4.875 -30.999  1.00  0.00     0.267 C 
HETATM    4  O   UNL     1      -5.373   6.028 -31.306  1.00  0.00    -0.269 OA
HETATM    5  N   UNL     1      -3.965   4.163 -31.372  1.00  0.00    -0.230 N 
HETATM    6  C   UNL     1      -4.098   2.845 -31.001  1.00  0.00     0.333 C 
HETATM    7  O   UNL     1      -3.404   1.909 -31.372  1.00  0.00    -0.246 OA
HETATM    8  N   UNL     1      -5.187   2.736 -30.131  1.00  0.00    -0.309 N 
HETATM    9  C   UNL     1      -5.814   1.432 -29.881  1.00  0.00     0.134 C 
HETATM   10  C   UNL     1      -6.759   1.016 -31.029  1.00  0.00     0.061 C 
HETATM   11  C   UNL     1      -7.475   2.211 -31.582  1.00  0.00    -0.018 A 
HETATM   12  C   UNL     1      -7.138   3.506 -31.225  1.00  0.00     0.055 A 
HETATM   13  N   UNL     1      -7.903   4.366 -31.969  1.00  0.00    -0.356 N 
HETATM   14  H   UNL     1      -7.836   5.377 -31.954  1.00  0.00     0.166 HD
HETATM   15  C   UNL     1      -8.688   3.648 -32.846  1.00  0.00     0.043 A 
HETATM   16  C   UNL     1      -8.457   2.290 -32.605  1.00  0.00    -0.001 A 
HETATM   17  C   UNL     1      -9.561   4.096 -33.843  1.00  0.00     0.030 A 
HETATM   18  C   UNL     1     -10.217   3.131 -34.614  1.00  0.00     0.002 A 
HETATM   19  C   UNL     1     -10.013   1.772 -34.390  1.00  0.00     0.001 A 
HETATM   20  C   UNL     1      -9.135   1.338 -33.390  1.00  0.00     0.014 A 
ENDROOT
BRANCH   5  21
HETATM   21  C   UNL     1      -3.175   4.603 -32.453  1.00  0.00     0.063 A 
HETATM   22  C   UNL     1      -1.938   5.233 -32.247  1.00  0.00     0.060 A 
HETATM   23  C   UNL     1      -1.282   5.855 -33.318  1.00  0.00     0.019 A 
HETATM   24  C   UNL     1      -1.839   5.821 -34.596  1.00  0.00     0.001 A 
HETATM   25  C   UNL     1      -3.044   5.157 -34.814  1.00  0.00     0.002 A 
HETATM   26  C   UNL     1      -3.712   4.548 -33.749  1.00  0.00     0.031 A 
BRANCH  22  27
HETATM   27  C   UNL     1      -1.236   5.213 -30.940  1.00  0.00     0.268 C 
HETATM   28  N   UNL     1      -1.625   6.198 -30.037  1.00  0.00    -0.290 N 
HETATM   29  H   UNL     1      -2.400   6.828 -30.244  1.00  0.00     0.183 HD
HETATM   30  O   UNL     1      -0.425   4.332 -30.671  1.00  0.00    -0.266 OA
BRANCH  28  31
HETATM   31  N   UNL     1      -1.074   6.204 -28.740  1.00  0.00    -0.247 NA
HETATM   32  H   UNL     1      -1.315   7.113 -28.322  1.00  0.00     0.143 HD
HETATM   33  H   UNL     1      -0.055   6.264 -28.841  1.00  0.00     0.143 HD
ENDBRANCH  28  31
ENDBRANCH  22  27
ENDBRANCH   5  21
TORSDOF 3
ENDMDL
MODEL 8
REMARK VINA RESULT:      -8.4      4.142      6.229
REMARK  3 active torsions:
REMARK  status: ('A' for Active; 'I' for Inactive)
REMARK    1  A    between atoms: N_5  and  C_6 
REMARK    2  A    between atoms: C_7  and  C_8 
REMARK       I    between atoms: C_8  and  N_9 
REMARK    3  A    between atoms: N_9  and  N_10 
ROOT
HETATM    1  C   UNL     1      -8.138   5.237 -32.138  1.00  0.00     0.056 C 
HETATM    2  C   UNL     1      -6.792   4.538 -32.187  1.00  0.00     0.158 C 
HETATM    3  C   UNL     1      -5.762   5.292 -33.035  1.00  0.00     0.267 C 
HETATM    4  O   UNL     1      -5.929   5.601 -34.212  1.00  0.00    -0.269 OA
HETATM    5  N   UNL     1      -4.599   5.393 -32.299  1.00  0.00    -0.230 N 
HETATM    6  C   UNL     1      -4.752   4.762 -31.087  1.00  0.00     0.333 C 
HETATM    7  O   UNL     1      -3.862   4.469 -30.300  1.00  0.00    -0.246 OA
HETATM    8  N   UNL     1      -6.109   4.484 -30.898  1.00  0.00    -0.309 N 
HETATM    9  C   UNL     1      -6.534   3.487 -29.909  1.00  0.00     0.134 C 
HETATM   10  C   UNL     1      -6.367   2.044 -30.434  1.00  0.00     0.061 C 
HETATM   11  C   UNL     1      -6.680   1.975 -31.897  1.00  0.00    -0.018 A 
HETATM   12  C   UNL     1      -6.873   3.110 -32.666  1.00  0.00     0.055 A 
HETATM   13  N   UNL     1      -7.042   2.720 -33.969  1.00  0.00    -0.356 N 
HETATM   14  H   UNL     1      -7.155   3.342 -34.761  1.00  0.00     0.166 HD
HETATM   15  C   UNL     1      -6.900   1.351 -34.064  1.00  0.00     0.043 A 
HETATM   16  C   UNL     1      -6.697   0.857 -32.773  1.00  0.00    -0.001 A 
HETATM   17  C   UNL     1      -6.912   0.524 -35.192  1.00  0.00     0.030 A 
HETATM   18  C   UNL     1      -6.712  -0.846 -34.995  1.00  0.00     0.002 A 
HETATM   19  C   UNL     1      -6.517  -1.368 -33.718  1.00  0.00     0.001 A 
HETATM   20  C   UNL     1      -6.506  -0.528 -32.599  1.00  0.00     0.014 A 
ENDROOT
BRANCH   5  21
HETATM   21  C   UNL     1      -3.361   5.559 -32.953  1.00  0.00     0.063 A 
HETATM   22  C   UNL     1      -2.559   6.688 -32.726  1.00  0.00     0.060 A 
HETATM   23  C   UNL     1      -1.449   6.935 -33.546  1.00  0.00     0.019 A 
HETATM   24  C   UNL     1      -1.121   6.045 -34.569  1.00  0.00     0.001 A 
HETATM   25  C   UNL     1      -1.889   4.899 -34.769  1.00  0.00     0.002 A 
HETATM   26  C   UNL     1      -3.005   4.653 -33.965  1.00  0.00     0.031 A 
BRANCH  22  27
HETATM   27  C   UNL     1      -2.784   7.616 -31.591  1.00  0.00     0.268 C 
HETATM   28  N   UNL     1      -2.222   7.225 -30.379  1.00  0.00    -0.290 N 
HETATM   29  H   UNL     1      -1.628   6.398 -30.314  1.00  0.00     0.183 HD
HETATM   30  O   UNL     1      -3.365   8.685 -31.752  1.00  0.00    -0.266 OA
BRANCH  28  31
HETATM   31  N   UNL     1      -2.311   8.085 -29.266  1.00  0.00    -0.247 NA
HETATM   32  H   UNL     1      -3.024   7.686 -28.642  1.00  0.00     0.143 HD
HETATM   33  H   UNL     1      -2.750   8.955 -29.586  1.00  0.00     0.143 HD
ENDBRANCH  28  31
ENDBRANCH  22  27
ENDBRANCH   5  21
TORSDOF 3
ENDMDL
MODEL 9
REMARK VINA RESULT:      -8.2     14.937     17.511
REMARK  3 active torsions:
REMARK  status: ('A' for Active; 'I' for Inactive)
REMARK    1  A    between atoms: N_5  and  C_6 
REMARK    2  A    between atoms: C_7  and  C_8 
REMARK       I    between atoms: C_8  and  N_9 
REMARK    3  A    between atoms: N_9  and  N_10 
ROOT
HETATM    1  C   UNL     1      -5.713 -18.051 -37.512  1.00  0.00     0.056 C 
HETATM    2  C   UNL     1      -5.790 -16.548 -37.705  1.00  0.00     0.158 C 
HETATM    3  C   UNL     1      -6.859 -16.134 -38.723  1.00  0.00     0.267 C 
HETATM    4  O   UNL     1      -6.905 -16.541 -39.880  1.00  0.00    -0.269 OA
HETATM    5  N   UNL     1      -7.616 -15.130 -38.156  1.00  0.00    -0.230 N 
HETATM    6  C   UNL     1      -7.137 -14.826 -36.903  1.00  0.00     0.333 C 
HETATM    7  O   UNL     1      -7.425 -13.847 -36.229  1.00  0.00    -0.246 OA
HETATM    8  N   UNL     1      -6.234 -15.823 -36.520  1.00  0.00    -0.309 N 
HETATM    9  C   UNL     1      -5.279 -15.584 -35.432  1.00  0.00     0.134 C 
HETATM   10  C   UNL     1      -4.070 -14.744 -35.899  1.00  0.00     0.061 C 
HETATM   11  C   UNL     1      -3.687 -15.106 -37.302  1.00  0.00    -0.018 A 
HETATM   12  C   UNL     1      -4.473 -15.924 -38.095  1.00  0.00     0.055 A 
HETATM   13  N   UNL     1      -3.906 -15.983 -39.342  1.00  0.00    -0.356 N 
HETATM   14  H   UNL     1      -4.291 -16.470 -40.142  1.00  0.00     0.166 HD
HETATM   15  C   UNL     1      -2.796 -15.165 -39.384  1.00  0.00     0.043 A 
HETATM   16  C   UNL     1      -2.622 -14.622 -38.108  1.00  0.00    -0.001 A 
HETATM   17  C   UNL     1      -1.954 -14.849 -40.456  1.00  0.00     0.030 A 
HETATM   18  C   UNL     1      -0.906 -13.955 -40.217  1.00  0.00     0.002 A 
HETATM   19  C   UNL     1      -0.703 -13.406 -38.953  1.00  0.00     0.001 A 
HETATM   20  C   UNL     1      -1.554 -13.731 -37.890  1.00  0.00     0.014 A 
ENDROOT
BRANCH   5  21
HETATM   21  C   UNL     1      -8.310 -14.218 -38.979  1.00  0.00     0.063 A 
HETATM   22  C   UNL     1      -7.706 -13.036 -39.434  1.00  0.00     0.060 A 
HETATM   23  C   UNL     1      -8.482 -12.050 -40.059  1.00  0.00     0.019 A 
HETATM   24  C   UNL     1      -9.847 -12.253 -40.260  1.00  0.00     0.001 A 
HETATM   25  C   UNL     1     -10.441 -13.445 -39.850  1.00  0.00     0.002 A 
HETATM   26  C   UNL     1      -9.679 -14.427 -39.213  1.00  0.00     0.031 A 
BRANCH  22  27
HETATM   27  C   UNL     1      -6.244 -12.800 -39.352  1.00  0.00     0.268 C 
HETATM   28  N   UNL     1      -5.819 -12.053 -38.258  1.00  0.00    -0.290 N 
HETATM   29  H   UNL     1      -6.471 -11.768 -37.528  1.00  0.00     0.183 HD
HETATM   30  O   UNL     1      -5.475 -13.304 -40.166  1.00  0.00    -0.266 OA
BRANCH  28  31
HETATM   31  N   UNL     1      -4.439 -11.852 -38.052  1.00  0.00    -0.247 NA
HETATM   32  H   UNL     1      -4.347 -11.338 -37.165  1.00  0.00     0.143 HD
HETATM   33  H   UNL     1      -4.124 -11.165 -38.745  1.00  0.00     0.143 HD
ENDBRANCH  28  31
ENDBRANCH  22  27
ENDBRANCH   5  21
TORSDOF 3
ENDMDL
MODEL 10
REMARK VINA RESULT:      -8.2      3.396      5.716
REMARK  3 active torsions:
REMARK  status: ('A' for Active; 'I' for Inactive)
REMARK    1  A    between atoms: N_5  and  C_6 
REMARK    2  A    between atoms: C_7  and  C_8 
REMARK       I    between atoms: C_8  and  N_9 
REMARK    3  A    between atoms: N_9  and  N_10 
ROOT
HETATM    1  C   UNL     1      -8.374   5.546 -32.855  1.00  0.00     0.056 C 
HETATM    2  C   UNL     1      -7.083   4.896 -32.391  1.00  0.00     0.158 C 
HETATM    3  C   UNL     1      -5.839   5.540 -33.013  1.00  0.00     0.267 C 
HETATM    4  O   UNL     1      -5.647   5.649 -34.221  1.00  0.00    -0.269 OA
HETATM    5  N   UNL     1      -4.943   5.800 -31.996  1.00  0.00    -0.230 N 
HETATM    6  C   UNL     1      -5.455   5.368 -30.795  1.00  0.00     0.333 C 
HETATM    7  O   UNL     1      -4.841   5.238 -29.745  1.00  0.00    -0.246 OA
HETATM    8  N   UNL     1      -6.811   5.075 -30.969  1.00  0.00    -0.309 N 
HETATM    9  C   UNL     1      -7.523   4.236 -29.998  1.00  0.00     0.134 C 
HETATM   10  C   UNL     1      -7.227   2.735 -30.205  1.00  0.00     0.061 C 
HETATM   11  C   UNL     1      -7.096   2.419 -31.664  1.00  0.00    -0.018 A 
HETATM   12  C   UNL     1      -7.039   3.408 -32.632  1.00  0.00     0.055 A 
HETATM   13  N   UNL     1      -6.821   2.807 -33.844  1.00  0.00    -0.356 N 
HETATM   14  H   UNL     1      -6.687   3.288 -34.726  1.00  0.00     0.166 HD
HETATM   15  C   UNL     1      -6.676   1.446 -33.666  1.00  0.00     0.043 A 
HETATM   16  C   UNL     1      -6.870   1.175 -32.309  1.00  0.00    -0.001 A 
HETATM   17  C   UNL     1      -6.366   0.448 -34.596  1.00  0.00     0.030 A 
HETATM   18  C   UNL     1      -6.252  -0.864 -34.126  1.00  0.00     0.002 A 
HETATM   19  C   UNL     1      -6.449  -1.166 -32.781  1.00  0.00     0.001 A 
HETATM   20  C   UNL     1      -6.757  -0.156 -31.862  1.00  0.00     0.014 A 
ENDROOT
BRANCH   5  21
HETATM   21  C   UNL     1      -3.565   5.902 -32.277  1.00  0.00     0.063 A 
HETATM   22  C   UNL     1      -2.726   4.778 -32.245  1.00  0.00     0.060 A 
HETATM   23  C   UNL     1      -1.335   4.941 -32.308  1.00  0.00     0.019 A 
HETATM   24  C   UNL     1      -0.783   6.216 -32.435  1.00  0.00     0.001 A 
HETATM   25  C   UNL     1      -1.615   7.331 -32.513  1.00  0.00     0.002 A 
HETATM   26  C   UNL     1      -3.002   7.179 -32.435  1.00  0.00     0.031 A 
BRANCH  22  27
HETATM   27  C   UNL     1      -3.246   3.390 -32.221  1.00  0.00     0.268 C 
HETATM   28  N   UNL     1      -3.202   2.755 -30.983  1.00  0.00    -0.290 N 
HETATM   29  H   UNL     1      -2.908   3.255 -30.144  1.00  0.00     0.183 HD
HETATM   30  O   UNL     1      -3.745   2.883 -33.222  1.00  0.00    -0.266 OA
BRANCH  28  31
HETATM   31  N   UNL     1      -3.753   1.466 -30.846  1.00  0.00    -0.247 NA
HETATM   32  H   UNL     1      -3.843   1.081 -31.796  1.00  0.00     0.143 HD
HETATM   33  H   UNL     1      -4.730   1.580 -30.555  1.00  0.00     0.143 HD
ENDBRANCH  28  31
ENDBRANCH  22  27
ENDBRANCH   5  21
TORSDOF 3
ENDMDL
