MODEL 1
REMARK VINA RESULT:      -8.2      0.000      0.000
REMARK  6 active torsions:
REMARK  status: ('A' for Active; 'I' for Inactive)
REMARK    1  A    between atoms: C_9  and  C_10 
REMARK       I    between atoms: C_10  and  N_11 
REMARK    2  A    between atoms: N_11  and  C_12 
REMARK    3  A    between atoms: C_12  and  C_13 
REMARK    4  A    between atoms: C_13  and  O_14 
REMARK    5  A    between atoms: C_13  and  C_15 
REMARK    6  A    between atoms: C_18  and  O_19 
ROOT
HETATM    1  C   UNL     1      -4.137   2.237 -31.707  1.00  0.00     0.258 C 
HETATM    2  N   UNL     1      -3.874   1.098 -32.429  1.00  0.00    -0.350 N 
HETATM    3  O   UNL     1      -4.669   2.215 -30.601  1.00  0.00    -0.267 OA
HETATM    4  H   UNL     1      -3.333   1.193 -33.288  1.00  0.00     0.163 HD
ENDROOT
BRANCH   2   5
HETATM    5  C   UNL     1      -4.037  -0.244 -31.878  1.00  0.00     0.114 C 
HETATM    6  C   UNL     1      -2.652  -0.850 -31.634  1.00  0.00     0.035 C 
BRANCH   5   7
HETATM    7  C   UNL     1      -4.879  -1.156 -32.808  1.00  0.00     0.173 C 
BRANCH   7   8
HETATM    8  O   UNL     1      -4.097  -1.597 -33.928  1.00  0.00    -0.389 OA
HETATM    9  H   UNL     1      -4.702  -2.087 -34.511  1.00  0.00     0.210 HD
ENDBRANCH   7   8
BRANCH   7  10
HETATM   10  C   UNL     1      -6.168  -0.509 -33.279  1.00  0.00    -0.028 A 
HETATM   11  C   UNL     1      -7.118  -0.084 -32.341  1.00  0.00     0.012 A 
HETATM   12  C   UNL     1      -8.307   0.519 -32.757  1.00  0.00     0.037 A 
HETATM   13  C   UNL     1      -8.571   0.714 -34.114  1.00  0.00     0.068 A 
HETATM   14  C   UNL     1      -7.626   0.308 -35.055  1.00  0.00     0.037 A 
HETATM   15  C   UNL     1      -6.432  -0.294 -34.640  1.00  0.00     0.012 A 
BRANCH  13  16
HETATM   16  O   UNL     1      -9.773   1.309 -34.382  1.00  0.00    -0.356 OA
HETATM   17  C   UNL     1     -10.864   0.960 -33.540  1.00  0.00     0.210 C 
ENDBRANCH  13  16
ENDBRANCH   7  10
ENDBRANCH   5   7
ENDBRANCH   2   5
BRANCH   1  18
HETATM   18  C   UNL     1      -3.717   3.479 -32.338  1.00  0.00     0.105 A 
HETATM   19  C   UNL     1      -2.599   4.243 -32.053  1.00  0.00     0.169 A 
HETATM   20  N   UNL     1      -1.584   4.066 -31.146  1.00  0.00    -0.233 NA
HETATM   21  N   UNL     1      -2.661   5.364 -32.887  1.00  0.00    -0.219 N 
HETATM   22  C   UNL     1      -0.692   5.012 -31.078  1.00  0.00     0.035 A 
HETATM   23  C   UNL     1       0.443   4.851 -30.099  1.00  0.00     0.070 C 
HETATM   24  C   UNL     1      -0.686   6.247 -31.923  1.00  0.00     0.053 A 
HETATM   25  C   UNL     1      -1.688   6.371 -32.812  1.00  0.00     0.036 A 
HETATM   26  C   UNL     1      -1.823   7.550 -33.724  1.00  0.00     0.070 C 
HETATM   27  N   UNL     1      -3.737   5.315 -33.709  1.00  0.00    -0.170 NA
HETATM   28  C   UNL     1      -4.376   4.189 -33.375  1.00  0.00     0.071 A 
HETATM   29  C   UNL     1      -5.635   3.819 -34.073  1.00  0.00     0.073 C 
ENDBRANCH   1  18
TORSDOF 6
ENDMDL
MODEL 2
REMARK VINA RESULT:      -7.9      2.683      7.758
REMARK  6 active torsions:
REMARK  status: ('A' for Active; 'I' for Inactive)
REMARK    1  A    between atoms: C_9  and  C_10 
REMARK       I    between atoms: C_10  and  N_11 
REMARK    2  A    between atoms: N_11  and  C_12 
REMARK    3  A    between atoms: C_12  and  C_13 
REMARK    4  A    between atoms: C_13  and  O_14 
REMARK    5  A    between atoms: C_13  and  C_15 
REMARK    6  A    between atoms: C_18  and  O_19 
ROOT
HETATM    1  C   UNL     1      -5.653   1.121 -32.605  1.00  0.00     0.258 C 
HETATM    2  N   UNL     1      -4.707   1.981 -33.108  1.00  0.00    -0.350 N 
HETATM    3  O   UNL     1      -6.299   1.365 -31.589  1.00  0.00    -0.267 OA
HETATM    4  H   UNL     1      -4.294   1.756 -34.012  1.00  0.00     0.163 HD
ENDROOT
BRANCH   2   5
HETATM    5  C   UNL     1      -4.510   3.332 -32.592  1.00  0.00     0.114 C 
HETATM    6  C   UNL     1      -5.131   4.332 -33.570  1.00  0.00     0.035 C 
BRANCH   5   7
HETATM    7  C   UNL     1      -3.010   3.652 -32.360  1.00  0.00     0.173 C 
BRANCH   7   8
HETATM    8  O   UNL     1      -2.531   3.007 -31.170  1.00  0.00    -0.389 OA
HETATM    9  H   UNL     1      -3.305   2.883 -30.594  1.00  0.00     0.210 HD
ENDBRANCH   7   8
BRANCH   7  10
HETATM   10  C   UNL     1      -2.712   5.140 -32.318  1.00  0.00    -0.028 A 
HETATM   11  C   UNL     1      -3.093   5.896 -31.202  1.00  0.00     0.012 A 
HETATM   12  C   UNL     1      -2.822   7.265 -31.145  1.00  0.00     0.037 A 
HETATM   13  C   UNL     1      -2.162   7.906 -32.197  1.00  0.00     0.068 A 
HETATM   14  C   UNL     1      -1.766   7.159 -33.305  1.00  0.00     0.037 A 
HETATM   15  C   UNL     1      -2.035   5.786 -33.363  1.00  0.00     0.012 A 
BRANCH  13  16
HETATM   16  O   UNL     1      -1.966   9.246 -32.014  1.00  0.00    -0.356 OA
HETATM   17  C   UNL     1      -2.488   9.815 -30.820  1.00  0.00     0.210 C 
ENDBRANCH  13  16
ENDBRANCH   7  10
ENDBRANCH   5   7
ENDBRANCH   2   5
BRANCH   1  18
HETATM   18  C   UNL     1      -5.854  -0.096 -33.375  1.00  0.00     0.105 A 
HETATM   19  C   UNL     1      -5.175  -1.296 -33.262  1.00  0.00     0.169 A 
HETATM   20  N   UNL     1      -4.166  -1.695 -32.420  1.00  0.00    -0.233 NA
HETATM   21  N   UNL     1      -5.692  -2.140 -34.252  1.00  0.00    -0.219 N 
HETATM   22  C   UNL     1      -3.691  -2.892 -32.608  1.00  0.00     0.035 A 
HETATM   23  C   UNL     1      -2.587  -3.369 -31.698  1.00  0.00     0.070 C 
HETATM   24  C   UNL     1      -4.175  -3.855 -33.646  1.00  0.00     0.053 A 
HETATM   25  C   UNL     1      -5.177  -3.431 -34.436  1.00  0.00     0.036 A 
HETATM   26  C   UNL     1      -5.767  -4.275 -35.523  1.00  0.00     0.070 C 
HETATM   27  N   UNL     1      -6.688  -1.540 -34.946  1.00  0.00    -0.170 NA
HETATM   28  C   UNL     1      -6.781  -0.311 -34.428  1.00  0.00     0.071 A 
HETATM   29  C   UNL     1      -7.778   0.648 -34.972  1.00  0.00     0.073 C 
ENDBRANCH   1  18
TORSDOF 6
ENDMDL
MODEL 3
REMARK VINA RESULT:      -7.8      2.510      3.612
REMARK  6 active torsions:
REMARK  status: ('A' for Active; 'I' for Inactive)
REMARK    1  A    between atoms: C_9  and  C_10 
REMARK       I    between atoms: C_10  and  N_11 
REMARK    2  A    between atoms: N_11  and  C_12 
REMARK    3  A    between atoms: C_12  and  C_13 
REMARK    4  A    between atoms: C_13  and  O_14 
REMARK    5  A    between atoms: C_13  and  C_15 
REMARK    6  A    between atoms: C_18  and  O_19 
ROOT
HETATM    1  C   UNL     1      -5.263   3.436 -31.463  1.00  0.00     0.258 C 
HETATM    2  N   UNL     1      -4.567   2.358 -30.973  1.00  0.00    -0.350 N 
HETATM    3  O   UNL     1      -6.354   3.326 -32.017  1.00  0.00    -0.267 OA
HETATM    4  H   UNL     1      -3.723   2.545 -30.431  1.00  0.00     0.163 HD
ENDROOT
BRANCH   2   5
HETATM    5  C   UNL     1      -5.133   1.015 -30.901  1.00  0.00     0.114 C 
HETATM    6  C   UNL     1      -5.822   0.839 -29.545  1.00  0.00     0.035 C 
BRANCH   5   7
HETATM    7  C   UNL     1      -4.057  -0.081 -31.116  1.00  0.00     0.173 C 
BRANCH   7   8
HETATM    8  O   UNL     1      -2.766   0.510 -31.327  1.00  0.00    -0.389 OA
HETATM    9  H   UNL     1      -2.926   1.420 -31.630  1.00  0.00     0.210 HD
ENDBRANCH   7   8
BRANCH   7  10
HETATM   10  C   UNL     1      -4.395  -1.044 -32.240  1.00  0.00    -0.028 A 
HETATM   11  C   UNL     1      -5.489  -0.783 -33.075  1.00  0.00     0.012 A 
HETATM   12  C   UNL     1      -5.810  -1.656 -34.117  1.00  0.00     0.037 A 
HETATM   13  C   UNL     1      -5.046  -2.802 -34.350  1.00  0.00     0.068 A 
HETATM   14  C   UNL     1      -3.946  -3.062 -33.533  1.00  0.00     0.037 A 
HETATM   15  C   UNL     1      -3.621  -2.187 -32.490  1.00  0.00     0.012 A 
BRANCH  13  16
HETATM   16  O   UNL     1      -5.474  -3.570 -35.397  1.00  0.00    -0.356 OA
HETATM   17  C   UNL     1      -6.608  -4.396 -35.166  1.00  0.00     0.210 C 
ENDBRANCH  13  16
ENDBRANCH   7  10
ENDBRANCH   5   7
ENDBRANCH   2   5
BRANCH   1  18
HETATM   18  C   UNL     1      -4.626   4.728 -31.261  1.00  0.00     0.105 A 
HETATM   19  C   UNL     1      -3.644   5.322 -32.035  1.00  0.00     0.169 A 
HETATM   20  N   UNL     1      -3.013   4.907 -33.181  1.00  0.00    -0.233 NA
HETATM   21  N   UNL     1      -3.320   6.530 -31.406  1.00  0.00    -0.219 N 
HETATM   22  C   UNL     1      -2.073   5.681 -33.641  1.00  0.00     0.035 A 
HETATM   23  C   UNL     1      -1.361   5.262 -34.903  1.00  0.00     0.070 C 
HETATM   24  C   UNL     1      -1.656   6.981 -33.029  1.00  0.00     0.053 A 
HETATM   25  C   UNL     1      -2.313   7.360 -31.918  1.00  0.00     0.036 A 
HETATM   26  C   UNL     1      -2.009   8.631 -31.188  1.00  0.00     0.070 C 
HETATM   27  N   UNL     1      -4.083   6.738 -30.305  1.00  0.00    -0.170 NA
HETATM   28  C   UNL     1      -4.860   5.654 -30.212  1.00  0.00     0.071 A 
HETATM   29  C   UNL     1      -5.827   5.532 -29.090  1.00  0.00     0.073 C 
ENDBRANCH   1  18
TORSDOF 6
ENDMDL
MODEL 4
REMARK VINA RESULT:      -7.7      2.502      7.526
REMARK  6 active torsions:
REMARK  status: ('A' for Active; 'I' for Inactive)
REMARK    1  A    between atoms: C_9  and  C_10 
REMARK       I    between atoms: C_10  and  N_11 
REMARK    2  A    between atoms: N_11  and  C_12 
REMARK    3  A    between atoms: C_12  and  C_13 
REMARK    4  A    between atoms: C_13  and  O_14 
REMARK    5  A    between atoms: C_13  and  C_15 
REMARK    6  A    between atoms: C_18  and  O_19 
ROOT
HETATM    1  C   UNL     1      -6.153   1.669 -33.010  1.00  0.00     0.258 C 
HETATM    2  N   UNL     1      -5.961   2.696 -33.902  1.00  0.00    -0.350 N 
HETATM    3  O   UNL     1      -6.230   1.849 -31.798  1.00  0.00    -0.267 OA
HETATM    4  H   UNL     1      -6.017   2.477 -34.897  1.00  0.00     0.163 HD
ENDROOT
BRANCH   2   5
HETATM    5  C   UNL     1      -6.011   4.102 -33.515  1.00  0.00     0.114 C 
HETATM    6  C   UNL     1      -7.406   4.652 -33.828  1.00  0.00     0.035 C 
BRANCH   5   7
HETATM    7  C   UNL     1      -4.919   4.941 -34.229  1.00  0.00     0.173 C 
BRANCH   7   8
HETATM    8  O   UNL     1      -4.733   4.488 -35.578  1.00  0.00    -0.389 OA
HETATM    9  H   UNL     1      -5.597   4.567 -36.018  1.00  0.00     0.210 HD
ENDBRANCH   7   8
BRANCH   7  10
HETATM   10  C   UNL     1      -3.596   4.963 -33.485  1.00  0.00    -0.028 A 
HETATM   11  C   UNL     1      -3.515   4.433 -32.191  1.00  0.00     0.012 A 
HETATM   12  C   UNL     1      -2.304   4.441 -31.495  1.00  0.00     0.037 A 
HETATM   13  C   UNL     1      -1.151   4.971 -32.076  1.00  0.00     0.068 A 
HETATM   14  C   UNL     1      -1.217   5.488 -33.369  1.00  0.00     0.037 A 
HETATM   15  C   UNL     1      -2.429   5.478 -34.070  1.00  0.00     0.012 A 
BRANCH  13  16
HETATM   16  O   UNL     1      -0.038   4.920 -31.283  1.00  0.00    -0.356 OA
HETATM   17  C   UNL     1       0.599   6.157 -30.989  1.00  0.00     0.210 C 
ENDBRANCH  13  16
ENDBRANCH   7  10
ENDBRANCH   5   7
ENDBRANCH   2   5
BRANCH   1  18
HETATM   18  C   UNL     1      -6.280   0.348 -33.605  1.00  0.00     0.105 A 
HETATM   19  C   UNL     1      -5.474  -0.759 -33.400  1.00  0.00     0.169 A 
HETATM   20  N   UNL     1      -4.374  -0.948 -32.601  1.00  0.00    -0.233 NA
HETATM   21  N   UNL     1      -5.969  -1.769 -34.233  1.00  0.00    -0.219 N 
HETATM   22  C   UNL     1      -3.792  -2.110 -32.678  1.00  0.00     0.035 A 
HETATM   23  C   UNL     1      -2.584  -2.358 -31.810  1.00  0.00     0.070 C 
HETATM   24  C   UNL     1      -4.246  -3.241 -33.546  1.00  0.00     0.053 A 
HETATM   25  C   UNL     1      -5.338  -3.020 -34.298  1.00  0.00     0.036 A 
HETATM   26  C   UNL     1      -5.912  -4.050 -35.220  1.00  0.00     0.070 C 
HETATM   27  N   UNL     1      -7.068  -1.361 -34.912  1.00  0.00    -0.170 NA
HETATM   28  C   UNL     1      -7.251  -0.089 -34.543  1.00  0.00     0.071 A 
HETATM   29  C   UNL     1      -8.377   0.693 -35.118  1.00  0.00     0.073 C 
ENDBRANCH   1  18
TORSDOF 6
ENDMDL
MODEL 5
REMARK VINA RESULT:      -7.6      2.229      4.073
REMARK  6 active torsions:
REMARK  status: ('A' for Active; 'I' for Inactive)
REMARK    1  A    between atoms: C_9  and  C_10 
REMARK       I    between atoms: C_10  and  N_11 
REMARK    2  A    between atoms: N_11  and  C_12 
REMARK    3  A    between atoms: C_12  and  C_13 
REMARK    4  A    between atoms: C_13  and  O_14 
REMARK    5  A    between atoms: C_13  and  C_15 
REMARK    6  A    between atoms: C_18  and  O_19 
ROOT
HETATM    1  C   UNL     1      -6.317   3.567 -32.760  1.00  0.00     0.258 C 
HETATM    2  N   UNL     1      -6.297   2.211 -32.539  1.00  0.00    -0.350 N 
HETATM    3  O   UNL     1      -7.104   4.102 -33.535  1.00  0.00    -0.267 OA
HETATM    4  H   UNL     1      -5.689   1.859 -31.800  1.00  0.00     0.163 HD
ENDROOT
BRANCH   2   5
HETATM    5  C   UNL     1      -7.317   1.308 -33.062  1.00  0.00     0.114 C 
HETATM    6  C   UNL     1      -7.551   0.184 -32.048  1.00  0.00     0.035 C 
BRANCH   5   7
HETATM    7  C   UNL     1      -6.923   0.725 -34.445  1.00  0.00     0.173 C 
BRANCH   7   8
HETATM    8  O   UNL     1      -8.054   0.707 -35.328  1.00  0.00    -0.389 OA
HETATM    9  H   UNL     1      -8.096  -0.189 -35.704  1.00  0.00     0.210 HD
ENDBRANCH   7   8
BRANCH   7  10
HETATM   10  C   UNL     1      -6.290  -0.651 -34.359  1.00  0.00    -0.028 A 
HETATM   11  C   UNL     1      -7.002  -1.775 -34.797  1.00  0.00     0.012 A 
HETATM   12  C   UNL     1      -6.431  -3.048 -34.729  1.00  0.00     0.037 A 
HETATM   13  C   UNL     1      -5.139  -3.225 -34.228  1.00  0.00     0.068 A 
HETATM   14  C   UNL     1      -4.417  -2.111 -33.803  1.00  0.00     0.037 A 
HETATM   15  C   UNL     1      -4.986  -0.834 -33.873  1.00  0.00     0.012 A 
BRANCH  13  16
HETATM   16  O   UNL     1      -4.706  -4.522 -34.213  1.00  0.00    -0.356 OA
HETATM   17  C   UNL     1      -3.408  -4.760 -33.685  1.00  0.00     0.210 C 
ENDBRANCH  13  16
ENDBRANCH   7  10
ENDBRANCH   5   7
ENDBRANCH   2   5
BRANCH   1  18
HETATM   18  C   UNL     1      -5.350   4.333 -31.990  1.00  0.00     0.105 A 
HETATM   19  C   UNL     1      -4.112   4.797 -32.400  1.00  0.00     0.169 A 
HETATM   20  N   UNL     1      -3.456   4.699 -33.602  1.00  0.00    -0.233 NA
HETATM   21  N   UNL     1      -3.538   5.429 -31.291  1.00  0.00    -0.219 N 
HETATM   22  C   UNL     1      -2.255   5.199 -33.651  1.00  0.00     0.035 A 
HETATM   23  C   UNL     1      -1.504   5.117 -34.957  1.00  0.00     0.070 C 
HETATM   24  C   UNL     1      -1.561   5.881 -32.515  1.00  0.00     0.053 A 
HETATM   25  C   UNL     1      -2.247   5.973 -31.361  1.00  0.00     0.036 A 
HETATM   26  C   UNL     1      -1.689   6.622 -30.133  1.00  0.00     0.070 C 
HETATM   27  N   UNL     1      -4.374   5.420 -30.225  1.00  0.00    -0.170 NA
HETATM   28  C   UNL     1      -5.457   4.756 -30.640  1.00  0.00     0.071 A 
HETATM   29  C   UNL     1      -6.592   4.535 -29.705  1.00  0.00     0.073 C 
ENDBRANCH   1  18
TORSDOF 6
ENDMDL
MODEL 6
REMARK VINA RESULT:      -7.6      3.708      6.720
REMARK  6 active torsions:
REMARK  status: ('A' for Active; 'I' for Inactive)
REMARK    1  A    between atoms: C_9  and  C_10 
REMARK       I    between atoms: C_10  and  N_11 
REMARK    2  A    between atoms: N_11  and  C_12 
REMARK    3  A    between atoms: C_12  and  C_13 
REMARK    4  A    between atoms: C_13  and  O_14 
REMARK    5  A    between atoms: C_13  and  C_15 
REMARK    6  A    between atoms: C_18  and  O_19 
ROOT
HETATM    1  C   UNL     1      -6.405   1.007 -33.511  1.00  0.00     0.258 C 
HETATM    2  N   UNL     1      -7.200   1.582 -32.549  1.00  0.00    -0.350 N 
HETATM    3  O   UNL     1      -6.510   1.272 -34.704  1.00  0.00    -0.267 OA
HETATM    4  H   UNL     1      -6.977   1.391 -31.572  1.00  0.00     0.163 HD
ENDROOT
BRANCH   2   5
HETATM    5  C   UNL     1      -8.113   2.685 -32.831  1.00  0.00     0.114 C 
HETATM    6  C   UNL     1      -7.380   4.008 -32.594  1.00  0.00     0.035 C 
BRANCH   5   7
HETATM    7  C   UNL     1      -9.400   2.609 -31.969  1.00  0.00     0.173 C 
BRANCH   7   8
HETATM    8  O   UNL     1      -9.227   1.693 -30.878  1.00  0.00    -0.389 OA
HETATM    9  H   UNL     1      -9.323   2.214 -30.062  1.00  0.00     0.210 HD
ENDBRANCH   7   8
BRANCH   7  10
HETATM   10  C   UNL     1     -10.640   2.258 -32.770  1.00  0.00    -0.028 A 
HETATM   11  C   UNL     1     -11.697   3.173 -32.857  1.00  0.00     0.012 A 
HETATM   12  C   UNL     1     -12.843   2.867 -33.595  1.00  0.00     0.037 A 
HETATM   13  C   UNL     1     -12.956   1.646 -34.263  1.00  0.00     0.068 A 
HETATM   14  C   UNL     1     -11.904   0.734 -34.195  1.00  0.00     0.037 A 
HETATM   15  C   UNL     1     -10.753   1.040 -33.459  1.00  0.00     0.012 A 
BRANCH  13  16
HETATM   16  O   UNL     1     -14.131   1.474 -34.942  1.00  0.00    -0.356 OA
HETATM   17  C   UNL     1     -15.137   0.701 -34.299  1.00  0.00     0.210 C 
ENDBRANCH  13  16
ENDBRANCH   7  10
ENDBRANCH   5   7
ENDBRANCH   2   5
BRANCH   1  18
HETATM   18  C   UNL     1      -5.408   0.073 -33.011  1.00  0.00     0.105 A 
HETATM   19  C   UNL     1      -5.187  -1.232 -33.417  1.00  0.00     0.169 A 
HETATM   20  N   UNL     1      -5.794  -2.002 -34.377  1.00  0.00    -0.233 NA
HETATM   21  N   UNL     1      -4.161  -1.731 -32.605  1.00  0.00    -0.219 N 
HETATM   22  C   UNL     1      -5.388  -3.235 -34.477  1.00  0.00     0.035 A 
HETATM   23  C   UNL     1      -6.027  -4.110 -35.526  1.00  0.00     0.070 C 
HETATM   24  C   UNL     1      -4.308  -3.853 -33.647  1.00  0.00     0.053 A 
HETATM   25  C   UNL     1      -3.726  -3.058 -32.731  1.00  0.00     0.036 A 
HETATM   26  C   UNL     1      -2.635  -3.530 -31.822  1.00  0.00     0.070 C 
HETATM   27  N   UNL     1      -3.703  -0.789 -31.746  1.00  0.00    -0.170 NA
HETATM   28  C   UNL     1      -4.456   0.290 -31.982  1.00  0.00     0.071 A 
HETATM   29  C   UNL     1      -4.239   1.530 -31.191  1.00  0.00     0.073 C 
ENDBRANCH   1  18
TORSDOF 6
ENDMDL
MODEL 7
REMARK VINA RESULT:      -7.5      2.810      7.984
REMARK  6 active torsions:
REMARK  status: ('A' for Active; 'I' for Inactive)
REMARK    1  A    between atoms: C_9  and  C_10 
REMARK       I    between atoms: C_10  and  N_11 
REMARK    2  A    between atoms: N_11  and  C_12 
REMARK    3  A    between atoms: C_12  and  C_13 
REMARK    4  A    between atoms: C_13  and  O_14 
REMARK    5  A    between atoms: C_13  and  C_15 
REMARK    6  A    between atoms: C_18  and  O_19 
ROOT
HETATM    1  C   UNL     1      -4.318   4.364 -32.370  1.00  0.00     0.258 C 
HETATM    2  N   UNL     1      -3.050   4.431 -32.894  1.00  0.00    -0.350 N 
HETATM    3  O   UNL     1      -4.741   5.173 -31.550  1.00  0.00    -0.267 OA
HETATM    4  H   UNL     1      -2.813   3.787 -33.649  1.00  0.00     0.163 HD
ENDROOT
BRANCH   2   5
HETATM    5  C   UNL     1      -2.156   5.562 -32.665  1.00  0.00     0.114 C 
HETATM    6  C   UNL     1      -1.513   5.963 -33.995  1.00  0.00     0.035 C 
BRANCH   5   7
HETATM    7  C   UNL     1      -1.070   5.239 -31.605  1.00  0.00     0.173 C 
BRANCH   7   8
HETATM    8  O   UNL     1      -1.353   3.993 -30.952  1.00  0.00    -0.389 OA
HETATM    9  H   UNL     1      -2.127   3.615 -31.403  1.00  0.00     0.210 HD
ENDBRANCH   7   8
BRANCH   7  10
HETATM   10  C   UNL     1      -0.878   6.346 -30.584  1.00  0.00    -0.028 A 
HETATM   11  C   UNL     1      -1.960   7.161 -30.228  1.00  0.00     0.012 A 
HETATM   12  C   UNL     1      -1.802   8.180 -29.286  1.00  0.00     0.037 A 
HETATM   13  C   UNL     1      -0.564   8.404 -28.679  1.00  0.00     0.068 A 
HETATM   14  C   UNL     1       0.516   7.589 -29.017  1.00  0.00     0.037 A 
HETATM   15  C   UNL     1       0.358   6.565 -29.958  1.00  0.00     0.012 A 
BRANCH  13  16
HETATM   16  O   UNL     1      -0.548   9.436 -27.782  1.00  0.00    -0.356 OA
HETATM   17  C   UNL     1      -1.553  10.431 -27.928  1.00  0.00     0.210 C 
ENDBRANCH  13  16
ENDBRANCH   7  10
ENDBRANCH   5   7
ENDBRANCH   2   5
BRANCH   1  18
HETATM   18  C   UNL     1      -5.138   3.274 -32.874  1.00  0.00     0.105 A 
HETATM   19  C   UNL     1      -4.873   1.916 -32.823  1.00  0.00     0.169 A 
HETATM   20  N   UNL     1      -3.819   1.214 -32.293  1.00  0.00    -0.233 NA
HETATM   21  N   UNL     1      -5.930   1.280 -33.484  1.00  0.00    -0.219 N 
HETATM   22  C   UNL     1      -3.836  -0.077 -32.462  1.00  0.00     0.035 A 
HETATM   23  C   UNL     1      -2.699  -0.883 -31.887  1.00  0.00     0.070 C 
HETATM   24  C   UNL     1      -4.918  -0.836 -33.163  1.00  0.00     0.053 A 
HETATM   25  C   UNL     1      -5.941  -0.112 -33.650  1.00  0.00     0.036 A 
HETATM   26  C   UNL     1      -7.095  -0.725 -34.380  1.00  0.00     0.070 C 
HETATM   27  N   UNL     1      -6.861   2.170 -33.906  1.00  0.00    -0.170 NA
HETATM   28  C   UNL     1      -6.383   3.366 -33.549  1.00  0.00     0.071 A 
HETATM   29  C   UNL     1      -7.151   4.597 -33.876  1.00  0.00     0.073 C 
ENDBRANCH   1  18
TORSDOF 6
ENDMDL
MODEL 8
REMARK VINA RESULT:      -7.4      2.130      3.982
REMARK  6 active torsions:
REMARK  status: ('A' for Active; 'I' for Inactive)
REMARK    1  A    between atoms: C_9  and  C_10 
REMARK       I    between atoms: C_10  and  N_11 
REMARK    2  A    between atoms: N_11  and  C_12 
REMARK    3  A    between atoms: C_12  and  C_13 
REMARK    4  A    between atoms: C_13  and  O_14 
REMARK    5  A    between atoms: C_13  and  C_15 
REMARK    6  A    between atoms: C_18  and  O_19 
ROOT
HETATM    1  C   UNL     1      -5.994   3.842 -32.856  1.00  0.00     0.258 C 
HETATM    2  N   UNL     1      -6.952   3.338 -32.010  1.00  0.00    -0.350 N 
HETATM    3  O   UNL     1      -6.244   4.201 -34.003  1.00  0.00    -0.267 OA
HETATM    4  H   UNL     1      -6.687   3.166 -31.041  1.00  0.00     0.163 HD
ENDROOT
BRANCH   2   5
HETATM    5  C   UNL     1      -8.376   3.351 -32.329  1.00  0.00     0.114 C 
HETATM    6  C   UNL     1      -9.102   4.248 -31.322  1.00  0.00     0.035 C 
BRANCH   5   7
HETATM    7  C   UNL     1      -8.985   1.924 -32.329  1.00  0.00     0.173 C 
BRANCH   7   8
HETATM    8  O   UNL     1      -9.206   1.467 -30.987  1.00  0.00    -0.389 OA
HETATM    9  H   UNL     1      -8.462   1.800 -30.456  1.00  0.00     0.210 HD
ENDBRANCH   7   8
BRANCH   7  10
HETATM   10  C   UNL     1      -8.156   0.918 -33.107  1.00  0.00    -0.028 A 
HETATM   11  C   UNL     1      -7.446  -0.078 -32.424  1.00  0.00     0.012 A 
HETATM   12  C   UNL     1      -6.684  -1.015 -33.126  1.00  0.00     0.037 A 
HETATM   13  C   UNL     1      -6.617  -0.980 -34.521  1.00  0.00     0.068 A 
HETATM   14  C   UNL     1      -7.331  -0.001 -35.210  1.00  0.00     0.037 A 
HETATM   15  C   UNL     1      -8.098   0.937 -34.509  1.00  0.00     0.012 A 
BRANCH  13  16
HETATM   16  O   UNL     1      -5.831  -1.949 -35.078  1.00  0.00    -0.356 OA
HETATM   17  C   UNL     1      -4.782  -2.470 -34.271  1.00  0.00     0.210 C 
ENDBRANCH  13  16
ENDBRANCH   7  10
ENDBRANCH   5   7
ENDBRANCH   2   5
BRANCH   1  18
HETATM   18  C   UNL     1      -4.659   3.941 -32.288  1.00  0.00     0.105 A 
HETATM   19  C   UNL     1      -4.013   5.076 -31.828  1.00  0.00     0.169 A 
HETATM   20  N   UNL     1      -4.417   6.386 -31.752  1.00  0.00    -0.233 NA
HETATM   21  N   UNL     1      -2.734   4.670 -31.429  1.00  0.00    -0.219 N 
HETATM   22  C   UNL     1      -3.538   7.241 -31.317  1.00  0.00     0.035 A 
HETATM   23  C   UNL     1      -3.947   8.689 -31.212  1.00  0.00     0.070 C 
HETATM   24  C   UNL     1      -2.149   6.898 -30.880  1.00  0.00     0.053 A 
HETATM   25  C   UNL     1      -1.800   5.601 -30.952  1.00  0.00     0.036 A 
HETATM   26  C   UNL     1      -0.446   5.100 -30.556  1.00  0.00     0.070 C 
HETATM   27  N   UNL     1      -2.567   3.334 -31.577  1.00  0.00    -0.170 NA
HETATM   28  C   UNL     1      -3.718   2.897 -32.100  1.00  0.00     0.071 A 
HETATM   29  C   UNL     1      -3.885   1.454 -32.417  1.00  0.00     0.073 C 
ENDBRANCH   1  18
TORSDOF 6
ENDMDL
MODEL 9
REMARK VINA RESULT:      -7.4      2.633      8.156
REMARK  6 active torsions:
REMARK  status: ('A' for Active; 'I' for Inactive)
REMARK    1  A    between atoms: C_9  and  C_10 
REMARK       I    between atoms: C_10  and  N_11 
REMARK    2  A    between atoms: N_11  and  C_12 
REMARK    3  A    between atoms: C_12  and  C_13 
REMARK    4  A    between atoms: C_13  and  O_14 
REMARK    5  A    between atoms: C_13  and  C_15 
REMARK    6  A    between atoms: C_18  and  O_19 
ROOT
HETATM    1  C   UNL     1      -4.007   1.467 -31.860  1.00  0.00     0.258 C 
HETATM    2  N   UNL     1      -3.848   2.517 -32.732  1.00  0.00    -0.350 N 
HETATM    3  O   UNL     1      -4.039   1.615 -30.642  1.00  0.00    -0.267 OA
HETATM    4  H   UNL     1      -3.941   2.324 -33.729  1.00  0.00     0.163 HD
ENDROOT
BRANCH   2   5
HETATM    5  C   UNL     1      -3.885   3.912 -32.307  1.00  0.00     0.114 C 
HETATM    6  C   UNL     1      -4.625   4.734 -33.366  1.00  0.00     0.035 C 
BRANCH   5   7
HETATM    7  C   UNL     1      -2.463   4.483 -32.065  1.00  0.00     0.173 C 
BRANCH   7   8
HETATM    8  O   UNL     1      -1.798   3.761 -31.019  1.00  0.00    -0.389 OA
HETATM    9  H   UNL     1      -1.183   3.147 -31.455  1.00  0.00     0.210 HD
ENDBRANCH   7   8
BRANCH   7  10
HETATM   10  C   UNL     1      -2.455   5.973 -31.774  1.00  0.00    -0.028 A 
HETATM   11  C   UNL     1      -1.712   6.839 -32.587  1.00  0.00     0.012 A 
HETATM   12  C   UNL     1      -1.699   8.213 -32.336  1.00  0.00     0.037 A 
HETATM   13  C   UNL     1      -2.429   8.751 -31.274  1.00  0.00     0.068 A 
HETATM   14  C   UNL     1      -3.183   7.900 -30.468  1.00  0.00     0.037 A 
HETATM   15  C   UNL     1      -3.200   6.523 -30.719  1.00  0.00     0.012 A 
BRANCH  13  16
HETATM   16  O   UNL     1      -2.323  10.107 -31.139  1.00  0.00    -0.356 OA
HETATM   17  C   UNL     1      -2.469  10.636 -29.827  1.00  0.00     0.210 C 
ENDBRANCH  13  16
ENDBRANCH   7  10
ENDBRANCH   5   7
ENDBRANCH   2   5
BRANCH   1  18
HETATM   18  C   UNL     1      -4.156   0.162 -32.484  1.00  0.00     0.105 A 
HETATM   19  C   UNL     1      -5.164  -0.265 -33.333  1.00  0.00     0.169 A 
HETATM   20  N   UNL     1      -6.265   0.382 -33.835  1.00  0.00    -0.233 NA
HETATM   21  N   UNL     1      -4.896  -1.607 -33.622  1.00  0.00    -0.219 N 
HETATM   22  C   UNL     1      -7.069  -0.326 -34.574  1.00  0.00     0.035 A 
HETATM   23  C   UNL     1      -8.287   0.352 -35.150  1.00  0.00     0.070 C 
HETATM   24  C   UNL     1      -6.867  -1.766 -34.926  1.00  0.00     0.053 A 
HETATM   25  C   UNL     1      -5.765  -2.356 -34.429  1.00  0.00     0.036 A 
HETATM   26  C   UNL     1      -5.425  -3.791 -34.687  1.00  0.00     0.070 C 
HETATM   27  N   UNL     1      -3.749  -2.025 -33.034  1.00  0.00    -0.170 NA
HETATM   28  C   UNL     1      -3.310  -0.968 -32.344  1.00  0.00     0.071 A 
HETATM   29  C   UNL     1      -2.060  -1.074 -31.545  1.00  0.00     0.073 C 
ENDBRANCH   1  18
TORSDOF 6
ENDMDL
MODEL 10
REMARK VINA RESULT:      -7.4      2.294      3.629
REMARK  6 active torsions:
REMARK  status: ('A' for Active; 'I' for Inactive)
REMARK    1  A    between atoms: C_9  and  C_10 
REMARK       I    between atoms: C_10  and  N_11 
REMARK    2  A    between atoms: N_11  and  C_12 
REMARK    3  A    between atoms: C_12  and  C_13 
REMARK    4  A    between atoms: C_13  and  O_14 
REMARK    5  A    between atoms: C_13  and  C_15 
REMARK    6  A    between atoms: C_18  and  O_19 
ROOT
HETATM    1  C   UNL     1      -3.721   4.421 -32.620  1.00  0.00     0.258 C 
HETATM    2  N   UNL     1      -4.569   3.464 -32.117  1.00  0.00    -0.350 N 
HETATM    3  O   UNL     1      -3.358   4.436 -33.793  1.00  0.00    -0.267 OA
HETATM    4  H   UNL     1      -4.908   3.584 -31.163  1.00  0.00     0.163 HD
ENDROOT
BRANCH   2   5
HETATM    5  C   UNL     1      -5.255   2.490 -32.961  1.00  0.00     0.114 C 
HETATM    6  C   UNL     1      -6.494   3.150 -33.572  1.00  0.00     0.035 C 
BRANCH   5   7
HETATM    7  C   UNL     1      -5.646   1.212 -32.173  1.00  0.00     0.173 C 
BRANCH   7   8
HETATM    8  O   UNL     1      -4.838   1.076 -30.995  1.00  0.00    -0.389 OA
HETATM    9  H   UNL     1      -4.608   1.977 -30.712  1.00  0.00     0.210 HD
ENDBRANCH   7   8
BRANCH   7  10
HETATM   10  C   UNL     1      -5.587  -0.052 -33.012  1.00  0.00    -0.028 A 
HETATM   11  C   UNL     1      -6.679  -0.409 -33.813  1.00  0.00     0.012 A 
HETATM   12  C   UNL     1      -6.638  -1.566 -34.595  1.00  0.00     0.037 A 
HETATM   13  C   UNL     1      -5.508  -2.386 -34.596  1.00  0.00     0.068 A 
HETATM   14  C   UNL     1      -4.411  -2.032 -33.813  1.00  0.00     0.037 A 
HETATM   15  C   UNL     1      -4.448  -0.871 -33.031  1.00  0.00     0.012 A 
BRANCH  13  16
HETATM   16  O   UNL     1      -5.605  -3.488 -35.400  1.00  0.00    -0.356 OA
HETATM   17  C   UNL     1      -6.488  -4.518 -34.976  1.00  0.00     0.210 C 
ENDBRANCH  13  16
ENDBRANCH   7  10
ENDBRANCH   5   7
ENDBRANCH   2   5
BRANCH   1  18
HETATM   18  C   UNL     1      -3.298   5.434 -31.667  1.00  0.00     0.105 A 
HETATM   19  C   UNL     1      -2.040   5.610 -31.115  1.00  0.00     0.169 A 
HETATM   20  N   UNL     1      -0.862   4.931 -31.300  1.00  0.00    -0.233 NA
HETATM   21  N   UNL     1      -2.147   6.680 -30.218  1.00  0.00    -0.219 N 
HETATM   22  C   UNL     1       0.149   5.312 -30.574  1.00  0.00     0.035 A 
HETATM   23  C   UNL     1       1.463   4.594 -30.754  1.00  0.00     0.070 C 
HETATM   24  C   UNL     1       0.122   6.435 -29.586  1.00  0.00     0.053 A 
HETATM   25  C   UNL     1      -1.046   7.086 -29.450  1.00  0.00     0.036 A 
HETATM   26  C   UNL     1      -1.235   8.228 -28.500  1.00  0.00     0.070 C 
HETATM   27  N   UNL     1      -3.396   7.206 -30.217  1.00  0.00    -0.170 NA
HETATM   28  C   UNL     1      -4.089   6.454 -31.079  1.00  0.00     0.071 A 
HETATM   29  C   UNL     1      -5.528   6.740 -31.317  1.00  0.00     0.073 C 
ENDBRANCH   1  18
TORSDOF 6
ENDMDL
