MODEL 1
REMARK VINA RESULT:      -9.5      0.000      0.000
REMARK  6 active torsions:
REMARK  status: ('A' for Active; 'I' for Inactive)
REMARK    1  A    between atoms: C_2  and  C_3 
REMARK    2  A    between atoms: C_3  and  C_4 
REMARK    3  A    between atoms: C_4  and  C_5 
REMARK    4  A    between atoms: C_8  and  N_9 
REMARK       I    between atoms: N_9  and  C_10 
REMARK    5  A    between atoms: C_10  and  C_11 
REMARK    6  A    between atoms: N_16  and  C_17 
ROOT
HETATM    1  C   UNL     1      -4.666   2.448 -32.283  1.00  0.00     0.098 A 
HETATM    2  C   UNL     1      -6.032   2.436 -32.911  1.00  0.00     0.205 A 
HETATM    3  O   UNL     1      -6.736   3.441 -32.961  1.00  0.00    -0.286 OA
HETATM    4  C   UNL     1      -6.412   1.161 -33.487  1.00  0.00     0.087 A 
HETATM    5  C   UNL     1      -5.580   0.066 -33.439  1.00  0.00     0.145 A 
HETATM    6  N   UNL     1      -6.219  -0.973 -34.100  1.00  0.00    -0.216 N 
HETATM    7  N   UNL     1      -7.401  -0.534 -34.632  1.00  0.00    -0.170 NA
HETATM    8  C   UNL     1      -7.536   0.733 -34.216  1.00  0.00     0.069 A 
HETATM    9  C   UNL     1      -8.747   1.514 -34.569  1.00  0.00     0.073 C 
HETATM   10  N   UNL     1      -4.346   0.119 -32.882  1.00  0.00    -0.349 N 
HETATM   11  C   UNL     1      -3.929   1.314 -32.326  1.00  0.00     0.111 A 
HETATM   12  H   UNL     1      -3.620  -0.576 -33.047  1.00  0.00     0.167 HD
ENDROOT
BRANCH   1  13
HETATM   13  C   UNL     1      -4.037   3.656 -31.669  1.00  0.00     0.261 C 
HETATM   14  N   UNL     1      -2.778   3.959 -32.147  1.00  0.00    -0.323 N 
HETATM   15  H   UNL     1      -2.412   3.369 -32.894  1.00  0.00     0.169 HD
HETATM   16  O   UNL     1      -4.633   4.262 -30.783  1.00  0.00    -0.267 OA
BRANCH  14  17
HETATM   17  C   UNL     1      -1.892   4.943 -31.658  1.00  0.00     0.035 A 
HETATM   18  C   UNL     1      -2.029   6.308 -31.907  1.00  0.00     0.030 A 
HETATM   19  C   UNL     1      -1.145   7.227 -31.333  1.00  0.00     0.009 A 
HETATM   20  C   UNL     1      -0.116   6.799 -30.487  1.00  0.00    -0.058 A 
HETATM   21  C   UNL     1       0.042   5.428 -30.263  1.00  0.00     0.009 A 
HETATM   22  C   UNL     1      -0.834   4.509 -30.851  1.00  0.00     0.030 A 
BRANCH  20  23
HETATM   23  C   UNL     1       0.788   7.806 -29.815  1.00  0.00     0.038 C 
BRANCH  23  24
HETATM   24  C   UNL     1       0.542   7.866 -28.303  1.00  0.00     0.004 C 
BRANCH  24  25
HETATM   25  C   UNL     1       1.644   8.640 -27.582  1.00  0.00    -0.004 C 
HETATM   26  C   UNL     1       1.929   8.047 -26.211  1.00  0.00     0.005 C 
ENDBRANCH  24  25
ENDBRANCH  23  24
ENDBRANCH  20  23
ENDBRANCH  14  17
ENDBRANCH   1  13
BRANCH   6  27
HETATM   27  C   UNL     1      -5.818  -2.329 -34.281  1.00  0.00     0.060 A 
HETATM   28  C   UNL     1      -4.518  -2.763 -33.993  1.00  0.00     0.031 A 
HETATM   29  C   UNL     1      -4.156  -4.096 -34.213  1.00  0.00     0.002 A 
HETATM   30  C   UNL     1      -5.090  -5.005 -34.706  1.00  0.00     0.000 A 
HETATM   31  C   UNL     1      -6.395  -4.590 -34.961  1.00  0.00     0.002 A 
HETATM   32  C   UNL     1      -6.761  -3.260 -34.743  1.00  0.00     0.031 A 
ENDBRANCH   6  27
TORSDOF 6
ENDMDL
MODEL 2
REMARK VINA RESULT:      -9.2      2.365     10.676
REMARK  6 active torsions:
REMARK  status: ('A' for Active; 'I' for Inactive)
REMARK    1  A    between atoms: C_2  and  C_3 
REMARK    2  A    between atoms: C_3  and  C_4 
REMARK    3  A    between atoms: C_4  and  C_5 
REMARK    4  A    between atoms: C_8  and  N_9 
REMARK       I    between atoms: N_9  and  C_10 
REMARK    5  A    between atoms: C_10  and  C_11 
REMARK    6  A    between atoms: N_16  and  C_17 
ROOT
HETATM    1  C   UNL     1      -2.866   4.849 -31.437  1.00  0.00     0.098 A 
HETATM    2  C   UNL     1      -3.925   5.783 -30.920  1.00  0.00     0.205 A 
HETATM    3  O   UNL     1      -5.110   5.653 -31.214  1.00  0.00    -0.286 OA
HETATM    4  C   UNL     1      -3.430   6.802 -30.015  1.00  0.00     0.087 A 
HETATM    5  C   UNL     1      -2.098   6.894 -29.684  1.00  0.00     0.145 A 
HETATM    6  N   UNL     1      -1.961   7.941 -28.785  1.00  0.00    -0.216 N 
HETATM    7  N   UNL     1      -3.191   8.461 -28.482  1.00  0.00    -0.170 NA
HETATM    8  C   UNL     1      -4.062   7.808 -29.263  1.00  0.00     0.069 A 
HETATM    9  C   UNL     1      -5.504   8.156 -29.233  1.00  0.00     0.073 C 
HETATM   10  N   UNL     1      -1.173   6.022 -30.154  1.00  0.00    -0.349 N 
HETATM   11  C   UNL     1      -1.593   5.023 -31.015  1.00  0.00     0.111 A 
HETATM   12  H   UNL     1      -0.248   5.901 -29.746  1.00  0.00     0.167 HD
ENDROOT
BRANCH   1  13
HETATM   13  C   UNL     1      -3.140   3.693 -32.343  1.00  0.00     0.261 C 
HETATM   14  N   UNL     1      -4.008   2.750 -31.830  1.00  0.00    -0.323 N 
HETATM   15  H   UNL     1      -4.413   2.942 -30.914  1.00  0.00     0.169 HD
HETATM   16  O   UNL     1      -2.570   3.628 -33.428  1.00  0.00    -0.267 OA
BRANCH  14  17
HETATM   17  C   UNL     1      -4.335   1.496 -32.389  1.00  0.00     0.035 A 
HETATM   18  C   UNL     1      -5.515   1.237 -33.086  1.00  0.00     0.030 A 
HETATM   19  C   UNL     1      -5.738  -0.015 -33.666  1.00  0.00     0.009 A 
HETATM   20  C   UNL     1      -4.778  -1.029 -33.573  1.00  0.00    -0.058 A 
HETATM   21  C   UNL     1      -3.609  -0.782 -32.846  1.00  0.00     0.009 A 
HETATM   22  C   UNL     1      -3.396   0.468 -32.253  1.00  0.00     0.030 A 
BRANCH  20  23
HETATM   23  C   UNL     1      -4.998  -2.354 -34.264  1.00  0.00     0.038 C 
BRANCH  23  24
HETATM   24  C   UNL     1      -6.478  -2.581 -34.594  1.00  0.00     0.004 C 
BRANCH  24  25
HETATM   25  C   UNL     1      -6.755  -4.035 -34.970  1.00  0.00    -0.004 C 
HETATM   26  C   UNL     1      -5.529  -4.907 -34.746  1.00  0.00     0.005 C 
ENDBRANCH  24  25
ENDBRANCH  23  24
ENDBRANCH  20  23
ENDBRANCH  14  17
ENDBRANCH   1  13
BRANCH   6  27
HETATM   27  C   UNL     1      -0.790   8.489 -28.185  1.00  0.00     0.060 A 
HETATM   28  C   UNL     1       0.482   7.945 -28.409  1.00  0.00     0.031 A 
HETATM   29  C   UNL     1       1.602   8.495 -27.777  1.00  0.00     0.002 A 
HETATM   30  C   UNL     1       1.464   9.594 -26.932  1.00  0.00     0.000 A 
HETATM   31  C   UNL     1       0.208  10.163 -26.732  1.00  0.00     0.002 A 
HETATM   32  C   UNL     1      -0.914   9.619 -27.361  1.00  0.00     0.031 A 
ENDBRANCH   6  27
TORSDOF 6
ENDMDL
MODEL 3
REMARK VINA RESULT:      -9.1      2.223     10.530
REMARK  6 active torsions:
REMARK  status: ('A' for Active; 'I' for Inactive)
REMARK    1  A    between atoms: C_2  and  C_3 
REMARK    2  A    between atoms: C_3  and  C_4 
REMARK    3  A    between atoms: C_4  and  C_5 
REMARK    4  A    between atoms: C_8  and  N_9 
REMARK       I    between atoms: N_9  and  C_10 
REMARK    5  A    between atoms: C_10  and  C_11 
REMARK    6  A    between atoms: N_16  and  C_17 
ROOT
HETATM    1  C   UNL     1      -4.247   4.241 -31.531  1.00  0.00     0.098 A 
HETATM    2  C   UNL     1      -3.254   4.719 -32.553  1.00  0.00     0.205 A 
HETATM    3  O   UNL     1      -3.065   4.122 -33.609  1.00  0.00    -0.286 OA
HETATM    4  C   UNL     1      -2.589   5.960 -32.204  1.00  0.00     0.087 A 
HETATM    5  C   UNL     1      -2.854   6.617 -31.024  1.00  0.00     0.145 A 
HETATM    6  N   UNL     1      -2.087   7.772 -31.009  1.00  0.00    -0.216 N 
HETATM    7  N   UNL     1      -1.405   7.898 -32.189  1.00  0.00    -0.170 NA
HETATM    8  C   UNL     1      -1.670   6.780 -32.879  1.00  0.00     0.069 A 
HETATM    9  C   UNL     1      -1.045   6.552 -34.206  1.00  0.00     0.073 C 
HETATM   10  N   UNL     1      -3.771   6.167 -30.134  1.00  0.00    -0.349 N 
HETATM   11  C   UNL     1      -4.441   4.992 -30.423  1.00  0.00     0.111 A 
HETATM   12  H   UNL     1      -4.170   6.739 -29.392  1.00  0.00     0.167 HD
ENDROOT
BRANCH   1  13
HETATM   13  C   UNL     1      -5.088   3.016 -31.690  1.00  0.00     0.261 C 
HETATM   14  N   UNL     1      -4.601   2.095 -32.595  1.00  0.00    -0.323 N 
HETATM   15  H   UNL     1      -3.705   2.305 -33.035  1.00  0.00     0.169 HD
HETATM   16  O   UNL     1      -6.140   2.921 -31.064  1.00  0.00    -0.267 OA
BRANCH  14  17
HETATM   17  C   UNL     1      -5.245   0.926 -33.055  1.00  0.00     0.035 A 
HETATM   18  C   UNL     1      -6.290   0.924 -33.978  1.00  0.00     0.030 A 
HETATM   19  C   UNL     1      -6.834  -0.281 -34.433  1.00  0.00     0.009 A 
HETATM   20  C   UNL     1      -6.334  -1.509 -33.984  1.00  0.00    -0.058 A 
HETATM   21  C   UNL     1      -5.308  -1.507 -33.033  1.00  0.00     0.009 A 
HETATM   22  C   UNL     1      -4.776  -0.299 -32.567  1.00  0.00     0.030 A 
BRANCH  20  23
HETATM   23  C   UNL     1      -6.880  -2.803 -34.536  1.00  0.00     0.038 C 
BRANCH  23  24
HETATM   24  C   UNL     1      -5.807  -3.591 -35.297  1.00  0.00     0.004 C 
BRANCH  24  25
HETATM   25  C   UNL     1      -5.457  -4.898 -34.589  1.00  0.00    -0.004 C 
HETATM   26  C   UNL     1      -4.077  -4.830 -33.954  1.00  0.00     0.005 C 
ENDBRANCH  24  25
ENDBRANCH  23  24
ENDBRANCH  20  23
ENDBRANCH  14  17
ENDBRANCH   1  13
BRANCH   6  27
HETATM   27  C   UNL     1      -1.945   8.766 -29.996  1.00  0.00     0.060 A 
HETATM   28  C   UNL     1      -1.190   8.541 -28.838  1.00  0.00     0.031 A 
HETATM   29  C   UNL     1      -1.100   9.532 -27.854  1.00  0.00     0.002 A 
HETATM   30  C   UNL     1      -1.748  10.753 -28.026  1.00  0.00     0.000 A 
HETATM   31  C   UNL     1      -2.471  10.998 -29.191  1.00  0.00     0.002 A 
HETATM   32  C   UNL     1      -2.564  10.013 -30.176  1.00  0.00     0.031 A 
ENDBRANCH   6  27
TORSDOF 6
ENDMDL
MODEL 4
REMARK VINA RESULT:      -9.0      2.351      4.534
REMARK  6 active torsions:
REMARK  status: ('A' for Active; 'I' for Inactive)
REMARK    1  A    between atoms: C_2  and  C_3 
REMARK    2  A    between atoms: C_3  and  C_4 
REMARK    3  A    between atoms: C_4  and  C_5 
REMARK    4  A    between atoms: C_8  and  N_9 
REMARK       I    between atoms: N_9  and  C_10 
REMARK    5  A    between atoms: C_10  and  C_11 
REMARK    6  A    between atoms: N_16  and  C_17 
ROOT
HETATM    1  C   UNL     1      -6.246   3.809 -33.382  1.00  0.00     0.098 A 
HETATM    2  C   UNL     1      -6.104   2.314 -33.301  1.00  0.00     0.205 A 
HETATM    3  O   UNL     1      -5.028   1.772 -33.066  1.00  0.00    -0.286 OA
HETATM    4  C   UNL     1      -7.347   1.587 -33.474  1.00  0.00     0.087 A 
HETATM    5  C   UNL     1      -8.539   2.234 -33.703  1.00  0.00     0.145 A 
HETATM    6  N   UNL     1      -9.529   1.266 -33.789  1.00  0.00    -0.216 N 
HETATM    7  N   UNL     1      -8.999   0.029 -33.540  1.00  0.00    -0.170 NA
HETATM    8  C   UNL     1      -7.680   0.224 -33.403  1.00  0.00     0.069 A 
HETATM    9  C   UNL     1      -6.772  -0.927 -33.171  1.00  0.00     0.073 C 
HETATM   10  N   UNL     1      -8.633   3.585 -33.750  1.00  0.00    -0.349 N 
HETATM   11  C   UNL     1      -7.479   4.327 -33.583  1.00  0.00     0.111 A 
HETATM   12  H   UNL     1      -9.511   4.095 -33.666  1.00  0.00     0.167 HD
ENDROOT
BRANCH   1  13
HETATM   13  C   UNL     1      -5.117   4.768 -33.189  1.00  0.00     0.261 C 
HETATM   14  N   UNL     1      -4.116   4.321 -32.350  1.00  0.00    -0.323 N 
HETATM   15  H   UNL     1      -4.210   3.376 -31.978  1.00  0.00     0.169 HD
HETATM   16  O   UNL     1      -5.161   5.869 -33.730  1.00  0.00    -0.267 OA
BRANCH  14  17
HETATM   17  C   UNL     1      -3.010   5.056 -31.871  1.00  0.00     0.035 A 
HETATM   18  C   UNL     1      -3.098   6.050 -30.898  1.00  0.00     0.030 A 
HETATM   19  C   UNL     1      -1.946   6.690 -30.430  1.00  0.00     0.009 A 
HETATM   20  C   UNL     1      -0.682   6.338 -30.916  1.00  0.00    -0.058 A 
HETATM   21  C   UNL     1      -0.596   5.364 -31.916  1.00  0.00     0.009 A 
HETATM   22  C   UNL     1      -1.752   4.737 -32.395  1.00  0.00     0.030 A 
BRANCH  20  23
HETATM   23  C   UNL     1       0.560   6.984 -30.352  1.00  0.00     0.038 C 
BRANCH  23  24
HETATM   24  C   UNL     1       0.569   6.949 -28.818  1.00  0.00     0.004 C 
BRANCH  24  25
HETATM   25  C   UNL     1       0.540   8.356 -28.222  1.00  0.00    -0.004 C 
HETATM   26  C   UNL     1       1.677   8.559 -27.233  1.00  0.00     0.005 C 
ENDBRANCH  24  25
ENDBRANCH  23  24
ENDBRANCH  20  23
ENDBRANCH  14  17
ENDBRANCH   1  13
BRANCH   6  27
HETATM   27  C   UNL     1     -10.920   1.399 -34.076  1.00  0.00     0.060 A 
HETATM   28  C   UNL     1     -11.409   2.389 -34.937  1.00  0.00     0.031 A 
HETATM   29  C   UNL     1     -12.784   2.504 -35.168  1.00  0.00     0.002 A 
HETATM   30  C   UNL     1     -13.675   1.626 -34.554  1.00  0.00     0.000 A 
HETATM   31  C   UNL     1     -13.194   0.616 -33.724  1.00  0.00     0.002 A 
HETATM   32  C   UNL     1     -11.823   0.496 -33.491  1.00  0.00     0.031 A 
ENDBRANCH   6  27
TORSDOF 6
ENDMDL
MODEL 5
REMARK VINA RESULT:      -9.0      2.225      3.656
REMARK  6 active torsions:
REMARK  status: ('A' for Active; 'I' for Inactive)
REMARK    1  A    between atoms: C_2  and  C_3 
REMARK    2  A    between atoms: C_3  and  C_4 
REMARK    3  A    between atoms: C_4  and  C_5 
REMARK    4  A    between atoms: C_8  and  N_9 
REMARK       I    between atoms: N_9  and  C_10 
REMARK    5  A    between atoms: C_10  and  C_11 
REMARK    6  A    between atoms: N_16  and  C_17 
ROOT
HETATM    1  C   UNL     1      -2.975   4.732 -31.572  1.00  0.00     0.098 A 
HETATM    2  C   UNL     1      -4.340   5.352 -31.677  1.00  0.00     0.205 A 
HETATM    3  O   UNL     1      -4.552   6.522 -31.369  1.00  0.00    -0.286 OA
HETATM    4  C   UNL     1      -5.356   4.469 -32.217  1.00  0.00     0.087 A 
HETATM    5  C   UNL     1      -5.071   3.174 -32.583  1.00  0.00     0.145 A 
HETATM    6  N   UNL     1      -6.237   2.615 -33.085  1.00  0.00    -0.216 N 
HETATM    7  N   UNL     1      -7.230   3.556 -33.118  1.00  0.00    -0.170 NA
HETATM    8  C   UNL     1      -6.710   4.651 -32.547  1.00  0.00     0.069 A 
HETATM    9  C   UNL     1      -7.538   5.869 -32.367  1.00  0.00     0.073 C 
HETATM   10  N   UNL     1      -3.823   2.654 -32.492  1.00  0.00    -0.349 N 
HETATM   11  C   UNL     1      -2.814   3.456 -31.991  1.00  0.00     0.111 A 
HETATM   12  H   UNL     1      -3.525   1.808 -32.975  1.00  0.00     0.167 HD
ENDROOT
BRANCH   1  13
HETATM   13  C   UNL     1      -1.761   5.459 -31.091  1.00  0.00     0.261 C 
HETATM   14  N   UNL     1      -1.821   5.880 -29.778  1.00  0.00    -0.323 N 
HETATM   15  H   UNL     1      -2.654   5.625 -29.248  1.00  0.00     0.169 HD
HETATM   16  O   UNL     1      -0.834   5.667 -31.870  1.00  0.00    -0.267 OA
BRANCH  14  17
HETATM   17  C   UNL     1      -0.897   6.706 -29.102  1.00  0.00     0.035 A 
HETATM   18  C   UNL     1      -1.014   8.092 -29.008  1.00  0.00     0.030 A 
HETATM   19  C   UNL     1      -0.090   8.834 -28.266  1.00  0.00     0.009 A 
HETATM   20  C   UNL     1       0.960   8.202 -27.591  1.00  0.00    -0.058 A 
HETATM   21  C   UNL     1       1.096   6.816 -27.711  1.00  0.00     0.009 A 
HETATM   22  C   UNL     1       0.180   6.077 -28.468  1.00  0.00     0.030 A 
BRANCH  20  23
HETATM   23  C   UNL     1       1.908   9.005 -26.733  1.00  0.00     0.038 C 
BRANCH  23  24
HETATM   24  C   UNL     1       1.914   8.512 -25.281  1.00  0.00     0.004 C 
BRANCH  24  25
HETATM   25  C   UNL     1       2.893   9.307 -24.419  1.00  0.00    -0.004 C 
HETATM   26  C   UNL     1       3.171   8.597 -23.103  1.00  0.00     0.005 C 
ENDBRANCH  24  25
ENDBRANCH  23  24
ENDBRANCH  20  23
ENDBRANCH  14  17
ENDBRANCH   1  13
BRANCH   6  27
HETATM   27  C   UNL     1      -6.497   1.289 -33.540  1.00  0.00     0.060 A 
HETATM   28  C   UNL     1      -6.072   0.162 -32.825  1.00  0.00     0.031 A 
HETATM   29  C   UNL     1      -6.322  -1.121 -33.322  1.00  0.00     0.002 A 
HETATM   30  C   UNL     1      -7.007  -1.288 -34.522  1.00  0.00     0.000 A 
HETATM   31  C   UNL     1      -7.465  -0.174 -35.222  1.00  0.00     0.002 A 
HETATM   32  C   UNL     1      -7.219   1.109 -34.731  1.00  0.00     0.031 A 
ENDBRANCH   6  27
TORSDOF 6
ENDMDL
MODEL 6
REMARK VINA RESULT:      -8.9      3.436     10.448
REMARK  6 active torsions:
REMARK  status: ('A' for Active; 'I' for Inactive)
REMARK    1  A    between atoms: C_2  and  C_3 
REMARK    2  A    between atoms: C_3  and  C_4 
REMARK    3  A    between atoms: C_4  and  C_5 
REMARK    4  A    between atoms: C_8  and  N_9 
REMARK       I    between atoms: N_9  and  C_10 
REMARK    5  A    between atoms: C_10  and  C_11 
REMARK    6  A    between atoms: N_16  and  C_17 
ROOT
HETATM    1  C   UNL     1      -5.873   3.920 -31.635  1.00  0.00     0.098 A 
HETATM    2  C   UNL     1      -5.081   4.191 -32.884  1.00  0.00     0.205 A 
HETATM    3  O   UNL     1      -5.524   3.947 -34.003  1.00  0.00    -0.286 OA
HETATM    4  C   UNL     1      -3.789   4.804 -32.649  1.00  0.00     0.087 A 
HETATM    5  C   UNL     1      -3.343   5.093 -31.379  1.00  0.00     0.145 A 
HETATM    6  N   UNL     1      -2.099   5.696 -31.500  1.00  0.00    -0.216 N 
HETATM    7  N   UNL     1      -1.788   5.866 -32.822  1.00  0.00    -0.170 NA
HETATM    8  C   UNL     1      -2.782   5.281 -33.505  1.00  0.00     0.069 A 
HETATM    9  C   UNL     1      -2.745   5.232 -34.988  1.00  0.00     0.073 C 
HETATM   10  N   UNL     1      -4.092   4.853 -30.276  1.00  0.00    -0.349 N 
HETATM   11  C   UNL     1      -5.338   4.277 -30.444  1.00  0.00     0.111 A 
HETATM   12  H   UNL     1      -3.912   5.272 -29.366  1.00  0.00     0.167 HD
ENDROOT
BRANCH   1  13
HETATM   13  C   UNL     1      -7.250   3.339 -31.626  1.00  0.00     0.261 C 
HETATM   14  N   UNL     1      -7.494   2.418 -32.624  1.00  0.00    -0.323 N 
HETATM   15  H   UNL     1      -6.716   2.185 -33.241  1.00  0.00     0.169 HD
HETATM   16  O   UNL     1      -8.064   3.728 -30.793  1.00  0.00    -0.267 OA
BRANCH  14  17
HETATM   17  C   UNL     1      -8.730   1.819 -32.950  1.00  0.00     0.035 A 
HETATM   18  C   UNL     1      -9.108   0.540 -32.546  1.00  0.00     0.030 A 
HETATM   19  C   UNL     1     -10.377   0.041 -32.857  1.00  0.00     0.009 A 
HETATM   20  C   UNL     1     -11.299   0.820 -33.565  1.00  0.00    -0.058 A 
HETATM   21  C   UNL     1     -10.910   2.091 -33.999  1.00  0.00     0.009 A 
HETATM   22  C   UNL     1      -9.633   2.581 -33.701  1.00  0.00     0.030 A 
BRANCH  20  23
HETATM   23  C   UNL     1     -12.691   0.300 -33.832  1.00  0.00     0.038 C 
BRANCH  23  24
HETATM   24  C   UNL     1     -13.679   1.441 -34.103  1.00  0.00     0.004 C 
BRANCH  24  25
HETATM   25  C   UNL     1     -14.868   1.397 -33.146  1.00  0.00    -0.004 C 
HETATM   26  C   UNL     1     -14.759   2.475 -32.079  1.00  0.00     0.005 C 
ENDBRANCH  24  25
ENDBRANCH  23  24
ENDBRANCH  20  23
ENDBRANCH  14  17
ENDBRANCH   1  13
BRANCH   6  27
HETATM   27  C   UNL     1      -1.189   6.130 -30.493  1.00  0.00     0.060 A 
HETATM   28  C   UNL     1      -1.270   7.404 -29.918  1.00  0.00     0.031 A 
HETATM   29  C   UNL     1      -0.337   7.802 -28.954  1.00  0.00     0.002 A 
HETATM   30  C   UNL     1       0.669   6.928 -28.548  1.00  0.00     0.000 A 
HETATM   31  C   UNL     1       0.736   5.646 -29.089  1.00  0.00     0.002 A 
HETATM   32  C   UNL     1      -0.192   5.244 -30.051  1.00  0.00     0.031 A 
ENDBRANCH   6  27
TORSDOF 6
ENDMDL
MODEL 7
REMARK VINA RESULT:      -8.6      6.042     10.899
REMARK  6 active torsions:
REMARK  status: ('A' for Active; 'I' for Inactive)
REMARK    1  A    between atoms: C_2  and  C_3 
REMARK    2  A    between atoms: C_3  and  C_4 
REMARK    3  A    between atoms: C_4  and  C_5 
REMARK    4  A    between atoms: C_8  and  N_9 
REMARK       I    between atoms: N_9  and  C_10 
REMARK    5  A    between atoms: C_10  and  C_11 
REMARK    6  A    between atoms: N_16  and  C_17 
ROOT
HETATM    1  C   UNL     1     -10.930   2.160 -33.102  1.00  0.00     0.098 A 
HETATM    2  C   UNL     1      -9.955   2.623 -32.055  1.00  0.00     0.205 A 
HETATM    3  O   UNL     1     -10.222   3.527 -31.269  1.00  0.00    -0.286 OA
HETATM    4  C   UNL     1      -8.711   1.879 -32.029  1.00  0.00     0.087 A 
HETATM    5  C   UNL     1      -8.463   0.849 -32.907  1.00  0.00     0.145 A 
HETATM    6  N   UNL     1      -7.213   0.331 -32.601  1.00  0.00    -0.216 N 
HETATM    7  N   UNL     1      -6.702   0.960 -31.498  1.00  0.00    -0.170 NA
HETATM    8  C   UNL     1      -7.583   1.923 -31.192  1.00  0.00     0.069 A 
HETATM    9  C   UNL     1      -7.320   2.848 -30.062  1.00  0.00     0.073 C 
HETATM   10  N   UNL     1      -9.373   0.445 -33.826  1.00  0.00    -0.349 N 
HETATM   11  C   UNL     1     -10.581   1.115 -33.888  1.00  0.00     0.111 A 
HETATM   12  H   UNL     1      -9.332  -0.450 -34.309  1.00  0.00     0.167 HD
ENDROOT
BRANCH   1  13
HETATM   13  C   UNL     1     -12.294   2.739 -33.290  1.00  0.00     0.261 C 
HETATM   14  N   UNL     1     -13.044   2.838 -32.136  1.00  0.00    -0.323 N 
HETATM   15  H   UNL     1     -12.595   2.554 -31.265  1.00  0.00     0.169 HD
HETATM   16  O   UNL     1     -12.670   3.044 -34.418  1.00  0.00    -0.267 OA
BRANCH  14  17
HETATM   17  C   UNL     1     -14.403   3.206 -32.028  1.00  0.00     0.035 A 
HETATM   18  C   UNL     1     -14.845   4.519 -31.870  1.00  0.00     0.030 A 
HETATM   19  C   UNL     1     -16.212   4.809 -31.835  1.00  0.00     0.009 A 
HETATM   20  C   UNL     1     -17.164   3.793 -31.972  1.00  0.00    -0.058 A 
HETATM   21  C   UNL     1     -16.722   2.472 -32.097  1.00  0.00     0.009 A 
HETATM   22  C   UNL     1     -15.353   2.182 -32.116  1.00  0.00     0.030 A 
BRANCH  20  23
HETATM   23  C   UNL     1     -18.637   4.126 -32.005  1.00  0.00     0.038 C 
BRANCH  23  24
HETATM   24  C   UNL     1     -18.937   5.434 -31.263  1.00  0.00     0.004 C 
BRANCH  24  25
HETATM   25  C   UNL     1     -19.278   5.184 -29.795  1.00  0.00    -0.004 C 
HETATM   26  C   UNL     1     -18.413   6.034 -28.876  1.00  0.00     0.005 C 
ENDBRANCH  24  25
ENDBRANCH  23  24
ENDBRANCH  20  23
ENDBRANCH  14  17
ENDBRANCH   1  13
BRANCH   6  27
HETATM   27  C   UNL     1      -6.465  -0.699 -33.242  1.00  0.00     0.060 A 
HETATM   28  C   UNL     1      -7.061  -1.613 -34.121  1.00  0.00     0.031 A 
HETATM   29  C   UNL     1      -6.296  -2.627 -34.706  1.00  0.00     0.002 A 
HETATM   30  C   UNL     1      -4.934  -2.728 -34.431  1.00  0.00     0.000 A 
HETATM   31  C   UNL     1      -4.326  -1.803 -33.587  1.00  0.00     0.002 A 
HETATM   32  C   UNL     1      -5.084  -0.788 -33.000  1.00  0.00     0.031 A 
ENDBRANCH   6  27
TORSDOF 6
ENDMDL
MODEL 8
REMARK VINA RESULT:      -8.6      2.631     10.783
REMARK  6 active torsions:
REMARK  status: ('A' for Active; 'I' for Inactive)
REMARK    1  A    between atoms: C_2  and  C_3 
REMARK    2  A    between atoms: C_3  and  C_4 
REMARK    3  A    between atoms: C_4  and  C_5 
REMARK    4  A    between atoms: C_8  and  N_9 
REMARK       I    between atoms: N_9  and  C_10 
REMARK    5  A    between atoms: C_10  and  C_11 
REMARK    6  A    between atoms: N_16  and  C_17 
ROOT
HETATM    1  C   UNL     1      -3.653   4.929 -31.493  1.00  0.00     0.098 A 
HETATM    2  C   UNL     1      -2.200   5.294 -31.622  1.00  0.00     0.205 A 
HETATM    3  O   UNL     1      -1.509   4.904 -32.558  1.00  0.00    -0.286 OA
HETATM    4  C   UNL     1      -1.714   6.180 -30.582  1.00  0.00     0.087 A 
HETATM    5  C   UNL     1      -2.529   6.623 -29.566  1.00  0.00     0.145 A 
HETATM    6  N   UNL     1      -1.777   7.469 -28.765  1.00  0.00    -0.216 N 
HETATM    7  N   UNL     1      -0.527   7.631 -29.298  1.00  0.00    -0.170 NA
HETATM    8  C   UNL     1      -0.479   6.814 -30.359  1.00  0.00     0.069 A 
HETATM    9  C   UNL     1       0.765   6.694 -31.158  1.00  0.00     0.073 C 
HETATM   10  N   UNL     1      -3.840   6.288 -29.492  1.00  0.00    -0.349 N 
HETATM   11  C   UNL     1      -4.358   5.453 -30.465  1.00  0.00     0.111 A 
HETATM   12  H   UNL     1      -4.521   6.784 -28.918  1.00  0.00     0.167 HD
ENDROOT
BRANCH   1  13
HETATM   13  C   UNL     1      -4.389   4.070 -32.468  1.00  0.00     0.261 C 
HETATM   14  N   UNL     1      -4.738   2.822 -31.993  1.00  0.00    -0.323 N 
HETATM   15  H   UNL     1      -4.506   2.615 -31.021  1.00  0.00     0.169 HD
HETATM   16  O   UNL     1      -4.599   4.490 -33.603  1.00  0.00    -0.267 OA
BRANCH  14  17
HETATM   17  C   UNL     1      -5.303   1.756 -32.725  1.00  0.00     0.035 A 
HETATM   18  C   UNL     1      -6.465   1.863 -33.487  1.00  0.00     0.030 A 
HETATM   19  C   UNL     1      -6.927   0.776 -34.236  1.00  0.00     0.009 A 
HETATM   20  C   UNL     1      -6.227  -0.435 -34.248  1.00  0.00    -0.058 A 
HETATM   21  C   UNL     1      -5.079  -0.554 -33.457  1.00  0.00     0.009 A 
HETATM   22  C   UNL     1      -4.628   0.531 -32.696  1.00  0.00     0.030 A 
BRANCH  20  23
HETATM   23  C   UNL     1      -6.694  -1.578 -35.116  1.00  0.00     0.038 C 
BRANCH  23  24
HETATM   24  C   UNL     1      -6.850  -2.873 -34.310  1.00  0.00     0.004 C 
BRANCH  24  25
HETATM   25  C   UNL     1      -6.575  -4.108 -35.167  1.00  0.00    -0.004 C 
HETATM   26  C   UNL     1      -5.388  -4.896 -34.634  1.00  0.00     0.005 C 
ENDBRANCH  24  25
ENDBRANCH  23  24
ENDBRANCH  20  23
ENDBRANCH  14  17
ENDBRANCH   1  13
BRANCH   6  27
HETATM   27  C   UNL     1      -2.127   8.139 -27.556  1.00  0.00     0.060 A 
HETATM   28  C   UNL     1      -2.304   9.527 -27.502  1.00  0.00     0.031 A 
HETATM   29  C   UNL     1      -2.618  10.149 -26.288  1.00  0.00     0.002 A 
HETATM   30  C   UNL     1      -2.770   9.392 -25.129  1.00  0.00     0.000 A 
HETATM   31  C   UNL     1      -2.630   8.007 -25.181  1.00  0.00     0.002 A 
HETATM   32  C   UNL     1      -2.317   7.381 -26.389  1.00  0.00     0.031 A 
ENDBRANCH   6  27
TORSDOF 6
ENDMDL
MODEL 9
REMARK VINA RESULT:      -8.5      4.302      8.872
REMARK  6 active torsions:
REMARK  status: ('A' for Active; 'I' for Inactive)
REMARK    1  A    between atoms: C_2  and  C_3 
REMARK    2  A    between atoms: C_3  and  C_4 
REMARK    3  A    between atoms: C_4  and  C_5 
REMARK    4  A    between atoms: C_8  and  N_9 
REMARK       I    between atoms: N_9  and  C_10 
REMARK    5  A    between atoms: C_10  and  C_11 
REMARK    6  A    between atoms: N_16  and  C_17 
ROOT
HETATM    1  C   UNL     1      -8.478   1.936 -33.772  1.00  0.00     0.098 A 
HETATM    2  C   UNL     1      -7.089   2.227 -33.275  1.00  0.00     0.205 A 
HETATM    3  O   UNL     1      -6.768   3.329 -32.839  1.00  0.00    -0.286 OA
HETATM    4  C   UNL     1      -6.192   1.087 -33.311  1.00  0.00     0.087 A 
HETATM    5  C   UNL     1      -6.600  -0.142 -33.777  1.00  0.00     0.145 A 
HETATM    6  N   UNL     1      -5.528  -1.013 -33.650  1.00  0.00    -0.216 N 
HETATM    7  N   UNL     1      -4.479  -0.380 -33.040  1.00  0.00    -0.170 NA
HETATM    8  C   UNL     1      -4.866   0.894 -32.888  1.00  0.00     0.069 A 
HETATM    9  C   UNL     1      -3.942   1.893 -32.296  1.00  0.00     0.073 C 
HETATM   10  N   UNL     1      -7.867  -0.373 -34.199  1.00  0.00    -0.349 N 
HETATM   11  C   UNL     1      -8.766   0.678 -34.177  1.00  0.00     0.111 A 
HETATM   12  H   UNL     1      -8.267  -1.302 -34.308  1.00  0.00     0.167 HD
ENDROOT
BRANCH   1  13
HETATM   13  C   UNL     1      -9.587   2.937 -33.786  1.00  0.00     0.261 C 
HETATM   14  N   UNL     1      -9.905   3.430 -35.035  1.00  0.00    -0.323 N 
HETATM   15  H   UNL     1      -9.395   3.043 -35.830  1.00  0.00     0.169 HD
HETATM   16  O   UNL     1     -10.104   3.280 -32.726  1.00  0.00    -0.267 OA
BRANCH  14  17
HETATM   17  C   UNL     1     -10.799   4.480 -35.337  1.00  0.00     0.035 A 
HETATM   18  C   UNL     1     -12.160   4.300 -35.580  1.00  0.00     0.030 A 
HETATM   19  C   UNL     1     -12.992   5.399 -35.810  1.00  0.00     0.009 A 
HETATM   20  C   UNL     1     -12.482   6.702 -35.788  1.00  0.00    -0.058 A 
HETATM   21  C   UNL     1     -11.111   6.882 -35.577  1.00  0.00     0.009 A 
HETATM   22  C   UNL     1     -10.277   5.778 -35.363  1.00  0.00     0.030 A 
BRANCH  20  23
HETATM   23  C   UNL     1     -13.402   7.886 -35.966  1.00  0.00     0.038 C 
BRANCH  23  24
HETATM   24  C   UNL     1     -13.903   8.000 -37.411  1.00  0.00     0.004 C 
BRANCH  24  25
HETATM   25  C   UNL     1     -12.846   8.616 -38.327  1.00  0.00    -0.004 C 
HETATM   26  C   UNL     1     -13.470   9.156 -39.605  1.00  0.00     0.005 C 
ENDBRANCH  24  25
ENDBRANCH  23  24
ENDBRANCH  20  23
ENDBRANCH  14  17
ENDBRANCH   1  13
BRANCH   6  27
HETATM   27  C   UNL     1      -5.405  -2.379 -34.040  1.00  0.00     0.060 A 
HETATM   28  C   UNL     1      -6.407  -3.037 -34.764  1.00  0.00     0.031 A 
HETATM   29  C   UNL     1      -6.259  -4.387 -35.102  1.00  0.00     0.002 A 
HETATM   30  C   UNL     1      -5.110  -5.081 -34.732  1.00  0.00     0.000 A 
HETATM   31  C   UNL     1      -4.093  -4.425 -34.043  1.00  0.00     0.002 A 
HETATM   32  C   UNL     1      -4.234  -3.078 -33.703  1.00  0.00     0.031 A 
ENDBRANCH   6  27
TORSDOF 6
ENDMDL
MODEL 10
REMARK VINA RESULT:      -8.4      6.347     10.386
REMARK  6 active torsions:
REMARK  status: ('A' for Active; 'I' for Inactive)
REMARK    1  A    between atoms: C_2  and  C_3 
REMARK    2  A    between atoms: C_3  and  C_4 
REMARK    3  A    between atoms: C_4  and  C_5 
REMARK    4  A    between atoms: C_8  and  N_9 
REMARK       I    between atoms: N_9  and  C_10 
REMARK    5  A    between atoms: C_10  and  C_11 
REMARK    6  A    between atoms: N_16  and  C_17 
ROOT
HETATM    1  C   UNL     1     -10.580   2.624 -33.027  1.00  0.00     0.098 A 
HETATM    2  C   UNL     1     -11.897   1.992 -33.383  1.00  0.00     0.205 A 
HETATM    3  O   UNL     1     -11.968   0.965 -34.052  1.00  0.00    -0.286 OA
HETATM    4  C   UNL     1     -13.052   2.668 -32.827  1.00  0.00     0.087 A 
HETATM    5  C   UNL     1     -12.928   3.799 -32.053  1.00  0.00     0.145 A 
HETATM    6  N   UNL     1     -14.202   4.176 -31.656  1.00  0.00    -0.216 N 
HETATM    7  N   UNL     1     -15.120   3.262 -32.097  1.00  0.00    -0.170 NA
HETATM    8  C   UNL     1     -14.430   2.389 -32.843  1.00  0.00     0.069 A 
HETATM    9  C   UNL     1     -15.127   1.274 -33.531  1.00  0.00     0.073 C 
HETATM   10  N   UNL     1     -11.722   4.331 -31.736  1.00  0.00    -0.349 N 
HETATM   11  C   UNL     1     -10.586   3.719 -32.233  1.00  0.00     0.111 A 
HETATM   12  H   UNL     1     -11.578   4.997 -30.979  1.00  0.00     0.167 HD
ENDROOT
BRANCH   1  13
HETATM   13  C   UNL     1      -9.251   2.080 -33.442  1.00  0.00     0.261 C 
HETATM   14  N   UNL     1      -9.058   0.745 -33.155  1.00  0.00    -0.323 N 
HETATM   15  H   UNL     1      -9.839   0.243 -32.732  1.00  0.00     0.169 HD
HETATM   16  O   UNL     1      -8.427   2.831 -33.957  1.00  0.00    -0.267 OA
BRANCH  14  17
HETATM   17  C   UNL     1      -7.864   0.004 -33.296  1.00  0.00     0.035 A 
HETATM   18  C   UNL     1      -7.471  -0.623 -34.477  1.00  0.00     0.030 A 
HETATM   19  C   UNL     1      -6.242  -1.285 -34.555  1.00  0.00     0.009 A 
HETATM   20  C   UNL     1      -5.375  -1.320 -33.457  1.00  0.00    -0.058 A 
HETATM   21  C   UNL     1      -5.783  -0.719 -32.262  1.00  0.00     0.009 A 
HETATM   22  C   UNL     1      -7.021  -0.071 -32.181  1.00  0.00     0.030 A 
BRANCH  20  23
HETATM   23  C   UNL     1      -4.020  -1.975 -33.575  1.00  0.00     0.038 C 
BRANCH  23  24
HETATM   24  C   UNL     1      -3.406  -2.254 -32.198  1.00  0.00     0.004 C 
BRANCH  24  25
HETATM   25  C   UNL     1      -3.148  -3.745 -31.987  1.00  0.00    -0.004 C 
HETATM   26  C   UNL     1      -3.406  -4.536 -33.261  1.00  0.00     0.005 C 
ENDBRANCH  24  25
ENDBRANCH  23  24
ENDBRANCH  20  23
ENDBRANCH  14  17
ENDBRANCH   1  13
BRANCH   6  27
HETATM   27  C   UNL     1     -14.631   5.306 -30.899  1.00  0.00     0.060 A 
HETATM   28  C   UNL     1     -15.658   6.149 -31.341  1.00  0.00     0.031 A 
HETATM   29  C   UNL     1     -16.028   7.264 -30.582  1.00  0.00     0.002 A 
HETATM   30  C   UNL     1     -15.388   7.536 -29.375  1.00  0.00     0.000 A 
HETATM   31  C   UNL     1     -14.390   6.684 -28.911  1.00  0.00     0.002 A 
HETATM   32  C   UNL     1     -14.017   5.569 -29.664  1.00  0.00     0.031 A 
ENDBRANCH   6  27
TORSDOF 6
ENDMDL
