MODEL 1
REMARK VINA RESULT:      -9.1      0.000      0.000
REMARK  8 active torsions:
REMARK  status: ('A' for Active; 'I' for Inactive)
REMARK    1  A    between atoms: O_2  and  C_3 
REMARK    2  A    between atoms: C_5  and  N_6 
REMARK       I    between atoms: N_6  and  C_7 
REMARK    3  A    between atoms: C_7  and  C_8 
REMARK    4  A    between atoms: C_8  and  O_9 
REMARK    5  A    between atoms: O_9  and  C_10 
REMARK    6  A    between atoms: C_13  and  C_14 
REMARK       I    between atoms: C_14  and  N_15 
REMARK    7  A    between atoms: N_15  and  C_16 
REMARK    8  A    between atoms: C_19  and  N_20 
ROOT
HETATM    1  C   UNL     1      -4.204   4.421 -32.733  1.00  0.00     0.069 A 
HETATM    2  C   UNL     1      -2.951   3.886 -33.022  1.00  0.00     0.038 A 
HETATM    3  C   UNL     1      -1.827   4.320 -32.306  1.00  0.00     0.020 A 
HETATM    4  C   UNL     1      -1.947   5.293 -31.305  1.00  0.00     0.032 A 
HETATM    5  C   UNL     1      -3.203   5.863 -31.059  1.00  0.00     0.020 A 
HETATM    6  C   UNL     1      -4.319   5.440 -31.786  1.00  0.00     0.038 A 
ENDROOT
BRANCH   4   7
HETATM    7  C   UNL     1      -0.758   5.576 -30.437  1.00  0.00     0.256 C 
HETATM    8  N   UNL     1      -0.759   6.804 -29.803  1.00  0.00    -0.323 N 
HETATM    9  H   UNL     1      -1.355   7.527 -30.179  1.00  0.00     0.169 HD
HETATM   10  O   UNL     1       0.099   4.708 -30.321  1.00  0.00    -0.267 OA
BRANCH   8  11
HETATM   11  C   UNL     1      -0.124   7.115 -28.583  1.00  0.00     0.035 A 
HETATM   12  C   UNL     1      -0.590   6.708 -27.337  1.00  0.00     0.032 A 
HETATM   13  C   UNL     1      -0.010   7.210 -26.161  1.00  0.00     0.031 A 
HETATM   14  C   UNL     1       1.047   8.128 -26.190  1.00  0.00     0.030 A 
HETATM   15  C   UNL     1       1.539   8.477 -27.456  1.00  0.00     0.031 A 
HETATM   16  C   UNL     1       0.970   7.979 -28.636  1.00  0.00     0.032 A 
BRANCH  14  17
HETATM   17  N   UNL     1       1.548   8.756 -25.050  1.00  0.00    -0.381 N 
HETATM   18  C   UNL     1       0.796   9.911 -24.537  1.00  0.00     0.123 C 
HETATM   19  C   UNL     1       1.044  10.035 -23.033  1.00  0.00     0.020 C 
HETATM   20  C   UNL     1       2.536  10.124 -22.720  1.00  0.00     0.003 C 
HETATM   21  C   UNL     1       3.299   8.964 -23.358  1.00  0.00     0.020 C 
HETATM   22  C   UNL     1       3.000   8.843 -24.853  1.00  0.00     0.123 C 
ENDBRANCH  14  17
ENDBRANCH   8  11
ENDBRANCH   4   7
BRANCH   1  23
HETATM   23  O   UNL     1      -5.399   3.982 -33.232  1.00  0.00    -0.342 OA
BRANCH  23  24
HETATM   24  C   UNL     1      -6.281   3.311 -32.339  1.00  0.00     0.278 C 
BRANCH  24  25
HETATM   25  C   UNL     1      -6.233   1.769 -32.272  1.00  0.00     0.246 C 
HETATM   26  N   UNL     1      -5.702   1.185 -33.409  1.00  0.00    -0.325 N 
HETATM   27  H   UNL     1      -5.422   1.828 -34.140  1.00  0.00     0.169 HD
HETATM   28  O   UNL     1      -6.641   1.180 -31.274  1.00  0.00    -0.271 OA
BRANCH  26  29
HETATM   29  C   UNL     1      -5.650  -0.183 -33.742  1.00  0.00     0.037 A 
HETATM   30  C   UNL     1      -4.610  -1.040 -33.370  1.00  0.00     0.066 A 
HETATM   31  C   UNL     1      -4.647  -2.394 -33.721  1.00  0.00     0.070 A 
HETATM   32  C   UNL     1      -5.740  -2.891 -34.435  1.00  0.00     0.037 A 
HETATM   33  C   UNL     1      -6.780  -2.047 -34.812  1.00  0.00     0.005 A 
HETATM   34  C   UNL     1      -6.729  -0.694 -34.474  1.00  0.00     0.029 A 
BRANCH  31  35
HETATM   35  O   UNL     1      -3.691  -3.330 -33.425  1.00  0.00    -0.356 OA
HETATM   36  C   UNL     1      -3.143  -3.293 -32.113  1.00  0.00     0.210 C 
ENDBRANCH  31  35
ENDBRANCH  26  29
ENDBRANCH  24  25
ENDBRANCH  23  24
ENDBRANCH   1  23
TORSDOF 8
ENDMDL
MODEL 2
REMARK VINA RESULT:      -8.8      1.347      1.955
REMARK  8 active torsions:
REMARK  status: ('A' for Active; 'I' for Inactive)
REMARK    1  A    between atoms: O_2  and  C_3 
REMARK    2  A    between atoms: C_5  and  N_6 
REMARK       I    between atoms: N_6  and  C_7 
REMARK    3  A    between atoms: C_7  and  C_8 
REMARK    4  A    between atoms: C_8  and  O_9 
REMARK    5  A    between atoms: O_9  and  C_10 
REMARK    6  A    between atoms: C_13  and  C_14 
REMARK       I    between atoms: C_14  and  N_15 
REMARK    7  A    between atoms: N_15  and  C_16 
REMARK    8  A    between atoms: C_19  and  N_20 
ROOT
HETATM    1  C   UNL     1      -3.424   4.047 -32.649  1.00  0.00     0.069 A 
HETATM    2  C   UNL     1      -2.237   4.368 -33.303  1.00  0.00     0.038 A 
HETATM    3  C   UNL     1      -1.397   5.357 -32.774  1.00  0.00     0.020 A 
HETATM    4  C   UNL     1      -1.739   6.033 -31.596  1.00  0.00     0.032 A 
HETATM    5  C   UNL     1      -2.960   5.740 -30.975  1.00  0.00     0.020 A 
HETATM    6  C   UNL     1      -3.804   4.766 -31.514  1.00  0.00     0.038 A 
ENDROOT
BRANCH   4   7
HETATM    7  C   UNL     1      -0.720   6.933 -30.966  1.00  0.00     0.256 C 
HETATM    8  N   UNL     1      -1.160   7.672 -29.884  1.00  0.00    -0.323 N 
HETATM    9  H   UNL     1      -2.156   7.803 -29.778  1.00  0.00     0.169 HD
HETATM   10  O   UNL     1       0.420   6.930 -31.417  1.00  0.00    -0.267 OA
BRANCH   8  11
HETATM   11  C   UNL     1      -0.369   8.141 -28.814  1.00  0.00     0.035 A 
HETATM   12  C   UNL     1       0.827   7.553 -28.414  1.00  0.00     0.032 A 
HETATM   13  C   UNL     1       1.461   7.962 -27.231  1.00  0.00     0.031 A 
HETATM   14  C   UNL     1       0.925   8.964 -26.412  1.00  0.00     0.030 A 
HETATM   15  C   UNL     1      -0.249   9.582 -26.866  1.00  0.00     0.031 A 
HETATM   16  C   UNL     1      -0.887   9.185 -28.048  1.00  0.00     0.032 A 
BRANCH  14  17
HETATM   17  N   UNL     1       1.447   9.292 -25.162  1.00  0.00    -0.381 N 
HETATM   18  C   UNL     1       0.908  10.493 -24.505  1.00  0.00     0.123 C 
HETATM   19  C   UNL     1       1.048  10.335 -22.991  1.00  0.00     0.020 C 
HETATM   20  C   UNL     1       2.495  10.052 -22.593  1.00  0.00     0.003 C 
HETATM   21  C   UNL     1       3.055   8.863 -23.371  1.00  0.00     0.020 C 
HETATM   22  C   UNL     1       2.864   9.034 -24.879  1.00  0.00     0.123 C 
ENDBRANCH  14  17
ENDBRANCH   8  11
ENDBRANCH   4   7
BRANCH   1  23
HETATM   23  O   UNL     1      -4.253   3.004 -32.957  1.00  0.00    -0.342 OA
BRANCH  23  24
HETATM   24  C   UNL     1      -4.820   2.270 -31.876  1.00  0.00     0.278 C 
BRANCH  24  25
HETATM   25  C   UNL     1      -5.175   0.784 -32.099  1.00  0.00     0.246 C 
HETATM   26  N   UNL     1      -4.079  -0.003 -32.408  1.00  0.00    -0.325 N 
HETATM   27  H   UNL     1      -3.192   0.484 -32.459  1.00  0.00     0.169 HD
HETATM   28  O   UNL     1      -6.338   0.404 -31.995  1.00  0.00    -0.271 OA
BRANCH  26  29
HETATM   29  C   UNL     1      -4.063  -1.352 -32.815  1.00  0.00     0.037 A 
HETATM   30  C   UNL     1      -4.713  -1.834 -33.955  1.00  0.00     0.066 A 
HETATM   31  C   UNL     1      -4.627  -3.186 -34.303  1.00  0.00     0.070 A 
HETATM   32  C   UNL     1      -3.873  -4.054 -33.510  1.00  0.00     0.037 A 
HETATM   33  C   UNL     1      -3.223  -3.587 -32.372  1.00  0.00     0.005 A 
HETATM   34  C   UNL     1      -3.326  -2.241 -32.021  1.00  0.00     0.029 A 
BRANCH  31  35
HETATM   35  O   UNL     1      -5.222  -3.780 -35.384  1.00  0.00    -0.356 OA
HETATM   36  C   UNL     1      -6.472  -4.420 -35.157  1.00  0.00     0.210 C 
ENDBRANCH  31  35
ENDBRANCH  26  29
ENDBRANCH  24  25
ENDBRANCH  23  24
ENDBRANCH   1  23
TORSDOF 8
ENDMDL
MODEL 3
REMARK VINA RESULT:      -8.7      4.118     12.230
REMARK  8 active torsions:
REMARK  status: ('A' for Active; 'I' for Inactive)
REMARK    1  A    between atoms: O_2  and  C_3 
REMARK    2  A    between atoms: C_5  and  N_6 
REMARK       I    between atoms: N_6  and  C_7 
REMARK    3  A    between atoms: C_7  and  C_8 
REMARK    4  A    between atoms: C_8  and  O_9 
REMARK    5  A    between atoms: O_9  and  C_10 
REMARK    6  A    between atoms: C_13  and  C_14 
REMARK       I    between atoms: C_14  and  N_15 
REMARK    7  A    between atoms: N_15  and  C_16 
REMARK    8  A    between atoms: C_19  and  N_20 
ROOT
HETATM    1  C   UNL     1      -2.513   4.864 -33.939  1.00  0.00     0.069 A 
HETATM    2  C   UNL     1      -3.725   5.267 -34.492  1.00  0.00     0.038 A 
HETATM    3  C   UNL     1      -4.926   4.748 -33.990  1.00  0.00     0.020 A 
HETATM    4  C   UNL     1      -4.922   3.821 -32.939  1.00  0.00     0.032 A 
HETATM    5  C   UNL     1      -3.694   3.384 -32.424  1.00  0.00     0.020 A 
HETATM    6  C   UNL     1      -2.498   3.890 -32.939  1.00  0.00     0.038 A 
ENDROOT
BRANCH   4   7
HETATM    7  C   UNL     1      -6.229   3.451 -32.307  1.00  0.00     0.256 C 
HETATM    8  N   UNL     1      -7.360   3.860 -32.987  1.00  0.00    -0.323 N 
HETATM    9  H   UNL     1      -7.261   4.610 -33.657  1.00  0.00     0.169 HD
HETATM   10  O   UNL     1      -6.212   2.795 -31.271  1.00  0.00    -0.267 OA
BRANCH   8  11
HETATM   11  C   UNL     1      -8.625   3.236 -32.959  1.00  0.00     0.035 A 
HETATM   12  C   UNL     1      -8.902   2.012 -33.559  1.00  0.00     0.032 A 
HETATM   13  C   UNL     1     -10.222   1.544 -33.648  1.00  0.00     0.031 A 
HETATM   14  C   UNL     1     -11.303   2.279 -33.144  1.00  0.00     0.030 A 
HETATM   15  C   UNL     1     -10.993   3.481 -32.491  1.00  0.00     0.031 A 
HETATM   16  C   UNL     1      -9.678   3.954 -32.393  1.00  0.00     0.032 A 
BRANCH  14  17
HETATM   17  N   UNL     1     -12.635   1.917 -33.343  1.00  0.00    -0.381 N 
HETATM   18  C   UNL     1     -12.962   1.231 -34.601  1.00  0.00     0.123 C 
HETATM   19  C   UNL     1     -14.195   0.353 -34.382  1.00  0.00     0.020 C 
HETATM   20  C   UNL     1     -15.367   1.167 -33.839  1.00  0.00     0.003 C 
HETATM   21  C   UNL     1     -14.960   1.948 -32.591  1.00  0.00     0.020 C 
HETATM   22  C   UNL     1     -13.703   2.785 -32.831  1.00  0.00     0.123 C 
ENDBRANCH  14  17
ENDBRANCH   8  11
ENDBRANCH   4   7
BRANCH   1  23
HETATM   23  O   UNL     1      -1.286   5.402 -34.216  1.00  0.00    -0.342 OA
BRANCH  23  24
HETATM   24  C   UNL     1      -1.154   6.818 -34.147  1.00  0.00     0.278 C 
BRANCH  24  25
HETATM   25  C   UNL     1      -1.215   7.498 -32.761  1.00  0.00     0.246 C 
HETATM   26  N   UNL     1      -0.592   6.769 -31.763  1.00  0.00    -0.325 N 
HETATM   27  H   UNL     1      -0.187   5.888 -32.054  1.00  0.00     0.169 HD
HETATM   28  O   UNL     1      -1.776   8.582 -32.629  1.00  0.00    -0.271 OA
BRANCH  26  29
HETATM   29  C   UNL     1      -0.591   7.018 -30.376  1.00  0.00     0.037 A 
HETATM   30  C   UNL     1      -1.727   6.936 -29.565  1.00  0.00     0.066 A 
HETATM   31  C   UNL     1      -1.635   7.174 -28.189  1.00  0.00     0.070 A 
HETATM   32  C   UNL     1      -0.395   7.481 -27.625  1.00  0.00     0.037 A 
HETATM   33  C   UNL     1       0.742   7.567 -28.422  1.00  0.00     0.005 A 
HETATM   34  C   UNL     1       0.641   7.345 -29.795  1.00  0.00     0.029 A 
BRANCH  31  35
HETATM   35  O   UNL     1      -2.670   7.134 -27.293  1.00  0.00    -0.356 OA
HETATM   36  C   UNL     1      -2.359   6.706 -25.973  1.00  0.00     0.210 C 
ENDBRANCH  31  35
ENDBRANCH  26  29
ENDBRANCH  24  25
ENDBRANCH  23  24
ENDBRANCH   1  23
TORSDOF 8
ENDMDL
MODEL 4
REMARK VINA RESULT:      -8.5      3.360     11.029
REMARK  8 active torsions:
REMARK  status: ('A' for Active; 'I' for Inactive)
REMARK    1  A    between atoms: O_2  and  C_3 
REMARK    2  A    between atoms: C_5  and  N_6 
REMARK       I    between atoms: N_6  and  C_7 
REMARK    3  A    between atoms: C_7  and  C_8 
REMARK    4  A    between atoms: C_8  and  O_9 
REMARK    5  A    between atoms: O_9  and  C_10 
REMARK    6  A    between atoms: C_13  and  C_14 
REMARK       I    between atoms: C_14  and  N_15 
REMARK    7  A    between atoms: N_15  and  C_16 
REMARK    8  A    between atoms: C_19  and  N_20 
ROOT
HETATM    1  C   UNL     1      -6.240   6.822 -28.615  1.00  0.00     0.069 A 
HETATM    2  C   UNL     1      -6.101   5.488 -28.243  1.00  0.00     0.038 A 
HETATM    3  C   UNL     1      -5.903   4.508 -29.225  1.00  0.00     0.020 A 
HETATM    4  C   UNL     1      -5.848   4.855 -30.582  1.00  0.00     0.032 A 
HETATM    5  C   UNL     1      -6.041   6.194 -30.949  1.00  0.00     0.020 A 
HETATM    6  C   UNL     1      -6.256   7.165 -29.968  1.00  0.00     0.038 A 
ENDROOT
BRANCH   4   7
HETATM    7  C   UNL     1      -5.437   3.807 -31.572  1.00  0.00     0.256 C 
HETATM    8  N   UNL     1      -4.825   2.688 -31.039  1.00  0.00    -0.323 N 
HETATM    9  H   UNL     1      -4.424   2.766 -30.116  1.00  0.00     0.169 HD
HETATM   10  O   UNL     1      -5.695   3.990 -32.756  1.00  0.00    -0.267 OA
BRANCH   8  11
HETATM   11  C   UNL     1      -4.832   1.390 -31.590  1.00  0.00     0.035 A 
HETATM   12  C   UNL     1      -3.854   0.905 -32.452  1.00  0.00     0.032 A 
HETATM   13  C   UNL     1      -4.025  -0.327 -33.103  1.00  0.00     0.031 A 
HETATM   14  C   UNL     1      -5.171  -1.110 -32.917  1.00  0.00     0.030 A 
HETATM   15  C   UNL     1      -6.116  -0.628 -31.999  1.00  0.00     0.031 A 
HETATM   16  C   UNL     1      -5.952   0.598 -31.340  1.00  0.00     0.032 A 
BRANCH  14  17
HETATM   17  N   UNL     1      -5.441  -2.262 -33.654  1.00  0.00    -0.381 N 
HETATM   18  C   UNL     1      -4.289  -2.979 -34.221  1.00  0.00     0.123 C 
HETATM   19  C   UNL     1      -4.653  -4.456 -34.378  1.00  0.00     0.020 C 
HETATM   20  C   UNL     1      -5.919  -4.631 -35.215  1.00  0.00     0.003 C 
HETATM   21  C   UNL     1      -7.064  -3.789 -34.657  1.00  0.00     0.020 C 
HETATM   22  C   UNL     1      -6.656  -2.327 -34.475  1.00  0.00     0.123 C 
ENDBRANCH  14  17
ENDBRANCH   8  11
ENDBRANCH   4   7
BRANCH   1  23
HETATM   23  O   UNL     1      -6.276   7.893 -27.765  1.00  0.00    -0.342 OA
BRANCH  23  24
HETATM   24  C   UNL     1      -5.068   8.617 -27.563  1.00  0.00     0.278 C 
BRANCH  24  25
HETATM   25  C   UNL     1      -3.725   7.867 -27.706  1.00  0.00     0.246 C 
HETATM   26  N   UNL     1      -3.073   8.127 -28.898  1.00  0.00    -0.325 N 
HETATM   27  H   UNL     1      -3.551   8.760 -29.528  1.00  0.00     0.169 HD
HETATM   28  O   UNL     1      -3.332   7.128 -26.807  1.00  0.00    -0.271 OA
BRANCH  26  29
HETATM   29  C   UNL     1      -1.919   7.505 -29.413  1.00  0.00     0.037 A 
HETATM   30  C   UNL     1      -1.939   6.496 -30.382  1.00  0.00     0.066 A 
HETATM   31  C   UNL     1      -0.744   5.947 -30.858  1.00  0.00     0.070 A 
HETATM   32  C   UNL     1       0.476   6.423 -30.371  1.00  0.00     0.037 A 
HETATM   33  C   UNL     1       0.508   7.424 -29.406  1.00  0.00     0.005 A 
HETATM   34  C   UNL     1      -0.687   7.957 -28.922  1.00  0.00     0.029 A 
BRANCH  31  35
HETATM   35  O   UNL     1      -0.631   4.954 -31.795  1.00  0.00    -0.356 OA
HETATM   36  C   UNL     1      -1.842   4.441 -32.335  1.00  0.00     0.210 C 
ENDBRANCH  31  35
ENDBRANCH  26  29
ENDBRANCH  24  25
ENDBRANCH  23  24
ENDBRANCH   1  23
TORSDOF 8
ENDMDL
MODEL 5
REMARK VINA RESULT:      -8.5      3.193     13.227
REMARK  8 active torsions:
REMARK  status: ('A' for Active; 'I' for Inactive)
REMARK    1  A    between atoms: O_2  and  C_3 
REMARK    2  A    between atoms: C_5  and  N_6 
REMARK       I    between atoms: N_6  and  C_7 
REMARK    3  A    between atoms: C_7  and  C_8 
REMARK    4  A    between atoms: C_8  and  O_9 
REMARK    5  A    between atoms: O_9  and  C_10 
REMARK    6  A    between atoms: C_13  and  C_14 
REMARK       I    between atoms: C_14  and  N_15 
REMARK    7  A    between atoms: N_15  and  C_16 
REMARK    8  A    between atoms: C_19  and  N_20 
ROOT
HETATM    1  C   UNL     1       0.473   8.078 -28.277  1.00  0.00     0.069 A 
HETATM    2  C   UNL     1      -0.800   8.629 -28.150  1.00  0.00     0.038 A 
HETATM    3  C   UNL     1      -1.852   8.137 -28.933  1.00  0.00     0.020 A 
HETATM    4  C   UNL     1      -1.639   7.100 -29.851  1.00  0.00     0.032 A 
HETATM    5  C   UNL     1      -0.344   6.588 -30.008  1.00  0.00     0.020 A 
HETATM    6  C   UNL     1       0.706   7.092 -29.237  1.00  0.00     0.038 A 
ENDROOT
BRANCH   4   7
HETATM    7  C   UNL     1      -2.829   6.477 -30.515  1.00  0.00     0.256 C 
HETATM    8  N   UNL     1      -2.552   5.463 -31.412  1.00  0.00    -0.323 N 
HETATM    9  H   UNL     1      -1.617   5.412 -31.790  1.00  0.00     0.169 HD
HETATM   10  O   UNL     1      -3.946   6.873 -30.202  1.00  0.00    -0.267 OA
BRANCH   8  11
HETATM   11  C   UNL     1      -3.401   4.388 -31.747  1.00  0.00     0.035 A 
HETATM   12  C   UNL     1      -3.229   3.087 -31.283  1.00  0.00     0.032 A 
HETATM   13  C   UNL     1      -4.001   2.037 -31.805  1.00  0.00     0.031 A 
HETATM   14  C   UNL     1      -4.963   2.249 -32.800  1.00  0.00     0.030 A 
HETATM   15  C   UNL     1      -5.159   3.577 -33.209  1.00  0.00     0.031 A 
HETATM   16  C   UNL     1      -4.398   4.632 -32.692  1.00  0.00     0.032 A 
BRANCH  14  17
HETATM   17  N   UNL     1      -5.642   1.215 -33.442  1.00  0.00    -0.381 N 
HETATM   18  C   UNL     1      -6.942   1.541 -34.048  1.00  0.00     0.123 C 
HETATM   19  C   UNL     1      -7.203   0.582 -35.210  1.00  0.00     0.020 C 
HETATM   20  C   UNL     1      -7.118  -0.875 -34.759  1.00  0.00     0.003 C 
HETATM   21  C   UNL     1      -5.797  -1.149 -34.042  1.00  0.00     0.020 C 
HETATM   22  C   UNL     1      -5.548  -0.151 -32.912  1.00  0.00     0.123 C 
ENDBRANCH  14  17
ENDBRANCH   8  11
ENDBRANCH   4   7
BRANCH   1  23
HETATM   23  O   UNL     1       1.547   8.343 -27.472  1.00  0.00    -0.342 OA
BRANCH  23  24
HETATM   24  C   UNL     1       1.551   7.774 -26.168  1.00  0.00     0.278 C 
BRANCH  24  25
HETATM   25  C   UNL     1       1.970   8.663 -24.976  1.00  0.00     0.246 C 
HETATM   26  N   UNL     1       3.243   8.392 -24.507  1.00  0.00    -0.325 N 
HETATM   27  H   UNL     1       3.735   7.648 -24.986  1.00  0.00     0.169 HD
HETATM   28  O   UNL     1       1.198   9.513 -24.538  1.00  0.00    -0.271 OA
BRANCH  26  29
HETATM   29  C   UNL     1       3.873   8.902 -23.354  1.00  0.00     0.037 A 
HETATM   30  C   UNL     1       4.191   8.133 -22.231  1.00  0.00     0.066 A 
HETATM   31  C   UNL     1       4.841   8.713 -21.136  1.00  0.00     0.070 A 
HETATM   32  C   UNL     1       5.185  10.066 -21.176  1.00  0.00     0.037 A 
HETATM   33  C   UNL     1       4.872  10.841 -22.288  1.00  0.00     0.005 A 
HETATM   34  C   UNL     1       4.209  10.262 -23.370  1.00  0.00     0.029 A 
BRANCH  31  35
HETATM   35  O   UNL     1       5.197   8.072 -19.978  1.00  0.00    -0.356 OA
HETATM   36  C   UNL     1       6.411   7.332 -20.003  1.00  0.00     0.210 C 
ENDBRANCH  31  35
ENDBRANCH  26  29
ENDBRANCH  24  25
ENDBRANCH  23  24
ENDBRANCH   1  23
TORSDOF 8
ENDMDL
MODEL 6
REMARK VINA RESULT:      -8.4      3.794     11.274
REMARK  8 active torsions:
REMARK  status: ('A' for Active; 'I' for Inactive)
REMARK    1  A    between atoms: O_2  and  C_3 
REMARK    2  A    between atoms: C_5  and  N_6 
REMARK       I    between atoms: N_6  and  C_7 
REMARK    3  A    between atoms: C_7  and  C_8 
REMARK    4  A    between atoms: C_8  and  O_9 
REMARK    5  A    between atoms: O_9  and  C_10 
REMARK    6  A    between atoms: C_13  and  C_14 
REMARK       I    between atoms: C_14  and  N_15 
REMARK    7  A    between atoms: N_15  and  C_16 
REMARK    8  A    between atoms: C_19  and  N_20 
ROOT
HETATM    1  C   UNL     1      -7.151   6.393 -29.032  1.00  0.00     0.069 A 
HETATM    2  C   UNL     1      -6.914   5.084 -28.623  1.00  0.00     0.038 A 
HETATM    3  C   UNL     1      -7.219   4.020 -29.482  1.00  0.00     0.020 A 
HETATM    4  C   UNL     1      -7.769   4.257 -30.748  1.00  0.00     0.032 A 
HETATM    5  C   UNL     1      -8.053   5.575 -31.130  1.00  0.00     0.020 A 
HETATM    6  C   UNL     1      -7.763   6.632 -30.264  1.00  0.00     0.038 A 
ENDROOT
BRANCH   4   7
HETATM    7  C   UNL     1      -7.891   3.106 -31.701  1.00  0.00     0.256 C 
HETATM    8  N   UNL     1      -6.797   2.886 -32.517  1.00  0.00    -0.323 N 
HETATM    9  H   UNL     1      -6.148   3.648 -32.648  1.00  0.00     0.169 HD
HETATM   10  O   UNL     1      -8.913   2.429 -31.672  1.00  0.00    -0.267 OA
BRANCH   8  11
HETATM   11  C   UNL     1      -6.404   1.651 -33.072  1.00  0.00     0.035 A 
HETATM   12  C   UNL     1      -6.837   1.180 -34.308  1.00  0.00     0.032 A 
HETATM   13  C   UNL     1      -6.550  -0.134 -34.709  1.00  0.00     0.031 A 
HETATM   14  C   UNL     1      -5.827  -1.016 -33.896  1.00  0.00     0.030 A 
HETATM   15  C   UNL     1      -5.350  -0.500 -32.682  1.00  0.00     0.031 A 
HETATM   16  C   UNL     1      -5.627   0.812 -32.274  1.00  0.00     0.032 A 
BRANCH  14  17
HETATM   17  N   UNL     1      -5.650  -2.366 -34.197  1.00  0.00    -0.381 N 
HETATM   18  C   UNL     1      -4.268  -2.841 -34.356  1.00  0.00     0.123 C 
HETATM   19  C   UNL     1      -4.212  -4.330 -34.010  1.00  0.00     0.020 C 
HETATM   20  C   UNL     1      -5.206  -5.132 -34.848  1.00  0.00     0.003 C 
HETATM   21  C   UNL     1      -6.612  -4.546 -34.740  1.00  0.00     0.020 C 
HETATM   22  C   UNL     1      -6.627  -3.049 -35.053  1.00  0.00     0.123 C 
ENDBRANCH  14  17
ENDBRANCH   8  11
ENDBRANCH   4   7
BRANCH   1  23
HETATM   23  O   UNL     1      -6.757   7.525 -28.373  1.00  0.00    -0.342 OA
BRANCH  23  24
HETATM   24  C   UNL     1      -5.390   7.623 -27.988  1.00  0.00     0.278 C 
BRANCH  24  25
HETATM   25  C   UNL     1      -4.319   7.744 -29.094  1.00  0.00     0.246 C 
HETATM   26  N   UNL     1      -3.417   6.695 -29.104  1.00  0.00    -0.325 N 
HETATM   27  H   UNL     1      -3.559   5.990 -28.390  1.00  0.00     0.169 HD
HETATM   28  O   UNL     1      -4.327   8.705 -29.860  1.00  0.00    -0.271 OA
BRANCH  26  29
HETATM   29  C   UNL     1      -2.241   6.565 -29.869  1.00  0.00     0.037 A 
HETATM   30  C   UNL     1      -2.167   5.868 -31.079  1.00  0.00     0.066 A 
HETATM   31  C   UNL     1      -0.963   5.807 -31.790  1.00  0.00     0.070 A 
HETATM   32  C   UNL     1       0.165   6.461 -31.291  1.00  0.00     0.037 A 
HETATM   33  C   UNL     1       0.104   7.156 -30.087  1.00  0.00     0.005 A 
HETATM   34  C   UNL     1      -1.094   7.199 -29.374  1.00  0.00     0.029 A 
BRANCH  31  35
HETATM   35  O   UNL     1      -0.761   5.153 -32.976  1.00  0.00    -0.356 OA
HETATM   36  C   UNL     1      -1.837   5.165 -33.906  1.00  0.00     0.210 C 
ENDBRANCH  31  35
ENDBRANCH  26  29
ENDBRANCH  24  25
ENDBRANCH  23  24
ENDBRANCH   1  23
TORSDOF 8
ENDMDL
MODEL 7
REMARK VINA RESULT:      -8.4      3.784     12.772
REMARK  8 active torsions:
REMARK  status: ('A' for Active; 'I' for Inactive)
REMARK    1  A    between atoms: O_2  and  C_3 
REMARK    2  A    between atoms: C_5  and  N_6 
REMARK       I    between atoms: N_6  and  C_7 
REMARK    3  A    between atoms: C_7  and  C_8 
REMARK    4  A    between atoms: C_8  and  O_9 
REMARK    5  A    between atoms: O_9  and  C_10 
REMARK    6  A    between atoms: C_13  and  C_14 
REMARK       I    between atoms: C_14  and  N_15 
REMARK    7  A    between atoms: N_15  and  C_16 
REMARK    8  A    between atoms: C_19  and  N_20 
ROOT
HETATM    1  C   UNL     1      -2.157   4.489 -32.060  1.00  0.00     0.069 A 
HETATM    2  C   UNL     1      -2.898   3.381 -31.656  1.00  0.00     0.038 A 
HETATM    3  C   UNL     1      -4.213   3.220 -32.112  1.00  0.00     0.020 A 
HETATM    4  C   UNL     1      -4.797   4.166 -32.965  1.00  0.00     0.032 A 
HETATM    5  C   UNL     1      -4.061   5.303 -33.323  1.00  0.00     0.020 A 
HETATM    6  C   UNL     1      -2.756   5.469 -32.853  1.00  0.00     0.038 A 
ENDROOT
BRANCH   4   7
HETATM    7  C   UNL     1      -6.126   3.849 -33.581  1.00  0.00     0.256 C 
HETATM    8  N   UNL     1      -6.601   2.571 -33.356  1.00  0.00    -0.323 N 
HETATM    9  H   UNL     1      -5.934   1.863 -33.082  1.00  0.00     0.169 HD
HETATM   10  O   UNL     1      -6.709   4.733 -34.198  1.00  0.00    -0.267 OA
BRANCH   8  11
HETATM   11  C   UNL     1      -7.954   2.176 -33.321  1.00  0.00     0.035 A 
HETATM   12  C   UNL     1      -8.554   1.365 -34.280  1.00  0.00     0.032 A 
HETATM   13  C   UNL     1      -9.943   1.168 -34.277  1.00  0.00     0.031 A 
HETATM   14  C   UNL     1     -10.775   1.768 -33.324  1.00  0.00     0.030 A 
HETATM   15  C   UNL     1     -10.142   2.533 -32.333  1.00  0.00     0.031 A 
HETATM   16  C   UNL     1      -8.755   2.732 -32.324  1.00  0.00     0.032 A 
BRANCH  14  17
HETATM   17  N   UNL     1     -12.167   1.713 -33.378  1.00  0.00    -0.381 N 
HETATM   18  C   UNL     1     -12.765   0.981 -34.504  1.00  0.00     0.123 C 
HETATM   19  C   UNL     1     -14.137   0.454 -34.080  1.00  0.00     0.020 C 
HETATM   20  C   UNL     1     -15.034   1.582 -33.574  1.00  0.00     0.003 C 
HETATM   21  C   UNL     1     -14.338   2.385 -32.478  1.00  0.00     0.020 C 
HETATM   22  C   UNL     1     -12.954   2.864 -32.919  1.00  0.00     0.123 C 
ENDBRANCH  14  17
ENDBRANCH   8  11
ENDBRANCH   4   7
BRANCH   1  23
HETATM   23  O   UNL     1      -0.824   4.691 -31.828  1.00  0.00    -0.342 OA
BRANCH  23  24
HETATM   24  C   UNL     1      -0.417   5.987 -31.403  1.00  0.00     0.278 C 
BRANCH  24  25
HETATM   25  C   UNL     1      -0.050   6.195 -29.917  1.00  0.00     0.246 C 
HETATM   26  N   UNL     1      -0.342   7.464 -29.449  1.00  0.00    -0.325 N 
HETATM   27  H   UNL     1      -0.746   8.097 -30.129  1.00  0.00     0.169 HD
HETATM   28  O   UNL     1       0.449   5.277 -29.270  1.00  0.00    -0.271 OA
BRANCH  26  29
HETATM   29  C   UNL     1      -0.004   8.033 -28.206  1.00  0.00     0.037 A 
HETATM   30  C   UNL     1      -0.923   8.278 -27.181  1.00  0.00     0.066 A 
HETATM   31  C   UNL     1      -0.499   8.824 -25.964  1.00  0.00     0.070 A 
HETATM   32  C   UNL     1       0.854   9.111 -25.772  1.00  0.00     0.037 A 
HETATM   33  C   UNL     1       1.777   8.873 -26.785  1.00  0.00     0.005 A 
HETATM   34  C   UNL     1       1.347   8.345 -28.002  1.00  0.00     0.029 A 
BRANCH  31  35
HETATM   35  O   UNL     1      -1.299   9.117 -24.891  1.00  0.00    -0.356 OA
HETATM   36  C   UNL     1      -2.385  10.005 -25.125  1.00  0.00     0.210 C 
ENDBRANCH  31  35
ENDBRANCH  26  29
ENDBRANCH  24  25
ENDBRANCH  23  24
ENDBRANCH   1  23
TORSDOF 8
ENDMDL
MODEL 8
REMARK VINA RESULT:      -8.2      2.725     11.920
REMARK  8 active torsions:
REMARK  status: ('A' for Active; 'I' for Inactive)
REMARK    1  A    between atoms: O_2  and  C_3 
REMARK    2  A    between atoms: C_5  and  N_6 
REMARK       I    between atoms: N_6  and  C_7 
REMARK    3  A    between atoms: C_7  and  C_8 
REMARK    4  A    between atoms: C_8  and  O_9 
REMARK    5  A    between atoms: O_9  and  C_10 
REMARK    6  A    between atoms: C_13  and  C_14 
REMARK       I    between atoms: C_14  and  N_15 
REMARK    7  A    between atoms: N_15  and  C_16 
REMARK    8  A    between atoms: C_19  and  N_20 
ROOT
HETATM    1  C   UNL     1      -4.556   7.647 -30.566  1.00  0.00     0.069 A 
HETATM    2  C   UNL     1      -3.618   7.549 -31.591  1.00  0.00     0.038 A 
HETATM    3  C   UNL     1      -3.189   6.287 -32.023  1.00  0.00     0.020 A 
HETATM    4  C   UNL     1      -3.686   5.119 -31.430  1.00  0.00     0.032 A 
HETATM    5  C   UNL     1      -4.590   5.230 -30.364  1.00  0.00     0.020 A 
HETATM    6  C   UNL     1      -5.003   6.490 -29.925  1.00  0.00     0.038 A 
ENDROOT
BRANCH   4   7
HETATM    7  C   UNL     1      -3.350   3.800 -32.057  1.00  0.00     0.256 C 
HETATM    8  N   UNL     1      -4.139   2.734 -31.667  1.00  0.00    -0.323 N 
HETATM    9  H   UNL     1      -4.655   2.822 -30.804  1.00  0.00     0.169 HD
HETATM   10  O   UNL     1      -2.444   3.759 -32.881  1.00  0.00    -0.267 OA
BRANCH   8  11
HETATM   11  C   UNL     1      -4.423   1.582 -32.429  1.00  0.00     0.035 A 
HETATM   12  C   UNL     1      -5.613   1.379 -33.120  1.00  0.00     0.032 A 
HETATM   13  C   UNL     1      -5.897   0.134 -33.701  1.00  0.00     0.031 A 
HETATM   14  C   UNL     1      -5.007  -0.944 -33.613  1.00  0.00     0.030 A 
HETATM   15  C   UNL     1      -3.788  -0.699 -32.963  1.00  0.00     0.031 A 
HETATM   16  C   UNL     1      -3.494   0.542 -32.384  1.00  0.00     0.032 A 
BRANCH  14  17
HETATM   17  N   UNL     1      -5.317  -2.232 -34.049  1.00  0.00    -0.381 N 
HETATM   18  C   UNL     1      -4.195  -3.088 -34.460  1.00  0.00     0.123 C 
HETATM   19  C   UNL     1      -4.586  -4.552 -34.253  1.00  0.00     0.020 C 
HETATM   20  C   UNL     1      -5.880  -4.891 -34.991  1.00  0.00     0.003 C 
HETATM   21  C   UNL     1      -6.994  -3.916 -34.618  1.00  0.00     0.020 C 
HETATM   22  C   UNL     1      -6.558  -2.462 -34.799  1.00  0.00     0.123 C 
ENDBRANCH  14  17
ENDBRANCH   8  11
ENDBRANCH   4   7
BRANCH   1  23
HETATM   23  O   UNL     1      -5.181   8.793 -30.156  1.00  0.00    -0.342 OA
BRANCH  23  24
HETATM   24  C   UNL     1      -4.724   9.400 -28.953  1.00  0.00     0.278 C 
BRANCH  24  25
HETATM   25  C   UNL     1      -3.212   9.671 -28.790  1.00  0.00     0.246 C 
HETATM   26  N   UNL     1      -2.516   8.603 -28.253  1.00  0.00    -0.325 N 
HETATM   27  H   UNL     1      -3.073   7.789 -28.025  1.00  0.00     0.169 HD
HETATM   28  O   UNL     1      -2.739  10.753 -29.128  1.00  0.00    -0.271 OA
BRANCH  26  29
HETATM   29  C   UNL     1      -1.170   8.562 -27.836  1.00  0.00     0.037 A 
HETATM   30  C   UNL     1      -0.733   8.948 -26.565  1.00  0.00     0.066 A 
HETATM   31  C   UNL     1       0.620   8.853 -26.222  1.00  0.00     0.070 A 
HETATM   32  C   UNL     1       1.534   8.355 -27.154  1.00  0.00     0.037 A 
HETATM   33  C   UNL     1       1.110   7.970 -28.422  1.00  0.00     0.005 A 
HETATM   34  C   UNL     1      -0.237   8.083 -28.764  1.00  0.00     0.029 A 
BRANCH  31  35
HETATM   35  O   UNL     1       1.173   9.206 -25.019  1.00  0.00    -0.356 OA
HETATM   36  C   UNL     1       2.588   9.108 -24.911  1.00  0.00     0.210 C 
ENDBRANCH  31  35
ENDBRANCH  26  29
ENDBRANCH  24  25
ENDBRANCH  23  24
ENDBRANCH   1  23
TORSDOF 8
ENDMDL
MODEL 9
REMARK VINA RESULT:      -8.0      2.887      3.768
REMARK  8 active torsions:
REMARK  status: ('A' for Active; 'I' for Inactive)
REMARK    1  A    between atoms: O_2  and  C_3 
REMARK    2  A    between atoms: C_5  and  N_6 
REMARK       I    between atoms: N_6  and  C_7 
REMARK    3  A    between atoms: C_7  and  C_8 
REMARK    4  A    between atoms: C_8  and  O_9 
REMARK    5  A    between atoms: O_9  and  C_10 
REMARK    6  A    between atoms: C_13  and  C_14 
REMARK       I    between atoms: C_14  and  N_15 
REMARK    7  A    between atoms: N_15  and  C_16 
REMARK    8  A    between atoms: C_19  and  N_20 
ROOT
HETATM    1  C   UNL     1      -4.144   4.756 -33.047  1.00  0.00     0.069 A 
HETATM    2  C   UNL     1      -4.319   4.967 -31.682  1.00  0.00     0.038 A 
HETATM    3  C   UNL     1      -3.201   5.143 -30.856  1.00  0.00     0.020 A 
HETATM    4  C   UNL     1      -1.905   5.105 -31.386  1.00  0.00     0.032 A 
HETATM    5  C   UNL     1      -1.738   4.840 -32.752  1.00  0.00     0.020 A 
HETATM    6  C   UNL     1      -2.854   4.648 -33.570  1.00  0.00     0.038 A 
ENDROOT
BRANCH   4   7
HETATM    7  C   UNL     1      -0.759   5.496 -30.503  1.00  0.00     0.256 C 
HETATM    8  N   UNL     1      -0.841   6.755 -29.939  1.00  0.00    -0.323 N 
HETATM    9  H   UNL     1      -1.461   7.425 -30.371  1.00  0.00     0.169 HD
HETATM   10  O   UNL     1       0.137   4.681 -30.313  1.00  0.00    -0.267 OA
BRANCH   8  11
HETATM   11  C   UNL     1      -0.259   7.165 -28.721  1.00  0.00     0.035 A 
HETATM   12  C   UNL     1      -0.868   7.015 -27.479  1.00  0.00     0.032 A 
HETATM   13  C   UNL     1      -0.312   7.613 -26.337  1.00  0.00     0.031 A 
HETATM   14  C   UNL     1       0.861   8.375 -26.397  1.00  0.00     0.030 A 
HETATM   15  C   UNL     1       1.488   8.463 -27.649  1.00  0.00     0.031 A 
HETATM   16  C   UNL     1       0.944   7.866 -28.794  1.00  0.00     0.032 A 
BRANCH  14  17
HETATM   17  N   UNL     1       1.360   9.101 -25.316  1.00  0.00    -0.381 N 
HETATM   18  C   UNL     1       2.621   8.634 -24.720  1.00  0.00     0.123 C 
HETATM   19  C   UNL     1       3.335   9.823 -24.076  1.00  0.00     0.020 C 
HETATM   20  C   UNL     1       2.436  10.528 -23.062  1.00  0.00     0.003 C 
HETATM   21  C   UNL     1       1.095  10.904 -23.688  1.00  0.00     0.020 C 
HETATM   22  C   UNL     1       0.426   9.703 -24.358  1.00  0.00     0.123 C 
ENDBRANCH  14  17
ENDBRANCH   8  11
ENDBRANCH   4   7
BRANCH   1  23
HETATM   23  O   UNL     1      -5.135   4.730 -33.989  1.00  0.00    -0.342 OA
BRANCH  23  24
HETATM   24  C   UNL     1      -6.363   5.377 -33.675  1.00  0.00     0.278 C 
BRANCH  24  25
HETATM   25  C   UNL     1      -7.676   4.577 -33.816  1.00  0.00     0.246 C 
HETATM   26  N   UNL     1      -7.699   3.417 -33.060  1.00  0.00    -0.325 N 
HETATM   27  H   UNL     1      -6.861   3.231 -32.522  1.00  0.00     0.169 HD
HETATM   28  O   UNL     1      -8.575   4.988 -34.545  1.00  0.00    -0.271 OA
BRANCH  26  29
HETATM   29  C   UNL     1      -8.663   2.391 -33.069  1.00  0.00     0.037 A 
HETATM   30  C   UNL     1      -9.840   2.429 -33.824  1.00  0.00     0.066 A 
HETATM   31  C   UNL     1     -10.736   1.354 -33.795  1.00  0.00     0.070 A 
HETATM   32  C   UNL     1     -10.441   0.232 -33.018  1.00  0.00     0.037 A 
HETATM   33  C   UNL     1      -9.274   0.183 -32.262  1.00  0.00     0.005 A 
HETATM   34  C   UNL     1      -8.393   1.265 -32.281  1.00  0.00     0.029 A 
BRANCH  31  35
HETATM   35  O   UNL     1     -11.920   1.275 -34.479  1.00  0.00    -0.356 OA
HETATM   36  C   UNL     1     -12.975   0.555 -33.852  1.00  0.00     0.210 C 
ENDBRANCH  31  35
ENDBRANCH  26  29
ENDBRANCH  24  25
ENDBRANCH  23  24
ENDBRANCH   1  23
TORSDOF 8
ENDMDL
MODEL 10
REMARK VINA RESULT:      -7.9      3.372      4.861
REMARK  8 active torsions:
REMARK  status: ('A' for Active; 'I' for Inactive)
REMARK    1  A    between atoms: O_2  and  C_3 
REMARK    2  A    between atoms: C_5  and  N_6 
REMARK       I    between atoms: N_6  and  C_7 
REMARK    3  A    between atoms: C_7  and  C_8 
REMARK    4  A    between atoms: C_8  and  O_9 
REMARK    5  A    between atoms: O_9  and  C_10 
REMARK    6  A    between atoms: C_13  and  C_14 
REMARK       I    between atoms: C_14  and  N_15 
REMARK    7  A    between atoms: N_15  and  C_16 
REMARK    8  A    between atoms: C_19  and  N_20 
ROOT
HETATM    1  C   UNL     1      -5.378   2.296 -32.243  1.00  0.00     0.069 A 
HETATM    2  C   UNL     1      -4.063   1.876 -32.422  1.00  0.00     0.038 A 
HETATM    3  C   UNL     1      -3.008   2.762 -32.166  1.00  0.00     0.020 A 
HETATM    4  C   UNL     1      -3.260   4.072 -31.737  1.00  0.00     0.032 A 
HETATM    5  C   UNL     1      -4.588   4.501 -31.611  1.00  0.00     0.020 A 
HETATM    6  C   UNL     1      -5.638   3.620 -31.883  1.00  0.00     0.038 A 
ENDROOT
BRANCH   4   7
HETATM    7  C   UNL     1      -2.104   4.912 -31.287  1.00  0.00     0.256 C 
HETATM    8  N   UNL     1      -2.427   6.165 -30.802  1.00  0.00    -0.323 N 
HETATM    9  H   UNL     1      -3.326   6.549 -31.054  1.00  0.00     0.169 HD
HETATM   10  O   UNL     1      -0.977   4.433 -31.344  1.00  0.00    -0.267 OA
BRANCH   8  11
HETATM   11  C   UNL     1      -1.692   6.911 -29.857  1.00  0.00     0.035 A 
HETATM   12  C   UNL     1      -0.338   7.207 -29.982  1.00  0.00     0.032 A 
HETATM   13  C   UNL     1       0.364   7.792 -28.918  1.00  0.00     0.031 A 
HETATM   14  C   UNL     1      -0.257   8.099 -27.701  1.00  0.00     0.030 A 
HETATM   15  C   UNL     1      -1.634   7.846 -27.619  1.00  0.00     0.031 A 
HETATM   16  C   UNL     1      -2.346   7.266 -28.678  1.00  0.00     0.032 A 
BRANCH  14  17
HETATM   17  N   UNL     1       0.438   8.543 -26.576  1.00  0.00    -0.381 N 
HETATM   18  C   UNL     1       1.606   7.755 -26.156  1.00  0.00     0.123 C 
HETATM   19  C   UNL     1       2.583   8.671 -25.417  1.00  0.00     0.020 C 
HETATM   20  C   UNL     1       1.904   9.379 -24.246  1.00  0.00     0.003 C 
HETATM   21  C   UNL     1       0.637  10.100 -24.703  1.00  0.00     0.020 C 
HETATM   22  C   UNL     1      -0.300   9.167 -25.471  1.00  0.00     0.123 C 
ENDBRANCH  14  17
ENDBRANCH   8  11
ENDBRANCH   4   7
BRANCH   1  23
HETATM   23  O   UNL     1      -6.490   1.501 -32.297  1.00  0.00    -0.342 OA
BRANCH  23  24
HETATM   24  C   UNL     1      -6.649   0.665 -33.438  1.00  0.00     0.278 C 
BRANCH  24  25
HETATM   25  C   UNL     1      -7.972   0.742 -34.230  1.00  0.00     0.246 C 
HETATM   26  N   UNL     1      -8.920   1.561 -33.642  1.00  0.00    -0.325 N 
HETATM   27  H   UNL     1      -8.640   1.997 -32.772  1.00  0.00     0.169 HD
HETATM   28  O   UNL     1      -8.104   0.111 -35.277  1.00  0.00    -0.271 OA
BRANCH  26  29
HETATM   29  C   UNL     1     -10.269   1.736 -34.010  1.00  0.00     0.037 A 
HETATM   30  C   UNL     1     -10.729   2.776 -34.824  1.00  0.00     0.066 A 
HETATM   31  C   UNL     1     -12.084   2.864 -35.163  1.00  0.00     0.070 A 
HETATM   32  C   UNL     1     -12.975   1.896 -34.695  1.00  0.00     0.037 A 
HETATM   33  C   UNL     1     -12.529   0.858 -33.883  1.00  0.00     0.005 A 
HETATM   34  C   UNL     1     -11.180   0.785 -33.534  1.00  0.00     0.029 A 
BRANCH  31  35
HETATM   35  O   UNL     1     -12.658   3.834 -35.941  1.00  0.00    -0.356 OA
HETATM   36  C   UNL     1     -12.980   5.062 -35.301  1.00  0.00     0.210 C 
ENDBRANCH  31  35
ENDBRANCH  26  29
ENDBRANCH  24  25
ENDBRANCH  23  24
ENDBRANCH   1  23
TORSDOF 8
ENDMDL
