MODEL 1
REMARK VINA RESULT:      -8.6      0.000      0.000
REMARK  9 active torsions:
REMARK  status: ('A' for Active; 'I' for Inactive)
REMARK    1  A    between atoms: C_2  and  N_3 
REMARK    2  A    between atoms: C_2  and  C_23 
REMARK       I    between atoms: N_3  and  C_4 
REMARK       I    between atoms: C_4  and  N_5 
REMARK    3  A    between atoms: N_5  and  C_6 
REMARK    4  A    between atoms: C_6  and  C_7 
REMARK    5  A    between atoms: C_7  and  N_8 
REMARK    6  A    between atoms: C_7  and  C_14 
REMARK    7  A    between atoms: C_15  and  O_16 
REMARK    8  A    between atoms: C_23  and  C_24 
REMARK    9  A    between atoms: C_27  and  O_28 
ROOT
HETATM    1  N   UNL     1      -4.686   1.216 -32.645  1.00  0.00    -0.339 N 
HETATM    2  C   UNL     1      -4.591   2.385 -31.950  1.00  0.00     0.316 C 
HETATM    3  N   UNL     1      -3.279   2.764 -31.780  1.00  0.00    -0.341 N 
HETATM    4  O   UNL     1      -5.526   2.995 -31.456  1.00  0.00    -0.248 OA
HETATM    5  H   UNL     1      -3.829   0.716 -32.821  1.00  0.00     0.164 HD
HETATM    6  H   UNL     1      -2.700   2.503 -32.569  1.00  0.00     0.164 HD
ENDROOT
BRANCH   3   7
HETATM    7  C   UNL     1      -2.986   4.071 -31.208  1.00  0.00     0.162 C 
BRANCH   7   8
HETATM    8  C   UNL     1      -2.002   5.013 -31.982  1.00  0.00     0.241 C 
BRANCH   8   9
HETATM    9  N   UNL     1      -2.683   5.679 -33.200  1.00  0.00    -0.061 N 
HETATM   10  H   UNL     1      -2.293   6.621 -33.292  1.00  0.00     0.280 HD
HETATM   11  C   UNL     1      -4.196   5.833 -33.088  1.00  0.00     0.236 C 
HETATM   12  C   UNL     1      -4.768   5.182 -34.335  1.00  0.00     0.029 C 
HETATM   13  C   UNL     1      -3.648   5.259 -35.344  1.00  0.00     0.029 C 
HETATM   14  C   UNL     1      -2.434   4.938 -34.504  1.00  0.00     0.236 C 
ENDBRANCH   8   9
BRANCH   8  15
HETATM   15  C   UNL     1      -1.470   6.032 -30.968  1.00  0.00     0.007 A 
HETATM   16  C   UNL     1      -0.306   5.741 -30.227  1.00  0.00     0.076 A 
HETATM   17  C   UNL     1       0.176   6.662 -29.294  1.00  0.00     0.037 A 
HETATM   18  C   UNL     1      -0.504   7.859 -29.068  1.00  0.00     0.003 A 
HETATM   19  C   UNL     1      -1.672   8.141 -29.767  1.00  0.00     0.001 A 
HETATM   20  C   UNL     1      -2.160   7.233 -30.706  1.00  0.00     0.012 A 
BRANCH  16  21
HETATM   21  O   UNL     1       0.290   4.540 -30.501  1.00  0.00    -0.355 OA
HETATM   22  C   UNL     1       1.666   4.565 -30.875  1.00  0.00     0.210 C 
ENDBRANCH  16  21
ENDBRANCH   8  15
ENDBRANCH   7   8
ENDBRANCH   3   7
BRANCH   1  23
HETATM   23  C   UNL     1      -5.926   0.446 -32.784  1.00  0.00     0.086 C 
HETATM   24  C   UNL     1      -6.056  -0.615 -31.689  1.00  0.00     0.032 C 
BRANCH  23  25
HETATM   25  C   UNL     1      -6.103  -0.190 -34.184  1.00  0.00     0.063 C 
BRANCH  25  26
HETATM   26  C   UNL     1      -5.825  -1.676 -34.338  1.00  0.00    -0.056 A 
HETATM   27  C   UNL     1      -4.513  -2.130 -34.103  1.00  0.00     0.010 A 
HETATM   28  C   UNL     1      -4.190  -3.486 -34.202  1.00  0.00     0.037 A 
HETATM   29  C   UNL     1      -5.179  -4.397 -34.549  1.00  0.00     0.065 A 
HETATM   30  C   UNL     1      -6.482  -3.976 -34.771  1.00  0.00     0.037 A 
HETATM   31  C   UNL     1      -6.810  -2.624 -34.645  1.00  0.00     0.010 A 
BRANCH  29  32
HETATM   32  O   UNL     1      -4.908  -5.725 -34.677  1.00  0.00    -0.361 OA
HETATM   33  H   UNL     1      -4.242  -5.975 -34.014  1.00  0.00     0.217 HD
ENDBRANCH  29  32
ENDBRANCH  25  26
ENDBRANCH  23  25
ENDBRANCH   1  23
TORSDOF 9
ENDMDL
MODEL 2
REMARK VINA RESULT:      -8.5      5.663      9.364
REMARK  9 active torsions:
REMARK  status: ('A' for Active; 'I' for Inactive)
REMARK    1  A    between atoms: C_2  and  N_3 
REMARK    2  A    between atoms: C_2  and  C_23 
REMARK       I    between atoms: N_3  and  C_4 
REMARK       I    between atoms: C_4  and  N_5 
REMARK    3  A    between atoms: N_5  and  C_6 
REMARK    4  A    between atoms: C_6  and  C_7 
REMARK    5  A    between atoms: C_7  and  N_8 
REMARK    6  A    between atoms: C_7  and  C_14 
REMARK    7  A    between atoms: C_15  and  O_16 
REMARK    8  A    between atoms: C_23  and  C_24 
REMARK    9  A    between atoms: C_27  and  O_28 
ROOT
HETATM    1  N   UNL     1     -10.034   2.682 -34.730  1.00  0.00    -0.339 N 
HETATM    2  C   UNL     1      -9.738   1.403 -34.363  1.00  0.00     0.316 C 
HETATM    3  N   UNL     1      -8.488   1.030 -34.801  1.00  0.00    -0.341 N 
HETATM    4  O   UNL     1     -10.498   0.636 -33.793  1.00  0.00    -0.248 OA
HETATM    5  H   UNL     1      -9.397   3.135 -35.368  1.00  0.00     0.164 HD
HETATM    6  H   UNL     1      -7.835   1.804 -34.801  1.00  0.00     0.164 HD
ENDROOT
BRANCH   3   7
HETATM    7  C   UNL     1      -7.933  -0.242 -34.360  1.00  0.00     0.162 C 
BRANCH   7   8
HETATM    8  C   UNL     1      -6.402  -0.305 -34.027  1.00  0.00     0.241 C 
BRANCH   8   9
HETATM    9  N   UNL     1      -6.098   0.249 -32.617  1.00  0.00    -0.061 N 
HETATM   10  H   UNL     1      -5.362  -0.334 -32.210  1.00  0.00     0.280 HD
HETATM   11  C   UNL     1      -7.275   0.223 -31.647  1.00  0.00     0.236 C 
HETATM   12  C   UNL     1      -7.411   1.645 -31.130  1.00  0.00     0.029 C 
HETATM   13  C   UNL     1      -6.033   2.236 -31.293  1.00  0.00     0.029 C 
HETATM   14  C   UNL     1      -5.602   1.686 -32.633  1.00  0.00     0.236 C 
ENDBRANCH   8   9
BRANCH   8  15
HETATM   15  C   UNL     1      -5.968  -1.765 -34.199  1.00  0.00     0.007 A 
HETATM   16  C   UNL     1      -4.637  -2.138 -33.918  1.00  0.00     0.076 A 
HETATM   17  C   UNL     1      -4.234  -3.465 -34.084  1.00  0.00     0.037 A 
HETATM   18  C   UNL     1      -5.135  -4.422 -34.554  1.00  0.00     0.003 A 
HETATM   19  C   UNL     1      -6.439  -4.059 -34.869  1.00  0.00     0.001 A 
HETATM   20  C   UNL     1      -6.855  -2.738 -34.701  1.00  0.00     0.012 A 
BRANCH  16  21
HETATM   21  O   UNL     1      -3.819  -1.135 -33.475  1.00  0.00    -0.355 OA
HETATM   22  C   UNL     1      -3.138  -1.347 -32.240  1.00  0.00     0.210 C 
ENDBRANCH  16  21
ENDBRANCH   8  15
ENDBRANCH   7   8
ENDBRANCH   3   7
BRANCH   1  23
HETATM   23  C   UNL     1     -11.367   3.280 -34.611  1.00  0.00     0.086 C 
HETATM   24  C   UNL     1     -11.443   4.634 -35.321  1.00  0.00     0.032 C 
BRANCH  23  25
HETATM   25  C   UNL     1     -11.860   3.402 -33.150  1.00  0.00     0.063 C 
BRANCH  25  26
HETATM   26  C   UNL     1     -13.329   3.137 -32.863  1.00  0.00    -0.056 A 
HETATM   27  C   UNL     1     -13.864   1.896 -33.254  1.00  0.00     0.010 A 
HETATM   28  C   UNL     1     -15.200   1.573 -33.000  1.00  0.00     0.037 A 
HETATM   29  C   UNL     1     -16.013   2.499 -32.360  1.00  0.00     0.065 A 
HETATM   30  C   UNL     1     -15.505   3.724 -31.951  1.00  0.00     0.037 A 
HETATM   31  C   UNL     1     -14.163   4.034 -32.181  1.00  0.00     0.010 A 
BRANCH  29  32
HETATM   32  O   UNL     1     -17.326   2.239 -32.109  1.00  0.00    -0.361 OA
HETATM   33  H   UNL     1     -17.440   2.097 -31.154  1.00  0.00     0.217 HD
ENDBRANCH  29  32
ENDBRANCH  25  26
ENDBRANCH  23  25
ENDBRANCH   1  23
TORSDOF 9
ENDMDL
MODEL 3
REMARK VINA RESULT:      -8.4      2.290      9.653
REMARK  9 active torsions:
REMARK  status: ('A' for Active; 'I' for Inactive)
REMARK    1  A    between atoms: C_2  and  N_3 
REMARK    2  A    between atoms: C_2  and  C_23 
REMARK       I    between atoms: N_3  and  C_4 
REMARK       I    between atoms: C_4  and  N_5 
REMARK    3  A    between atoms: N_5  and  C_6 
REMARK    4  A    between atoms: C_6  and  C_7 
REMARK    5  A    between atoms: C_7  and  N_8 
REMARK    6  A    between atoms: C_7  and  C_14 
REMARK    7  A    between atoms: C_15  and  O_16 
REMARK    8  A    between atoms: C_23  and  C_24 
REMARK    9  A    between atoms: C_27  and  O_28 
ROOT
HETATM    1  N   UNL     1      -1.963   4.904 -30.741  1.00  0.00    -0.339 N 
HETATM    2  C   UNL     1      -2.376   4.100 -31.760  1.00  0.00     0.316 C 
HETATM    3  N   UNL     1      -3.153   3.062 -31.300  1.00  0.00    -0.341 N 
HETATM    4  O   UNL     1      -2.045   4.212 -32.930  1.00  0.00    -0.248 OA
HETATM    5  H   UNL     1      -2.144   4.584 -29.802  1.00  0.00     0.164 HD
HETATM    6  H   UNL     1      -3.716   3.330 -30.501  1.00  0.00     0.164 HD
ENDROOT
BRANCH   3   7
HETATM    7  C   UNL     1      -3.823   2.196 -32.261  1.00  0.00     0.162 C 
BRANCH   7   8
HETATM    8  C   UNL     1      -5.378   2.037 -32.154  1.00  0.00     0.241 C 
BRANCH   8   9
HETATM    9  N   UNL     1      -6.124   3.244 -32.766  1.00  0.00    -0.061 N 
HETATM   10  H   UNL     1      -7.076   2.940 -32.982  1.00  0.00     0.280 HD
HETATM   11  C   UNL     1      -5.523   3.784 -34.060  1.00  0.00     0.236 C 
HETATM   12  C   UNL     1      -5.296   5.266 -33.820  1.00  0.00     0.029 C 
HETATM   13  C   UNL     1      -6.288   5.628 -32.743  1.00  0.00     0.029 C 
HETATM   14  C   UNL     1      -6.214   4.433 -31.821  1.00  0.00     0.236 C 
ENDBRANCH   8   9
BRANCH   8  15
HETATM   15  C   UNL     1      -5.738   0.711 -32.833  1.00  0.00     0.007 A 
HETATM   16  C   UNL     1      -7.089   0.317 -32.930  1.00  0.00     0.076 A 
HETATM   17  C   UNL     1      -7.420  -0.896 -33.537  1.00  0.00     0.037 A 
HETATM   18  C   UNL     1      -6.420  -1.738 -34.025  1.00  0.00     0.003 A 
HETATM   19  C   UNL     1      -5.083  -1.377 -33.903  1.00  0.00     0.001 A 
HETATM   20  C   UNL     1      -4.740  -0.165 -33.304  1.00  0.00     0.012 A 
BRANCH  16  21
HETATM   21  O   UNL     1      -8.004   1.194 -32.415  1.00  0.00    -0.355 OA
HETATM   22  C   UNL     1      -9.221   0.647 -31.912  1.00  0.00     0.210 C 
ENDBRANCH  16  21
ENDBRANCH   8  15
ENDBRANCH   7   8
ENDBRANCH   3   7
BRANCH   1  23
HETATM   23  C   UNL     1      -0.945   5.948 -30.883  1.00  0.00     0.086 C 
HETATM   24  C   UNL     1       0.465   5.395 -30.663  1.00  0.00     0.032 C 
BRANCH  23  25
HETATM   25  C   UNL     1      -1.193   7.181 -29.981  1.00  0.00     0.063 C 
BRANCH  25  26
HETATM   26  C   UNL     1      -0.299   7.376 -28.768  1.00  0.00    -0.056 A 
HETATM   27  C   UNL     1      -0.584   6.627 -27.611  1.00  0.00     0.010 A 
HETATM   28  C   UNL     1       0.211   6.737 -26.466  1.00  0.00     0.037 A 
HETATM   29  C   UNL     1       1.292   7.608 -26.470  1.00  0.00     0.065 A 
HETATM   30  C   UNL     1       1.602   8.346 -27.603  1.00  0.00     0.037 A 
HETATM   31  C   UNL     1       0.824   8.214 -28.756  1.00  0.00     0.010 A 
BRANCH  29  32
HETATM   32  O   UNL     1       2.083   7.764 -25.373  1.00  0.00    -0.361 OA
HETATM   33  H   UNL     1       1.546   8.126 -24.648  1.00  0.00     0.217 HD
ENDBRANCH  29  32
ENDBRANCH  25  26
ENDBRANCH  23  25
ENDBRANCH   1  23
TORSDOF 9
ENDMDL
MODEL 4
REMARK VINA RESULT:      -8.4      6.010      9.110
REMARK  9 active torsions:
REMARK  status: ('A' for Active; 'I' for Inactive)
REMARK    1  A    between atoms: C_2  and  N_3 
REMARK    2  A    between atoms: C_2  and  C_23 
REMARK       I    between atoms: N_3  and  C_4 
REMARK       I    between atoms: C_4  and  N_5 
REMARK    3  A    between atoms: N_5  and  C_6 
REMARK    4  A    between atoms: C_6  and  C_7 
REMARK    5  A    between atoms: C_7  and  N_8 
REMARK    6  A    between atoms: C_7  and  C_14 
REMARK    7  A    between atoms: C_15  and  O_16 
REMARK    8  A    between atoms: C_23  and  C_24 
REMARK    9  A    between atoms: C_27  and  O_28 
ROOT
HETATM    1  N   UNL     1      -7.670   1.413 -33.038  1.00  0.00    -0.339 N 
HETATM    2  C   UNL     1      -8.924   1.568 -33.549  1.00  0.00     0.316 C 
HETATM    3  N   UNL     1      -9.340   2.877 -33.474  1.00  0.00    -0.341 N 
HETATM    4  O   UNL     1      -9.642   0.666 -33.951  1.00  0.00    -0.248 OA
HETATM    5  H   UNL     1      -7.269   2.204 -32.559  1.00  0.00     0.164 HD
HETATM    6  H   UNL     1      -8.575   3.530 -33.593  1.00  0.00     0.164 HD
ENDROOT
BRANCH   3   7
HETATM    7  C   UNL     1     -10.586   3.264 -34.122  1.00  0.00     0.162 C 
BRANCH   7   8
HETATM    8  C   UNL     1     -11.775   3.734 -33.216  1.00  0.00     0.241 C 
BRANCH   8   9
HETATM    9  N   UNL     1     -12.177   5.198 -33.508  1.00  0.00    -0.061 N 
HETATM   10  H   UNL     1     -12.841   5.485 -32.785  1.00  0.00     0.280 HD
HETATM   11  C   UNL     1     -12.858   5.423 -34.855  1.00  0.00     0.236 C 
HETATM   12  C   UNL     1     -12.055   6.513 -35.543  1.00  0.00     0.029 C 
HETATM   13  C   UNL     1     -11.405   7.270 -34.413  1.00  0.00     0.029 C 
HETATM   14  C   UNL     1     -11.000   6.160 -33.471  1.00  0.00     0.236 C 
ENDBRANCH   8   9
BRANCH   8  15
HETATM   15  C   UNL     1     -12.925   2.747 -33.442  1.00  0.00     0.007 A 
HETATM   16  C   UNL     1     -14.040   2.760 -32.579  1.00  0.00     0.076 A 
HETATM   17  C   UNL     1     -15.085   1.854 -32.774  1.00  0.00     0.037 A 
HETATM   18  C   UNL     1     -15.021   0.914 -33.803  1.00  0.00     0.003 A 
HETATM   19  C   UNL     1     -13.910   0.867 -34.638  1.00  0.00     0.001 A 
HETATM   20  C   UNL     1     -12.864   1.771 -34.457  1.00  0.00     0.012 A 
BRANCH  16  21
HETATM   21  O   UNL     1     -14.016   3.705 -31.589  1.00  0.00    -0.355 OA
HETATM   22  C   UNL     1     -15.082   4.653 -31.566  1.00  0.00     0.210 C 
ENDBRANCH  16  21
ENDBRANCH   8  15
ENDBRANCH   7   8
ENDBRANCH   3   7
BRANCH   1  23
HETATM   23  C   UNL     1      -7.050   0.112 -32.771  1.00  0.00     0.086 C 
HETATM   24  C   UNL     1      -6.525   0.021 -31.336  1.00  0.00     0.032 C 
BRANCH  23  25
HETATM   25  C   UNL     1      -5.940  -0.263 -33.782  1.00  0.00     0.063 C 
BRANCH  25  26
HETATM   26  C   UNL     1      -5.711  -1.734 -34.086  1.00  0.00    -0.056 A 
HETATM   27  C   UNL     1      -4.439  -2.273 -33.820  1.00  0.00     0.010 A 
HETATM   28  C   UNL     1      -4.164  -3.624 -34.052  1.00  0.00     0.037 A 
HETATM   29  C   UNL     1      -5.161  -4.442 -34.564  1.00  0.00     0.065 A 
HETATM   30  C   UNL     1      -6.428  -3.938 -34.820  1.00  0.00     0.037 A 
HETATM   31  C   UNL     1      -6.710  -2.595 -34.562  1.00  0.00     0.010 A 
BRANCH  29  32
HETATM   32  O   UNL     1      -4.936  -5.759 -34.825  1.00  0.00    -0.361 OA
HETATM   33  H   UNL     1      -5.781  -6.184 -35.051  1.00  0.00     0.217 HD
ENDBRANCH  29  32
ENDBRANCH  25  26
ENDBRANCH  23  25
ENDBRANCH   1  23
TORSDOF 9
ENDMDL
MODEL 5
REMARK VINA RESULT:      -8.3      2.254      3.640
REMARK  9 active torsions:
REMARK  status: ('A' for Active; 'I' for Inactive)
REMARK    1  A    between atoms: C_2  and  N_3 
REMARK    2  A    between atoms: C_2  and  C_23 
REMARK       I    between atoms: N_3  and  C_4 
REMARK       I    between atoms: C_4  and  N_5 
REMARK    3  A    between atoms: N_5  and  C_6 
REMARK    4  A    between atoms: C_6  and  C_7 
REMARK    5  A    between atoms: C_7  and  N_8 
REMARK    6  A    between atoms: C_7  and  C_14 
REMARK    7  A    between atoms: C_15  and  O_16 
REMARK    8  A    between atoms: C_23  and  C_24 
REMARK    9  A    between atoms: C_27  and  O_28 
ROOT
HETATM    1  N   UNL     1      -6.221   1.396 -33.947  1.00  0.00    -0.339 N 
HETATM    2  C   UNL     1      -6.670   2.670 -33.764  1.00  0.00     0.316 C 
HETATM    3  N   UNL     1      -5.642   3.581 -33.830  1.00  0.00    -0.341 N 
HETATM    4  O   UNL     1      -7.818   2.984 -33.491  1.00  0.00    -0.248 OA
HETATM    5  H   UNL     1      -5.222   1.261 -33.966  1.00  0.00     0.164 HD
HETATM    6  H   UNL     1      -4.925   3.303 -34.489  1.00  0.00     0.164 HD
ENDROOT
BRANCH   3   7
HETATM    7  C   UNL     1      -5.953   5.004 -33.824  1.00  0.00     0.162 C 
BRANCH   7   8
HETATM    8  C   UNL     1      -5.113   5.941 -32.890  1.00  0.00     0.241 C 
BRANCH   8   9
HETATM    9  N   UNL     1      -5.191   5.497 -31.411  1.00  0.00    -0.061 N 
HETATM   10  H   UNL     1      -4.871   6.281 -30.838  1.00  0.00     0.280 HD
HETATM   11  C   UNL     1      -4.318   4.298 -31.052  1.00  0.00     0.236 C 
HETATM   12  C   UNL     1      -5.252   3.290 -30.406  1.00  0.00     0.029 C 
HETATM   13  C   UNL     1      -6.387   4.123 -29.866  1.00  0.00     0.029 C 
HETATM   14  C   UNL     1      -6.599   5.135 -30.968  1.00  0.00     0.236 C 
ENDBRANCH   8   9
BRANCH   8  15
HETATM   15  C   UNL     1      -3.681   5.945 -33.434  1.00  0.00     0.007 A 
HETATM   16  C   UNL     1      -2.748   6.884 -32.946  1.00  0.00     0.076 A 
HETATM   17  C   UNL     1      -1.445   6.899 -33.447  1.00  0.00     0.037 A 
HETATM   18  C   UNL     1      -1.065   6.008 -34.452  1.00  0.00     0.003 A 
HETATM   19  C   UNL     1      -1.986   5.103 -34.968  1.00  0.00     0.001 A 
HETATM   20  C   UNL     1      -3.288   5.074 -34.470  1.00  0.00     0.012 A 
BRANCH  16  21
HETATM   21  O   UNL     1      -3.207   7.727 -31.971  1.00  0.00    -0.355 OA
HETATM   22  C   UNL     1      -2.260   8.611 -31.374  1.00  0.00     0.210 C 
ENDBRANCH  16  21
ENDBRANCH   8  15
ENDBRANCH   7   8
ENDBRANCH   3   7
BRANCH   1  23
HETATM   23  C   UNL     1      -7.032   0.200 -33.707  1.00  0.00     0.086 C 
HETATM   24  C   UNL     1      -6.632  -0.501 -32.406  1.00  0.00     0.032 C 
BRANCH  23  25
HETATM   25  C   UNL     1      -7.024  -0.800 -34.888  1.00  0.00     0.063 C 
BRANCH  25  26
HETATM   26  C   UNL     1      -6.283  -2.115 -34.712  1.00  0.00    -0.056 A 
HETATM   27  C   UNL     1      -7.019  -3.308 -34.838  1.00  0.00     0.010 A 
HETATM   28  C   UNL     1      -6.400  -4.555 -34.713  1.00  0.00     0.037 A 
HETATM   29  C   UNL     1      -5.038  -4.614 -34.449  1.00  0.00     0.065 A 
HETATM   30  C   UNL     1      -4.288  -3.453 -34.335  1.00  0.00     0.037 A 
HETATM   31  C   UNL     1      -4.903  -2.208 -34.488  1.00  0.00     0.010 A 
BRANCH  29  32
HETATM   32  O   UNL     1      -4.394  -5.804 -34.299  1.00  0.00    -0.361 OA
HETATM   33  H   UNL     1      -4.237  -5.959 -33.352  1.00  0.00     0.217 HD
ENDBRANCH  29  32
ENDBRANCH  25  26
ENDBRANCH  23  25
ENDBRANCH   1  23
TORSDOF 9
ENDMDL
MODEL 6
REMARK VINA RESULT:      -8.3      2.550      8.821
REMARK  9 active torsions:
REMARK  status: ('A' for Active; 'I' for Inactive)
REMARK    1  A    between atoms: C_2  and  N_3 
REMARK    2  A    between atoms: C_2  and  C_23 
REMARK       I    between atoms: N_3  and  C_4 
REMARK       I    between atoms: C_4  and  N_5 
REMARK    3  A    between atoms: N_5  and  C_6 
REMARK    4  A    between atoms: C_6  and  C_7 
REMARK    5  A    between atoms: C_7  and  N_8 
REMARK    6  A    between atoms: C_7  and  C_14 
REMARK    7  A    between atoms: C_15  and  O_16 
REMARK    8  A    between atoms: C_23  and  C_24 
REMARK    9  A    between atoms: C_27  and  O_28 
ROOT
HETATM    1  N   UNL     1      -3.082   5.631 -33.424  1.00  0.00    -0.339 N 
HETATM    2  C   UNL     1      -4.146   5.052 -34.048  1.00  0.00     0.316 C 
HETATM    3  N   UNL     1      -4.809   4.184 -33.210  1.00  0.00    -0.341 N 
HETATM    4  O   UNL     1      -4.446   5.199 -35.222  1.00  0.00    -0.248 OA
HETATM    5  H   UNL     1      -2.830   5.270 -32.517  1.00  0.00     0.164 HD
HETATM    6  H   UNL     1      -4.794   4.495 -32.247  1.00  0.00     0.164 HD
ENDROOT
BRANCH   3   7
HETATM    7  C   UNL     1      -6.069   3.600 -33.648  1.00  0.00     0.162 C 
BRANCH   7   8
HETATM    8  C   UNL     1      -6.806   2.618 -32.674  1.00  0.00     0.241 C 
BRANCH   8   9
HETATM    9  N   UNL     1      -8.216   3.130 -32.298  1.00  0.00    -0.061 N 
HETATM   10  H   UNL     1      -8.803   3.054 -33.133  1.00  0.00     0.280 HD
HETATM   11  C   UNL     1      -8.272   4.586 -31.846  1.00  0.00     0.236 C 
HETATM   12  C   UNL     1      -8.965   4.569 -30.494  1.00  0.00     0.029 C 
HETATM   13  C   UNL     1      -9.795   3.310 -30.515  1.00  0.00     0.029 C 
HETATM   14  C   UNL     1      -8.870   2.323 -31.188  1.00  0.00     0.236 C 
ENDBRANCH   8   9
BRANCH   8  15
HETATM   15  C   UNL     1      -6.836   1.248 -33.360  1.00  0.00     0.007 A 
HETATM   16  C   UNL     1      -6.276   0.127 -32.713  1.00  0.00     0.076 A 
HETATM   17  C   UNL     1      -6.291  -1.121 -33.339  1.00  0.00     0.037 A 
HETATM   18  C   UNL     1      -6.833  -1.263 -34.617  1.00  0.00     0.003 A 
HETATM   19  C   UNL     1      -7.356  -0.158 -35.280  1.00  0.00     0.001 A 
HETATM   20  C   UNL     1      -7.352   1.092 -34.662  1.00  0.00     0.012 A 
BRANCH  16  21
HETATM   21  O   UNL     1      -5.755   0.357 -31.468  1.00  0.00    -0.355 OA
HETATM   22  C   UNL     1      -4.386   0.015 -31.261  1.00  0.00     0.210 C 
ENDBRANCH  16  21
ENDBRANCH   8  15
ENDBRANCH   7   8
ENDBRANCH   3   7
BRANCH   1  23
HETATM   23  C   UNL     1      -2.056   6.416 -34.117  1.00  0.00     0.086 C 
HETATM   24  C   UNL     1      -1.088   5.521 -34.892  1.00  0.00     0.032 C 
BRANCH  23  25
HETATM   25  C   UNL     1      -1.281   7.378 -33.184  1.00  0.00     0.063 C 
BRANCH  25  26
HETATM   26  C   UNL     1      -0.907   6.887 -31.795  1.00  0.00    -0.056 A 
HETATM   27  C   UNL     1      -1.553   7.474 -30.692  1.00  0.00     0.010 A 
HETATM   28  C   UNL     1      -1.277   7.055 -29.387  1.00  0.00     0.037 A 
HETATM   29  C   UNL     1      -0.342   6.050 -29.179  1.00  0.00     0.065 A 
HETATM   30  C   UNL     1       0.298   5.445 -30.251  1.00  0.00     0.037 A 
HETATM   31  C   UNL     1       0.001   5.846 -31.556  1.00  0.00     0.010 A 
BRANCH  29  32
HETATM   32  O   UNL     1      -0.025   5.622 -27.926  1.00  0.00    -0.361 OA
HETATM   33  H   UNL     1      -0.060   4.651 -27.908  1.00  0.00     0.217 HD
ENDBRANCH  29  32
ENDBRANCH  25  26
ENDBRANCH  23  25
ENDBRANCH   1  23
TORSDOF 9
ENDMDL
MODEL 7
REMARK VINA RESULT:      -8.2      4.604      8.781
REMARK  9 active torsions:
REMARK  status: ('A' for Active; 'I' for Inactive)
REMARK    1  A    between atoms: C_2  and  N_3 
REMARK    2  A    between atoms: C_2  and  C_23 
REMARK       I    between atoms: N_3  and  C_4 
REMARK       I    between atoms: C_4  and  N_5 
REMARK    3  A    between atoms: N_5  and  C_6 
REMARK    4  A    between atoms: C_6  and  C_7 
REMARK    5  A    between atoms: C_7  and  N_8 
REMARK    6  A    between atoms: C_7  and  C_14 
REMARK    7  A    between atoms: C_15  and  O_16 
REMARK    8  A    between atoms: C_23  and  C_24 
REMARK    9  A    between atoms: C_27  and  O_28 
ROOT
HETATM    1  N   UNL     1      -9.429   2.692 -34.725  1.00  0.00    -0.339 N 
HETATM    2  C   UNL     1      -9.200   1.451 -34.210  1.00  0.00     0.316 C 
HETATM    3  N   UNL     1      -8.213   0.791 -34.906  1.00  0.00    -0.341 N 
HETATM    4  O   UNL     1      -9.833   0.931 -33.304  1.00  0.00    -0.248 OA
HETATM    5  H   UNL     1      -8.975   2.918 -35.596  1.00  0.00     0.164 HD
HETATM    6  H   UNL     1      -7.500   1.423 -35.250  1.00  0.00     0.164 HD
ENDROOT
BRANCH   3   7
HETATM    7  C   UNL     1      -7.716  -0.480 -34.399  1.00  0.00     0.162 C 
BRANCH   7   8
HETATM    8  C   UNL     1      -6.180  -0.617 -34.123  1.00  0.00     0.241 C 
BRANCH   8   9
HETATM    9  N   UNL     1      -5.789  -0.036 -32.745  1.00  0.00    -0.061 N 
HETATM   10  H   UNL     1      -4.951  -0.530 -32.430  1.00  0.00     0.280 HD
HETATM   11  C   UNL     1      -6.842  -0.202 -31.654  1.00  0.00     0.236 C 
HETATM   12  C   UNL     1      -7.086   1.191 -31.102  1.00  0.00     0.029 C 
HETATM   13  C   UNL     1      -5.812   1.941 -31.404  1.00  0.00     0.029 C 
HETATM   14  C   UNL     1      -5.468   1.450 -32.791  1.00  0.00     0.236 C 
ENDBRANCH   8   9
BRANCH   8  15
HETATM   15  C   UNL     1      -5.832  -2.102 -34.261  1.00  0.00     0.007 A 
HETATM   16  C   UNL     1      -4.539  -2.554 -33.924  1.00  0.00     0.076 A 
HETATM   17  C   UNL     1      -4.214  -3.906 -34.059  1.00  0.00     0.037 A 
HETATM   18  C   UNL     1      -5.153  -4.811 -34.555  1.00  0.00     0.003 A 
HETATM   19  C   UNL     1      -6.419  -4.371 -34.925  1.00  0.00     0.001 A 
HETATM   20  C   UNL     1      -6.757  -3.025 -34.788  1.00  0.00     0.012 A 
BRANCH  16  21
HETATM   21  O   UNL     1      -3.677  -1.599 -33.459  1.00  0.00    -0.355 OA
HETATM   22  C   UNL     1      -3.076  -1.826 -32.185  1.00  0.00     0.210 C 
ENDBRANCH  16  21
ENDBRANCH   8  15
ENDBRANCH   7   8
ENDBRANCH   3   7
BRANCH   1  23
HETATM   23  C   UNL     1     -10.567   3.536 -34.349  1.00  0.00     0.086 C 
HETATM   24  C   UNL     1     -11.486   3.807 -35.542  1.00  0.00     0.032 C 
BRANCH  23  25
HETATM   25  C   UNL     1     -10.152   4.863 -33.669  1.00  0.00     0.063 C 
BRANCH  25  26
HETATM   26  C   UNL     1      -9.357   4.791 -32.376  1.00  0.00    -0.056 A 
HETATM   27  C   UNL     1      -9.906   4.063 -31.304  1.00  0.00     0.010 A 
HETATM   28  C   UNL     1      -9.220   3.933 -30.093  1.00  0.00     0.037 A 
HETATM   29  C   UNL     1      -7.981   4.542 -29.945  1.00  0.00     0.065 A 
HETATM   30  C   UNL     1      -7.412   5.252 -30.992  1.00  0.00     0.037 A 
HETATM   31  C   UNL     1      -8.086   5.358 -32.211  1.00  0.00     0.010 A 
BRANCH  29  32
HETATM   32  O   UNL     1      -7.284   4.460 -28.778  1.00  0.00    -0.361 OA
HETATM   33  H   UNL     1      -6.573   5.123 -28.791  1.00  0.00     0.217 HD
ENDBRANCH  29  32
ENDBRANCH  25  26
ENDBRANCH  23  25
ENDBRANCH   1  23
TORSDOF 9
ENDMDL
MODEL 8
REMARK VINA RESULT:      -8.2      2.143      3.278
REMARK  9 active torsions:
REMARK  status: ('A' for Active; 'I' for Inactive)
REMARK    1  A    between atoms: C_2  and  N_3 
REMARK    2  A    between atoms: C_2  and  C_23 
REMARK       I    between atoms: N_3  and  C_4 
REMARK       I    between atoms: C_4  and  N_5 
REMARK    3  A    between atoms: N_5  and  C_6 
REMARK    4  A    between atoms: C_6  and  C_7 
REMARK    5  A    between atoms: C_7  and  N_8 
REMARK    6  A    between atoms: C_7  and  C_14 
REMARK    7  A    between atoms: C_15  and  O_16 
REMARK    8  A    between atoms: C_23  and  C_24 
REMARK    9  A    between atoms: C_27  and  O_28 
ROOT
HETATM    1  N   UNL     1      -5.508   1.262 -33.057  1.00  0.00    -0.339 N 
HETATM    2  C   UNL     1      -5.515   2.217 -32.085  1.00  0.00     0.316 C 
HETATM    3  N   UNL     1      -4.274   2.791 -31.935  1.00  0.00    -0.341 N 
HETATM    4  O   UNL     1      -6.463   2.489 -31.365  1.00  0.00    -0.248 OA
HETATM    5  H   UNL     1      -4.612   0.999 -33.437  1.00  0.00     0.164 HD
HETATM    6  H   UNL     1      -3.772   2.853 -32.813  1.00  0.00     0.164 HD
ENDROOT
BRANCH   3   7
HETATM    7  C   UNL     1      -4.127   3.946 -31.060  1.00  0.00     0.162 C 
BRANCH   7   8
HETATM    8  C   UNL     1      -4.623   5.338 -31.584  1.00  0.00     0.241 C 
BRANCH   8   9
HETATM    9  N   UNL     1      -5.526   6.052 -30.552  1.00  0.00    -0.061 N 
HETATM   10  H   UNL     1      -5.205   7.021 -30.482  1.00  0.00     0.280 HD
HETATM   11  C   UNL     1      -5.484   5.465 -29.145  1.00  0.00     0.236 C 
HETATM   12  C   UNL     1      -6.929   5.175 -28.779  1.00  0.00     0.029 C 
HETATM   13  C   UNL     1      -7.731   6.123 -29.635  1.00  0.00     0.029 C 
HETATM   14  C   UNL     1      -6.993   6.071 -30.953  1.00  0.00     0.236 C 
ENDBRANCH   8   9
BRANCH   8  15
HETATM   15  C   UNL     1      -3.374   6.150 -31.943  1.00  0.00     0.007 A 
HETATM   16  C   UNL     1      -3.100   6.456 -33.292  1.00  0.00     0.076 A 
HETATM   17  C   UNL     1      -1.957   7.186 -33.624  1.00  0.00     0.037 A 
HETATM   18  C   UNL     1      -1.066   7.592 -32.631  1.00  0.00     0.003 A 
HETATM   19  C   UNL     1      -1.306   7.266 -31.301  1.00  0.00     0.001 A 
HETATM   20  C   UNL     1      -2.448   6.542 -30.956  1.00  0.00     0.012 A 
BRANCH  16  21
HETATM   21  O   UNL     1      -4.019   6.009 -34.202  1.00  0.00    -0.355 OA
HETATM   22  C   UNL     1      -3.537   5.195 -35.269  1.00  0.00     0.210 C 
ENDBRANCH  16  21
ENDBRANCH   8  15
ENDBRANCH   7   8
ENDBRANCH   3   7
BRANCH   1  23
HETATM   23  C   UNL     1      -6.610   0.323 -33.290  1.00  0.00     0.086 C 
HETATM   24  C   UNL     1      -6.760  -0.667 -32.132  1.00  0.00     0.032 C 
BRANCH  23  25
HETATM   25  C   UNL     1      -6.507  -0.428 -34.639  1.00  0.00     0.063 C 
BRANCH  25  26
HETATM   26  C   UNL     1      -6.052  -1.878 -34.622  1.00  0.00    -0.056 A 
HETATM   27  C   UNL     1      -4.706  -2.143 -34.311  1.00  0.00     0.010 A 
HETATM   28  C   UNL     1      -4.223  -3.454 -34.252  1.00  0.00     0.037 A 
HETATM   29  C   UNL     1      -5.086  -4.508 -34.517  1.00  0.00     0.065 A 
HETATM   30  C   UNL     1      -6.421  -4.274 -34.811  1.00  0.00     0.037 A 
HETATM   31  C   UNL     1      -6.909  -2.965 -34.842  1.00  0.00     0.010 A 
BRANCH  29  32
HETATM   32  O   UNL     1      -4.658  -5.801 -34.492  1.00  0.00    -0.361 OA
HETATM   33  H   UNL     1      -4.997  -6.228 -33.687  1.00  0.00     0.217 HD
ENDBRANCH  29  32
ENDBRANCH  25  26
ENDBRANCH  23  25
ENDBRANCH   1  23
TORSDOF 9
ENDMDL
MODEL 9
REMARK VINA RESULT:      -8.2      5.746      8.406
REMARK  9 active torsions:
REMARK  status: ('A' for Active; 'I' for Inactive)
REMARK    1  A    between atoms: C_2  and  N_3 
REMARK    2  A    between atoms: C_2  and  C_23 
REMARK       I    between atoms: N_3  and  C_4 
REMARK       I    between atoms: C_4  and  N_5 
REMARK    3  A    between atoms: N_5  and  C_6 
REMARK    4  A    between atoms: C_6  and  C_7 
REMARK    5  A    between atoms: C_7  and  N_8 
REMARK    6  A    between atoms: C_7  and  C_14 
REMARK    7  A    between atoms: C_15  and  O_16 
REMARK    8  A    between atoms: C_23  and  C_24 
REMARK    9  A    between atoms: C_27  and  O_28 
ROOT
HETATM    1  N   UNL     1      -7.275   1.325 -32.263  1.00  0.00    -0.339 N 
HETATM    2  C   UNL     1      -8.544   1.519 -31.806  1.00  0.00     0.316 C 
HETATM    3  N   UNL     1      -8.815   2.856 -31.621  1.00  0.00    -0.341 N 
HETATM    4  O   UNL     1      -9.333   0.636 -31.507  1.00  0.00    -0.248 OA
HETATM    5  H   UNL     1      -6.665   2.128 -32.277  1.00  0.00     0.164 HD
HETATM    6  H   UNL     1      -8.342   3.439 -32.302  1.00  0.00     0.164 HD
ENDROOT
BRANCH   3   7
HETATM    7  C   UNL     1     -10.173   3.267 -31.297  1.00  0.00     0.162 C 
BRANCH   7   8
HETATM    8  C   UNL     1     -11.172   3.517 -32.478  1.00  0.00     0.241 C 
BRANCH   8   9
HETATM    9  N   UNL     1     -11.719   2.193 -33.059  1.00  0.00    -0.061 N 
HETATM   10  H   UNL     1     -11.461   1.444 -32.411  1.00  0.00     0.280 HD
HETATM   11  C   UNL     1     -11.164   1.811 -34.427  1.00  0.00     0.236 C 
HETATM   12  C   UNL     1     -12.376   1.587 -35.314  1.00  0.00     0.029 C 
HETATM   13  C   UNL     1     -13.483   1.232 -34.352  1.00  0.00     0.029 C 
HETATM   14  C   UNL     1     -13.233   2.184 -33.206  1.00  0.00     0.236 C 
ENDBRANCH   8   9
BRANCH   8  15
HETATM   15  C   UNL     1     -12.278   4.432 -31.941  1.00  0.00     0.007 A 
HETATM   16  C   UNL     1     -12.758   5.492 -32.737  1.00  0.00     0.076 A 
HETATM   17  C   UNL     1     -13.758   6.336 -32.247  1.00  0.00     0.037 A 
HETATM   18  C   UNL     1     -14.267   6.153 -30.960  1.00  0.00     0.003 A 
HETATM   19  C   UNL     1     -13.776   5.133 -30.153  1.00  0.00     0.001 A 
HETATM   20  C   UNL     1     -12.782   4.281 -30.634  1.00  0.00     0.012 A 
BRANCH  16  21
HETATM   21  O   UNL     1     -12.196   5.607 -33.979  1.00  0.00    -0.355 OA
HETATM   22  C   UNL     1     -13.050   5.403 -35.103  1.00  0.00     0.210 C 
ENDBRANCH  16  21
ENDBRANCH   8  15
ENDBRANCH   7   8
ENDBRANCH   3   7
BRANCH   1  23
HETATM   23  C   UNL     1      -6.623   0.014 -32.335  1.00  0.00     0.086 C 
HETATM   24  C   UNL     1      -5.510  -0.120 -31.294  1.00  0.00     0.032 C 
BRANCH  23  25
HETATM   25  C   UNL     1      -6.093  -0.334 -33.747  1.00  0.00     0.063 C 
BRANCH  25  26
HETATM   26  C   UNL     1      -5.826  -1.794 -34.074  1.00  0.00    -0.056 A 
HETATM   27  C   UNL     1      -4.518  -2.282 -33.895  1.00  0.00     0.010 A 
HETATM   28  C   UNL     1      -4.205  -3.619 -34.153  1.00  0.00     0.037 A 
HETATM   29  C   UNL     1      -5.200  -4.476 -34.602  1.00  0.00     0.065 A 
HETATM   30  C   UNL     1      -6.500  -4.023 -34.773  1.00  0.00     0.037 A 
HETATM   31  C   UNL     1      -6.818  -2.693 -34.488  1.00  0.00     0.010 A 
BRANCH  29  32
HETATM   32  O   UNL     1      -4.939  -5.782 -34.886  1.00  0.00    -0.361 OA
HETATM   33  H   UNL     1      -4.055  -5.846 -35.286  1.00  0.00     0.217 HD
ENDBRANCH  29  32
ENDBRANCH  25  26
ENDBRANCH  23  25
ENDBRANCH   1  23
TORSDOF 9
ENDMDL
MODEL 10
REMARK VINA RESULT:      -8.0      1.822      2.527
REMARK  9 active torsions:
REMARK  status: ('A' for Active; 'I' for Inactive)
REMARK    1  A    between atoms: C_2  and  N_3 
REMARK    2  A    between atoms: C_2  and  C_23 
REMARK       I    between atoms: N_3  and  C_4 
REMARK       I    between atoms: C_4  and  N_5 
REMARK    3  A    between atoms: N_5  and  C_6 
REMARK    4  A    between atoms: C_6  and  C_7 
REMARK    5  A    between atoms: C_7  and  N_8 
REMARK    6  A    between atoms: C_7  and  C_14 
REMARK    7  A    between atoms: C_15  and  O_16 
REMARK    8  A    between atoms: C_23  and  C_24 
REMARK    9  A    between atoms: C_27  and  O_28 
ROOT
HETATM    1  N   UNL     1      -5.410   3.455 -30.183  1.00  0.00    -0.339 N 
HETATM    2  C   UNL     1      -4.792   4.450 -30.879  1.00  0.00     0.316 C 
HETATM    3  N   UNL     1      -4.292   5.418 -30.038  1.00  0.00    -0.341 N 
HETATM    4  O   UNL     1      -4.746   4.542 -32.096  1.00  0.00    -0.248 OA
HETATM    5  H   UNL     1      -5.549   3.604 -29.195  1.00  0.00     0.164 HD
HETATM    6  H   UNL     1      -3.971   5.031 -29.158  1.00  0.00     0.164 HD
ENDROOT
BRANCH   3   7
HETATM    7  C   UNL     1      -3.454   6.473 -30.589  1.00  0.00     0.162 C 
BRANCH   7   8
HETATM    8  C   UNL     1      -1.924   6.184 -30.769  1.00  0.00     0.241 C 
BRANCH   8   9
HETATM    9  N   UNL     1      -1.476   6.358 -32.239  1.00  0.00    -0.061 N 
HETATM   10  H   UNL     1      -0.613   6.908 -32.233  1.00  0.00     0.280 HD
HETATM   11  C   UNL     1      -2.469   7.096 -33.132  1.00  0.00     0.236 C 
HETATM   12  C   UNL     1      -2.712   6.180 -34.318  1.00  0.00     0.029 C 
HETATM   13  C   UNL     1      -1.471   5.326 -34.393  1.00  0.00     0.029 C 
HETATM   14  C   UNL     1      -1.188   5.039 -32.937  1.00  0.00     0.236 C 
ENDBRANCH   8   9
BRANCH   8  15
HETATM   15  C   UNL     1      -1.178   7.114 -29.807  1.00  0.00     0.007 A 
HETATM   16  C   UNL     1       0.161   6.837 -29.461  1.00  0.00     0.076 A 
HETATM   17  C   UNL     1       0.842   7.675 -28.575  1.00  0.00     0.037 A 
HETATM   18  C   UNL     1       0.196   8.772 -28.005  1.00  0.00     0.003 A 
HETATM   19  C   UNL     1      -1.135   9.035 -28.310  1.00  0.00     0.001 A 
HETATM   20  C   UNL     1      -1.823   8.209 -29.198  1.00  0.00     0.012 A 
BRANCH  16  21
HETATM   21  O   UNL     1       0.714   5.734 -30.056  1.00  0.00    -0.355 OA
HETATM   22  C   UNL     1       1.161   4.686 -29.198  1.00  0.00     0.210 C 
ENDBRANCH  16  21
ENDBRANCH   8  15
ENDBRANCH   7   8
ENDBRANCH   3   7
BRANCH   1  23
HETATM   23  C   UNL     1      -6.233   2.412 -30.803  1.00  0.00     0.086 C 
HETATM   24  C   UNL     1      -7.722   2.629 -30.525  1.00  0.00     0.032 C 
BRANCH  23  25
HETATM   25  C   UNL     1      -5.809   0.976 -30.411  1.00  0.00     0.063 C 
BRANCH  25  26
HETATM   26  C   UNL     1      -5.449   0.004 -31.522  1.00  0.00    -0.056 A 
HETATM   27  C   UNL     1      -4.149  -0.534 -31.533  1.00  0.00     0.010 A 
HETATM   28  C   UNL     1      -3.756  -1.453 -32.510  1.00  0.00     0.037 A 
HETATM   29  C   UNL     1      -4.662  -1.831 -33.491  1.00  0.00     0.065 A 
HETATM   30  C   UNL     1      -5.954  -1.326 -33.494  1.00  0.00     0.037 A 
HETATM   31  C   UNL     1      -6.354  -0.429 -32.500  1.00  0.00     0.010 A 
BRANCH  29  32
HETATM   32  O   UNL     1      -4.319  -2.707 -34.475  1.00  0.00    -0.361 OA
HETATM   33  H   UNL     1      -3.409  -3.012 -34.321  1.00  0.00     0.217 HD
ENDBRANCH  29  32
ENDBRANCH  25  26
ENDBRANCH  23  25
ENDBRANCH   1  23
TORSDOF 9
ENDMDL
