MODEL 1
REMARK VINA RESULT:     -10.0      0.000      0.000
REMARK  5 active torsions:
REMARK  status: ('A' for Active; 'I' for Inactive)
REMARK    1  A    between atoms: C_3  and  O_4 
REMARK    2  A    between atoms: C_6  and  N_7 
REMARK       I    between atoms: N_7  and  C_8 
REMARK    3  A    between atoms: C_8  and  C_9 
REMARK    4  A    between atoms: C_12  and  C_13 
REMARK    5  A    between atoms: C_18  and  C_19 
ROOT
HETATM    1  C   UNL     1      -9.239   1.872 -32.961  1.00  0.00     0.096 C 
HETATM    2  C   UNL     1      -8.009   1.281 -33.180  1.00  0.00     0.138 C 
HETATM    3  N   UNL     1      -7.070   2.243 -32.880  1.00  0.00    -0.240 N 
HETATM    4  C   UNL     1      -5.634   2.064 -33.020  1.00  0.00     0.221 C 
HETATM    5  C   UNL     1      -5.287   0.570 -33.154  1.00  0.00     0.066 C 
HETATM    6  C   UNL     1      -6.261  -0.115 -34.117  1.00  0.00     0.118 C 
HETATM    7  N   UNL     1      -7.633   0.045 -33.617  1.00  0.00    -0.365 N 
HETATM    8  N   UNL     1      -7.602   3.453 -32.653  1.00  0.00    -0.181 NA
HETATM    9  C   UNL     1      -8.918   3.220 -32.669  1.00  0.00     0.160 C 
HETATM   10  H   UNL     1      -8.300  -0.470 -34.198  1.00  0.00     0.161 HD
ENDROOT
BRANCH   1  11
HETATM   11  C   UNL     1     -10.574   1.303 -33.049  1.00  0.00     0.261 C 
HETATM   12  N   UNL     1     -11.573   2.257 -33.091  1.00  0.00    -0.323 N 
HETATM   13  H   UNL     1     -11.252   3.216 -33.172  1.00  0.00     0.169 HD
HETATM   14  O   UNL     1     -10.728   0.089 -33.116  1.00  0.00    -0.267 OA
BRANCH  12  15
HETATM   15  C   UNL     1     -12.966   2.051 -33.124  1.00  0.00     0.037 A 
HETATM   16  C   UNL     1     -13.618   1.270 -34.081  1.00  0.00     0.066 A 
HETATM   17  C   UNL     1     -15.002   1.112 -34.027  1.00  0.00     0.067 A 
HETATM   18  C   UNL     1     -15.758   1.723 -33.032  1.00  0.00     0.036 A 
HETATM   19  C   UNL     1     -15.115   2.501 -32.072  1.00  0.00     0.005 A 
HETATM   20  C   UNL     1     -13.726   2.661 -32.116  1.00  0.00     0.029 A 
BRANCH  17  21
HETATM   21  O   UNL     1     -15.590   0.334 -34.981  1.00  0.00    -0.361 OA
HETATM   22  H   UNL     1     -15.831  -0.520 -34.587  1.00  0.00     0.217 HD
ENDBRANCH  17  21
ENDBRANCH  12  15
ENDBRANCH   1  11
BRANCH   4  23
HETATM   23  C   UNL     1      -4.875   2.660 -31.854  1.00  0.00     0.409 C 
HETATM   24  F   UNL     1      -5.487   2.431 -30.671  1.00  0.00    -0.169 F 
HETATM   25  F   UNL     1      -3.646   2.081 -31.773  1.00  0.00    -0.169 F 
HETATM   26  F   UNL     1      -4.655   3.985 -31.971  1.00  0.00    -0.169 F 
ENDBRANCH   4  23
BRANCH   6  27
HETATM   27  C   UNL     1      -5.944  -1.589 -34.279  1.00  0.00    -0.035 A 
HETATM   28  C   UNL     1      -4.639  -2.083 -34.088  1.00  0.00     0.012 A 
HETATM   29  C   UNL     1      -4.361  -3.440 -34.262  1.00  0.00     0.043 A 
HETATM   30  C   UNL     1      -5.382  -4.307 -34.629  1.00  0.00     0.116 A 
HETATM   31  F   UNL     1      -5.114  -5.609 -34.798  1.00  0.00    -0.206 F 
HETATM   32  C   UNL     1      -6.677  -3.845 -34.824  1.00  0.00     0.043 A 
HETATM   33  C   UNL     1      -6.958  -2.489 -34.650  1.00  0.00     0.012 A 
ENDBRANCH   6  27
TORSDOF 5
ENDMDL
MODEL 2
REMARK VINA RESULT:      -9.8      4.152      7.617
REMARK  5 active torsions:
REMARK  status: ('A' for Active; 'I' for Inactive)
REMARK    1  A    between atoms: C_3  and  O_4 
REMARK    2  A    between atoms: C_6  and  N_7 
REMARK       I    between atoms: N_7  and  C_8 
REMARK    3  A    between atoms: C_8  and  C_9 
REMARK    4  A    between atoms: C_12  and  C_13 
REMARK    5  A    between atoms: C_18  and  C_19 
ROOT
HETATM    1  C   UNL     1      -6.613   3.898 -33.383  1.00  0.00     0.096 C 
HETATM    2  C   UNL     1      -6.907   2.552 -33.276  1.00  0.00     0.138 C 
HETATM    3  N   UNL     1      -8.249   2.483 -32.970  1.00  0.00    -0.240 N 
HETATM    4  C   UNL     1      -8.973   1.248 -32.717  1.00  0.00     0.221 C 
HETATM    5  C   UNL     1      -8.166   0.037 -33.220  1.00  0.00     0.066 C 
HETATM    6  C   UNL     1      -6.693   0.179 -32.822  1.00  0.00     0.118 C 
HETATM    7  N   UNL     1      -6.153   1.421 -33.392  1.00  0.00    -0.365 N 
HETATM    8  N   UNL     1      -8.795   3.678 -32.703  1.00  0.00    -0.181 NA
HETATM    9  C   UNL     1      -7.812   4.538 -32.987  1.00  0.00     0.160 C 
HETATM   10  H   UNL     1      -5.150   1.505 -33.209  1.00  0.00     0.161 HD
ENDROOT
BRANCH   1  11
HETATM   11  C   UNL     1      -5.369   4.552 -33.757  1.00  0.00     0.261 C 
HETATM   12  N   UNL     1      -4.584   4.892 -32.671  1.00  0.00    -0.323 N 
HETATM   13  H   UNL     1      -4.910   4.546 -31.775  1.00  0.00     0.169 HD
HETATM   14  O   UNL     1      -5.086   4.720 -34.937  1.00  0.00    -0.267 OA
BRANCH  12  15
HETATM   15  C   UNL     1      -3.353   5.578 -32.674  1.00  0.00     0.037 A 
HETATM   16  C   UNL     1      -3.227   6.960 -32.521  1.00  0.00     0.066 A 
HETATM   17  C   UNL     1      -1.964   7.550 -32.525  1.00  0.00     0.067 A 
HETATM   18  C   UNL     1      -0.813   6.786 -32.682  1.00  0.00     0.036 A 
HETATM   19  C   UNL     1      -0.930   5.406 -32.833  1.00  0.00     0.005 A 
HETATM   20  C   UNL     1      -2.193   4.805 -32.825  1.00  0.00     0.029 A 
BRANCH  17  21
HETATM   21  O   UNL     1      -1.895   8.903 -32.365  1.00  0.00    -0.361 OA
HETATM   22  H   UNL     1      -1.238   9.107 -31.680  1.00  0.00     0.217 HD
ENDBRANCH  17  21
ENDBRANCH  12  15
ENDBRANCH   1  11
BRANCH   4  23
HETATM   23  C   UNL     1     -10.340   1.253 -33.364  1.00  0.00     0.409 C 
HETATM   24  F   UNL     1     -10.282   1.526 -34.687  1.00  0.00    -0.169 F 
HETATM   25  F   UNL     1     -10.898   0.017 -33.249  1.00  0.00    -0.169 F 
HETATM   26  F   UNL     1     -11.209   2.109 -32.790  1.00  0.00    -0.169 F 
ENDBRANCH   4  23
BRANCH   6  27
HETATM   27  C   UNL     1      -5.869  -1.002 -33.296  1.00  0.00    -0.035 A 
HETATM   28  C   UNL     1      -6.278  -1.789 -34.390  1.00  0.00     0.012 A 
HETATM   29  C   UNL     1      -5.517  -2.885 -34.800  1.00  0.00     0.043 A 
HETATM   30  C   UNL     1      -4.349  -3.202 -34.119  1.00  0.00     0.116 A 
HETATM   31  F   UNL     1      -3.621  -4.256 -34.510  1.00  0.00    -0.206 F 
HETATM   32  C   UNL     1      -3.925  -2.443 -33.036  1.00  0.00     0.043 A 
HETATM   33  C   UNL     1      -4.683  -1.345 -32.625  1.00  0.00     0.012 A 
ENDBRANCH   6  27
TORSDOF 5
ENDMDL
MODEL 3
REMARK VINA RESULT:      -9.4      4.324      8.239
REMARK  5 active torsions:
REMARK  status: ('A' for Active; 'I' for Inactive)
REMARK    1  A    between atoms: C_3  and  O_4 
REMARK    2  A    between atoms: C_6  and  N_7 
REMARK       I    between atoms: N_7  and  C_8 
REMARK    3  A    between atoms: C_8  and  C_9 
REMARK    4  A    between atoms: C_12  and  C_13 
REMARK    5  A    between atoms: C_18  and  C_19 
ROOT
HETATM    1  C   UNL     1      -5.153   3.540 -31.638  1.00  0.00     0.096 C 
HETATM    2  C   UNL     1      -5.915   2.426 -31.938  1.00  0.00     0.138 C 
HETATM    3  N   UNL     1      -7.203   2.739 -31.562  1.00  0.00    -0.240 N 
HETATM    4  C   UNL     1      -8.332   1.828 -31.654  1.00  0.00     0.221 C 
HETATM    5  C   UNL     1      -7.994   0.643 -32.576  1.00  0.00     0.066 C 
HETATM    6  C   UNL     1      -6.586   0.120 -32.274  1.00  0.00     0.118 C 
HETATM    7  N   UNL     1      -5.614   1.205 -32.464  1.00  0.00    -0.365 N 
HETATM    8  N   UNL     1      -7.294   3.895 -30.889  1.00  0.00    -0.181 NA
HETATM    9  C   UNL     1      -6.058   4.396 -30.965  1.00  0.00     0.160 C 
HETATM   10  H   UNL     1      -4.656   0.866 -32.346  1.00  0.00     0.161 HD
ENDROOT
BRANCH   1  11
HETATM   11  C   UNL     1      -3.743   3.797 -31.885  1.00  0.00     0.261 C 
HETATM   12  N   UNL     1      -3.229   4.816 -31.106  1.00  0.00    -0.323 N 
HETATM   13  H   UNL     1      -3.855   5.170 -30.390  1.00  0.00     0.169 HD
HETATM   14  O   UNL     1      -3.120   3.116 -32.691  1.00  0.00    -0.267 OA
BRANCH  12  15
HETATM   15  C   UNL     1      -1.926   5.350 -31.129  1.00  0.00     0.037 A 
HETATM   16  C   UNL     1      -0.774   4.612 -30.851  1.00  0.00     0.066 A 
HETATM   17  C   UNL     1       0.478   5.223 -30.911  1.00  0.00     0.067 A 
HETATM   18  C   UNL     1       0.607   6.567 -31.244  1.00  0.00     0.036 A 
HETATM   19  C   UNL     1      -0.537   7.310 -31.526  1.00  0.00     0.005 A 
HETATM   20  C   UNL     1      -1.797   6.703 -31.472  1.00  0.00     0.029 A 
BRANCH  17  21
HETATM   21  O   UNL     1       1.573   4.457 -30.637  1.00  0.00    -0.361 OA
HETATM   22  H   UNL     1       1.798   3.935 -31.424  1.00  0.00     0.217 HD
ENDBRANCH  17  21
ENDBRANCH  12  15
ENDBRANCH   1  11
BRANCH   4  23
HETATM   23  C   UNL     1      -9.579   2.523 -32.154  1.00  0.00     0.409 C 
HETATM   24  F   UNL     1     -10.470   1.659 -32.689  1.00  0.00    -0.169 F 
HETATM   25  F   UNL     1     -10.207   3.130 -31.111  1.00  0.00    -0.169 F 
HETATM   26  F   UNL     1      -9.334   3.494 -33.057  1.00  0.00    -0.169 F 
ENDBRANCH   4  23
BRANCH   6  27
HETATM   27  C   UNL     1      -6.223  -1.055 -33.161  1.00  0.00    -0.035 A 
HETATM   28  C   UNL     1      -7.201  -1.741 -33.905  1.00  0.00     0.012 A 
HETATM   29  C   UNL     1      -6.852  -2.834 -34.700  1.00  0.00     0.043 A 
HETATM   30  C   UNL     1      -5.527  -3.247 -34.753  1.00  0.00     0.116 A 
HETATM   31  F   UNL     1      -5.192  -4.298 -35.515  1.00  0.00    -0.206 F 
HETATM   32  C   UNL     1      -4.543  -2.588 -34.028  1.00  0.00     0.043 A 
HETATM   33  C   UNL     1      -4.889  -1.494 -33.233  1.00  0.00     0.012 A 
ENDBRANCH   6  27
TORSDOF 5
ENDMDL
MODEL 4
REMARK VINA RESULT:      -9.1      4.355      7.559
REMARK  5 active torsions:
REMARK  status: ('A' for Active; 'I' for Inactive)
REMARK    1  A    between atoms: C_3  and  O_4 
REMARK    2  A    between atoms: C_6  and  N_7 
REMARK       I    between atoms: N_7  and  C_8 
REMARK    3  A    between atoms: C_8  and  C_9 
REMARK    4  A    between atoms: C_12  and  C_13 
REMARK    5  A    between atoms: C_18  and  C_19 
ROOT
HETATM    1  C   UNL     1      -7.236   1.455 -33.334  1.00  0.00     0.096 C 
HETATM    2  C   UNL     1      -6.558   2.659 -33.332  1.00  0.00     0.138 C 
HETATM    3  N   UNL     1      -7.508   3.625 -33.584  1.00  0.00    -0.240 N 
HETATM    4  C   UNL     1      -7.222   5.044 -33.721  1.00  0.00     0.221 C 
HETATM    5  C   UNL     1      -5.826   5.369 -33.160  1.00  0.00     0.066 C 
HETATM    6  C   UNL     1      -4.812   4.317 -33.620  1.00  0.00     0.118 C 
HETATM    7  N   UNL     1      -5.246   2.991 -33.161  1.00  0.00    -0.365 N 
HETATM    8  N   UNL     1      -8.704   3.121 -33.917  1.00  0.00    -0.181 NA
HETATM    9  C   UNL     1      -8.548   1.806 -33.732  1.00  0.00     0.160 C 
HETATM   10  H   UNL     1      -4.549   2.277 -33.386  1.00  0.00     0.161 HD
ENDROOT
BRANCH   1  11
HETATM   11  C   UNL     1      -6.750   0.113 -33.053  1.00  0.00     0.261 C 
HETATM   12  N   UNL     1      -6.344  -0.568 -34.186  1.00  0.00    -0.323 N 
HETATM   13  H   UNL     1      -6.325  -0.018 -35.038  1.00  0.00     0.169 HD
HETATM   14  O   UNL     1      -6.694  -0.299 -31.901  1.00  0.00    -0.267 OA
BRANCH  12  15
HETATM   15  C   UNL     1      -5.874  -1.893 -34.277  1.00  0.00     0.037 A 
HETATM   16  C   UNL     1      -6.599  -2.943 -34.844  1.00  0.00     0.066 A 
HETATM   17  C   UNL     1      -6.047  -4.221 -34.901  1.00  0.00     0.067 A 
HETATM   18  C   UNL     1      -4.776  -4.479 -34.398  1.00  0.00     0.036 A 
HETATM   19  C   UNL     1      -4.045  -3.437 -33.833  1.00  0.00     0.005 A 
HETATM   20  C   UNL     1      -4.590  -2.150 -33.776  1.00  0.00     0.029 A 
BRANCH  17  21
HETATM   21  O   UNL     1      -6.793  -5.211 -35.471  1.00  0.00    -0.361 OA
HETATM   22  H   UNL     1      -7.702  -4.891 -35.592  1.00  0.00     0.217 HD
ENDBRANCH  17  21
ENDBRANCH  12  15
ENDBRANCH   1  11
BRANCH   4  23
HETATM   23  C   UNL     1      -8.260   5.898 -33.026  1.00  0.00     0.409 C 
HETATM   24  F   UNL     1      -8.717   5.329 -31.888  1.00  0.00    -0.169 F 
HETATM   25  F   UNL     1      -7.701   7.085 -32.667  1.00  0.00    -0.169 F 
HETATM   26  F   UNL     1      -9.318   6.205 -33.804  1.00  0.00    -0.169 F 
ENDBRANCH   4  23
BRANCH   6  27
HETATM   27  C   UNL     1      -3.421   4.611 -33.091  1.00  0.00    -0.035 A 
HETATM   28  C   UNL     1      -3.080   4.362 -31.748  1.00  0.00     0.012 A 
HETATM   29  C   UNL     1      -1.802   4.658 -31.273  1.00  0.00     0.043 A 
HETATM   30  C   UNL     1      -0.860   5.206 -32.135  1.00  0.00     0.116 A 
HETATM   31  F   UNL     1       0.367   5.492 -31.678  1.00  0.00    -0.206 F 
HETATM   32  C   UNL     1      -1.172   5.462 -33.464  1.00  0.00     0.043 A 
HETATM   33  C   UNL     1      -2.449   5.166 -33.942  1.00  0.00     0.012 A 
ENDBRANCH   6  27
TORSDOF 5
ENDMDL
MODEL 5
REMARK VINA RESULT:      -9.1      3.884      7.349
REMARK  5 active torsions:
REMARK  status: ('A' for Active; 'I' for Inactive)
REMARK    1  A    between atoms: C_3  and  O_4 
REMARK    2  A    between atoms: C_6  and  N_7 
REMARK       I    between atoms: N_7  and  C_8 
REMARK    3  A    between atoms: C_8  and  C_9 
REMARK    4  A    between atoms: C_12  and  C_13 
REMARK    5  A    between atoms: C_18  and  C_19 
ROOT
HETATM    1  C   UNL     1      -4.684   1.003 -32.304  1.00  0.00     0.096 C 
HETATM    2  C   UNL     1      -5.784   1.814 -32.509  1.00  0.00     0.138 C 
HETATM    3  N   UNL     1      -5.340   3.105 -32.319  1.00  0.00    -0.240 N 
HETATM    4  C   UNL     1      -6.187   4.285 -32.388  1.00  0.00     0.221 C 
HETATM    5  C   UNL     1      -7.520   3.952 -33.082  1.00  0.00     0.066 C 
HETATM    6  C   UNL     1      -8.070   2.620 -32.562  1.00  0.00     0.118 C 
HETATM    7  N   UNL     1      -7.088   1.557 -32.812  1.00  0.00    -0.365 N 
HETATM    8  N   UNL     1      -4.090   3.172 -31.841  1.00  0.00    -0.181 NA
HETATM    9  C   UNL     1      -3.680   1.900 -31.864  1.00  0.00     0.160 C 
HETATM   10  H   UNL     1      -7.460   0.642 -32.547  1.00  0.00     0.161 HD
ENDROOT
BRANCH   1  11
HETATM   11  C   UNL     1      -4.552  -0.439 -32.441  1.00  0.00     0.261 C 
HETATM   12  N   UNL     1      -5.126  -0.931 -33.598  1.00  0.00    -0.323 N 
HETATM   13  H   UNL     1      -5.456  -0.228 -34.251  1.00  0.00     0.169 HD
HETATM   14  O   UNL     1      -3.948  -1.090 -31.598  1.00  0.00    -0.267 OA
BRANCH  12  15
HETATM   15  C   UNL     1      -5.223  -2.275 -34.012  1.00  0.00     0.037 A 
HETATM   16  C   UNL     1      -4.193  -3.209 -33.882  1.00  0.00     0.066 A 
HETATM   17  C   UNL     1      -4.385  -4.522 -34.309  1.00  0.00     0.067 A 
HETATM   18  C   UNL     1      -5.591  -4.928 -34.869  1.00  0.00     0.036 A 
HETATM   19  C   UNL     1      -6.624  -4.003 -35.000  1.00  0.00     0.005 A 
HETATM   20  C   UNL     1      -6.442  -2.684 -34.570  1.00  0.00     0.029 A 
BRANCH  17  21
HETATM   21  O   UNL     1      -3.349  -5.397 -34.154  1.00  0.00    -0.361 OA
HETATM   22  H   UNL     1      -3.699  -6.302 -34.150  1.00  0.00     0.217 HD
ENDBRANCH  17  21
ENDBRANCH  12  15
ENDBRANCH   1  11
BRANCH   4  23
HETATM   23  C   UNL     1      -5.507   5.425 -33.113  1.00  0.00     0.409 C 
HETATM   24  F   UNL     1      -5.075   5.068 -34.344  1.00  0.00    -0.169 F 
HETATM   25  F   UNL     1      -6.397   6.438 -33.296  1.00  0.00    -0.169 F 
HETATM   26  F   UNL     1      -4.470   5.958 -32.436  1.00  0.00    -0.169 F 
ENDBRANCH   4  23
BRANCH   6  27
HETATM   27  C   UNL     1      -9.389   2.264 -33.220  1.00  0.00    -0.035 A 
HETATM   28  C   UNL     1     -10.028   1.036 -32.963  1.00  0.00     0.012 A 
HETATM   29  C   UNL     1     -11.231   0.715 -33.594  1.00  0.00     0.043 A 
HETATM   30  C   UNL     1     -11.800   1.617 -34.484  1.00  0.00     0.116 A 
HETATM   31  F   UNL     1     -12.954   1.308 -35.091  1.00  0.00    -0.206 F 
HETATM   32  C   UNL     1     -11.190   2.835 -34.755  1.00  0.00     0.043 A 
HETATM   33  C   UNL     1      -9.987   3.159 -34.125  1.00  0.00     0.012 A 
ENDBRANCH   6  27
TORSDOF 5
ENDMDL
MODEL 6
REMARK VINA RESULT:      -8.9      3.401      7.371
REMARK  5 active torsions:
REMARK  status: ('A' for Active; 'I' for Inactive)
REMARK    1  A    between atoms: C_3  and  O_4 
REMARK    2  A    between atoms: C_6  and  N_7 
REMARK       I    between atoms: N_7  and  C_8 
REMARK    3  A    between atoms: C_8  and  C_9 
REMARK    4  A    between atoms: C_12  and  C_13 
REMARK    5  A    between atoms: C_18  and  C_19 
ROOT
HETATM    1  C   UNL     1      -6.561   1.278 -32.366  1.00  0.00     0.096 C 
HETATM    2  C   UNL     1      -7.755   1.929 -32.613  1.00  0.00     0.138 C 
HETATM    3  N   UNL     1      -7.463   3.275 -32.582  1.00  0.00    -0.240 N 
HETATM    4  C   UNL     1      -8.446   4.334 -32.744  1.00  0.00     0.221 C 
HETATM    5  C   UNL     1      -9.749   3.774 -33.342  1.00  0.00     0.066 C 
HETATM    6  C   UNL     1     -10.122   2.455 -32.657  1.00  0.00     0.118 C 
HETATM    7  N   UNL     1      -9.028   1.491 -32.832  1.00  0.00    -0.365 N 
HETATM    8  N   UNL     1      -6.217   3.539 -32.166  1.00  0.00    -0.181 NA
HETATM    9  C   UNL     1      -5.660   2.328 -32.068  1.00  0.00     0.160 C 
HETATM   10  H   UNL     1      -9.281   0.575 -32.453  1.00  0.00     0.161 HD
ENDROOT
BRANCH   1  11
HETATM   11  C   UNL     1      -6.263  -0.145 -32.351  1.00  0.00     0.261 C 
HETATM   12  N   UNL     1      -5.941  -0.648 -33.598  1.00  0.00    -0.323 N 
HETATM   13  H   UNL     1      -5.839   0.045 -34.331  1.00  0.00     0.169 HD
HETATM   14  O   UNL     1      -6.276  -0.771 -31.299  1.00  0.00    -0.267 OA
BRANCH  12  15
HETATM   15  C   UNL     1      -5.653  -1.983 -33.944  1.00  0.00     0.037 A 
HETATM   16  C   UNL     1      -6.560  -2.842 -34.568  1.00  0.00     0.066 A 
HETATM   17  C   UNL     1      -6.181  -4.146 -34.884  1.00  0.00     0.067 A 
HETATM   18  C   UNL     1      -4.907  -4.617 -34.588  1.00  0.00     0.036 A 
HETATM   19  C   UNL     1      -3.996  -3.766 -33.968  1.00  0.00     0.005 A 
HETATM   20  C   UNL     1      -4.366  -2.455 -33.651  1.00  0.00     0.029 A 
BRANCH  17  21
HETATM   21  O   UNL     1      -7.102  -4.943 -35.499  1.00  0.00    -0.361 OA
HETATM   22  H   UNL     1      -7.186  -4.671 -36.427  1.00  0.00     0.217 HD
ENDBRANCH  17  21
ENDBRANCH  12  15
ENDBRANCH   1  11
BRANCH   4  23
HETATM   23  C   UNL     1      -7.927   5.456 -33.616  1.00  0.00     0.409 C 
HETATM   24  F   UNL     1      -8.875   5.941 -34.449  1.00  0.00    -0.169 F 
HETATM   25  F   UNL     1      -7.537   6.496 -32.829  1.00  0.00    -0.169 F 
HETATM   26  F   UNL     1      -6.848   5.119 -34.349  1.00  0.00    -0.169 F 
ENDBRANCH   4  23
BRANCH   6  27
HETATM   27  C   UNL     1     -11.407   1.878 -33.218  1.00  0.00    -0.035 A 
HETATM   28  C   UNL     1     -12.471   2.709 -33.617  1.00  0.00     0.012 A 
HETATM   29  C   UNL     1     -13.656   2.160 -34.111  1.00  0.00     0.043 A 
HETATM   30  C   UNL     1     -13.784   0.780 -34.206  1.00  0.00     0.116 A 
HETATM   31  F   UNL     1     -14.922   0.252 -34.678  1.00  0.00    -0.206 F 
HETATM   32  C   UNL     1     -12.749  -0.062 -33.818  1.00  0.00     0.043 A 
HETATM   33  C   UNL     1     -11.564   0.485 -33.324  1.00  0.00     0.012 A 
ENDBRANCH   6  27
TORSDOF 5
ENDMDL
MODEL 7
REMARK VINA RESULT:      -8.9      3.995      7.718
REMARK  5 active torsions:
REMARK  status: ('A' for Active; 'I' for Inactive)
REMARK    1  A    between atoms: C_3  and  O_4 
REMARK    2  A    between atoms: C_6  and  N_7 
REMARK       I    between atoms: N_7  and  C_8 
REMARK    3  A    between atoms: C_8  and  C_9 
REMARK    4  A    between atoms: C_12  and  C_13 
REMARK    5  A    between atoms: C_18  and  C_19 
ROOT
HETATM    1  C   UNL     1      -4.551   0.902 -32.278  1.00  0.00     0.096 C 
HETATM    2  C   UNL     1      -5.182   2.095 -32.577  1.00  0.00     0.138 C 
HETATM    3  N   UNL     1      -4.244   3.081 -32.360  1.00  0.00    -0.240 N 
HETATM    4  C   UNL     1      -4.498   4.504 -32.504  1.00  0.00     0.221 C 
HETATM    5  C   UNL     1      -5.793   4.743 -33.302  1.00  0.00     0.066 C 
HETATM    6  C   UNL     1      -6.895   3.795 -32.818  1.00  0.00     0.118 C 
HETATM    7  N   UNL     1      -6.446   2.405 -32.983  1.00  0.00    -0.365 N 
HETATM    8  N   UNL     1      -3.121   2.628 -31.783  1.00  0.00    -0.181 NA
HETATM    9  C   UNL     1      -3.295   1.303 -31.765  1.00  0.00     0.160 C 
HETATM   10  H   UNL     1      -7.191   1.747 -32.742  1.00  0.00     0.161 HD
ENDROOT
BRANCH   1  11
HETATM   11  C   UNL     1      -5.040  -0.463 -32.395  1.00  0.00     0.261 C 
HETATM   12  N   UNL     1      -4.338  -1.216 -33.319  1.00  0.00    -0.323 N 
HETATM   13  H   UNL     1      -3.513  -0.770 -33.705  1.00  0.00     0.169 HD
HETATM   14  O   UNL     1      -5.960  -0.856 -31.689  1.00  0.00    -0.267 OA
BRANCH  12  15
HETATM   15  C   UNL     1      -4.580  -2.547 -33.712  1.00  0.00     0.037 A 
HETATM   16  C   UNL     1      -5.672  -2.948 -34.485  1.00  0.00     0.066 A 
HETATM   17  C   UNL     1      -5.823  -4.288 -34.837  1.00  0.00     0.067 A 
HETATM   18  C   UNL     1      -4.903  -5.247 -34.430  1.00  0.00     0.036 A 
HETATM   19  C   UNL     1      -3.809  -4.856 -33.661  1.00  0.00     0.005 A 
HETATM   20  C   UNL     1      -3.647  -3.512 -33.307  1.00  0.00     0.029 A 
BRANCH  17  21
HETATM   21  O   UNL     1      -6.903  -4.627 -35.599  1.00  0.00    -0.361 OA
HETATM   22  H   UNL     1      -6.594  -4.951 -36.459  1.00  0.00     0.217 HD
ENDBRANCH  17  21
ENDBRANCH  12  15
ENDBRANCH   1  11
BRANCH   4  23
HETATM   23  C   UNL     1      -3.346   5.217 -33.179  1.00  0.00     0.409 C 
HETATM   24  F   UNL     1      -3.717   6.402 -33.715  1.00  0.00    -0.169 F 
HETATM   25  F   UNL     1      -2.384   5.495 -32.257  1.00  0.00    -0.169 F 
HETATM   26  F   UNL     1      -2.743   4.486 -34.138  1.00  0.00    -0.169 F 
ENDBRANCH   4  23
BRANCH   6  27
HETATM   27  C   UNL     1      -8.189   4.008 -33.578  1.00  0.00    -0.035 A 
HETATM   28  C   UNL     1      -9.030   2.928 -33.911  1.00  0.00     0.012 A 
HETATM   29  C   UNL     1     -10.208   3.140 -34.630  1.00  0.00     0.043 A 
HETATM   30  C   UNL     1     -10.550   4.428 -35.021  1.00  0.00     0.116 A 
HETATM   31  F   UNL     1     -11.679   4.631 -35.712  1.00  0.00    -0.206 F 
HETATM   32  C   UNL     1      -9.737   5.510 -34.706  1.00  0.00     0.043 A 
HETATM   33  C   UNL     1      -8.559   5.301 -33.986  1.00  0.00     0.012 A 
ENDBRANCH   6  27
TORSDOF 5
ENDMDL
MODEL 8
REMARK VINA RESULT:      -8.5      4.692      7.920
REMARK  5 active torsions:
REMARK  status: ('A' for Active; 'I' for Inactive)
REMARK    1  A    between atoms: C_3  and  O_4 
REMARK    2  A    between atoms: C_6  and  N_7 
REMARK       I    between atoms: N_7  and  C_8 
REMARK    3  A    between atoms: C_8  and  C_9 
REMARK    4  A    between atoms: C_12  and  C_13 
REMARK    5  A    between atoms: C_18  and  C_19 
ROOT
HETATM    1  C   UNL     1      -6.510   0.892 -32.610  1.00  0.00     0.096 C 
HETATM    2  C   UNL     1      -6.237   2.244 -32.517  1.00  0.00     0.138 C 
HETATM    3  N   UNL     1      -7.276   2.789 -31.795  1.00  0.00    -0.240 N 
HETATM    4  C   UNL     1      -7.421   4.205 -31.501  1.00  0.00     0.221 C 
HETATM    5  C   UNL     1      -6.093   4.944 -31.744  1.00  0.00     0.066 C 
HETATM    6  C   UNL     1      -5.458   4.476 -33.057  1.00  0.00     0.118 C 
HETATM    7  N   UNL     1      -5.228   3.026 -32.996  1.00  0.00    -0.365 N 
HETATM    8  N   UNL     1      -8.276   1.924 -31.567  1.00  0.00    -0.181 NA
HETATM    9  C   UNL     1      -7.796   0.767 -32.031  1.00  0.00     0.160 C 
HETATM   10  H   UNL     1      -4.733   2.697 -33.829  1.00  0.00     0.161 HD
ENDROOT
BRANCH   1  11
HETATM   11  C   UNL     1      -5.721  -0.178 -33.200  1.00  0.00     0.261 C 
HETATM   12  N   UNL     1      -6.457  -1.319 -33.461  1.00  0.00    -0.323 N 
HETATM   13  H   UNL     1      -7.458  -1.229 -33.322  1.00  0.00     0.169 HD
HETATM   14  O   UNL     1      -4.534  -0.008 -33.451  1.00  0.00    -0.267 OA
BRANCH  12  15
HETATM   15  C   UNL     1      -5.997  -2.546 -33.977  1.00  0.00     0.037 A 
HETATM   16  C   UNL     1      -4.735  -3.082 -33.710  1.00  0.00     0.066 A 
HETATM   17  C   UNL     1      -4.371  -4.312 -34.256  1.00  0.00     0.067 A 
HETATM   18  C   UNL     1      -5.243  -5.025 -35.071  1.00  0.00     0.036 A 
HETATM   19  C   UNL     1      -6.505  -4.498 -35.340  1.00  0.00     0.005 A 
HETATM   20  C   UNL     1      -6.881  -3.267 -34.792  1.00  0.00     0.029 A 
BRANCH  17  21
HETATM   21  O   UNL     1      -3.130  -4.795 -33.960  1.00  0.00    -0.361 OA
HETATM   22  H   UNL     1      -2.556  -4.056 -33.703  1.00  0.00     0.217 HD
ENDBRANCH  17  21
ENDBRANCH  12  15
ENDBRANCH   1  11
BRANCH   4  23
HETATM   23  C   UNL     1      -7.883   4.442 -30.080  1.00  0.00     0.409 C 
HETATM   24  F   UNL     1      -7.367   3.540 -29.214  1.00  0.00    -0.169 F 
HETATM   25  F   UNL     1      -7.454   5.665 -29.664  1.00  0.00    -0.169 F 
HETATM   26  F   UNL     1      -9.223   4.449 -29.939  1.00  0.00    -0.169 F 
ENDBRANCH   4  23
BRANCH   6  27
HETATM   27  C   UNL     1      -4.150   5.191 -33.333  1.00  0.00    -0.035 A 
HETATM   28  C   UNL     1      -3.310   4.800 -34.393  1.00  0.00     0.012 A 
HETATM   29  C   UNL     1      -2.099   5.455 -34.619  1.00  0.00     0.043 A 
HETATM   30  C   UNL     1      -1.719   6.500 -33.787  1.00  0.00     0.116 A 
HETATM   31  F   UNL     1      -0.555   7.127 -34.003  1.00  0.00    -0.206 F 
HETATM   32  C   UNL     1      -2.528   6.904 -32.733  1.00  0.00     0.043 A 
HETATM   33  C   UNL     1      -3.741   6.251 -32.505  1.00  0.00     0.012 A 
ENDBRANCH   6  27
TORSDOF 5
ENDMDL
MODEL 9
REMARK VINA RESULT:      -8.5     15.598     17.999
REMARK  5 active torsions:
REMARK  status: ('A' for Active; 'I' for Inactive)
REMARK    1  A    between atoms: C_3  and  O_4 
REMARK    2  A    between atoms: C_6  and  N_7 
REMARK       I    between atoms: N_7  and  C_8 
REMARK    3  A    between atoms: C_8  and  C_9 
REMARK    4  A    between atoms: C_12  and  C_13 
REMARK    5  A    between atoms: C_18  and  C_19 
ROOT
HETATM    1  C   UNL     1      -4.436 -13.968 -39.912  1.00  0.00     0.096 C 
HETATM    2  C   UNL     1      -5.427 -13.802 -38.963  1.00  0.00     0.138 C 
HETATM    3  N   UNL     1      -6.413 -13.058 -39.575  1.00  0.00    -0.240 N 
HETATM    4  C   UNL     1      -7.628 -12.605 -38.919  1.00  0.00     0.221 C 
HETATM    5  C   UNL     1      -7.858 -13.385 -37.612  1.00  0.00     0.066 C 
HETATM    6  C   UNL     1      -6.546 -13.510 -36.832  1.00  0.00     0.118 C 
HETATM    7  N   UNL     1      -5.549 -14.198 -37.664  1.00  0.00    -0.365 N 
HETATM    8  N   UNL     1      -6.055 -12.590 -40.779  1.00  0.00    -0.181 NA
HETATM    9  C   UNL     1      -4.871 -13.169 -40.998  1.00  0.00     0.160 C 
HETATM   10  H   UNL     1      -4.686 -14.366 -37.142  1.00  0.00     0.161 HD
ENDROOT
BRANCH   1  11
HETATM   11  C   UNL     1      -3.197 -14.727 -39.841  1.00  0.00     0.261 C 
HETATM   12  N   UNL     1      -2.276 -14.186 -38.963  1.00  0.00    -0.323 N 
HETATM   13  H   UNL     1      -2.616 -13.413 -38.401  1.00  0.00     0.169 HD
HETATM   14  O   UNL     1      -3.061 -15.755 -40.492  1.00  0.00    -0.267 OA
BRANCH  12  15
HETATM   15  C   UNL     1      -0.969 -14.637 -38.696  1.00  0.00     0.037 A 
HETATM   16  C   UNL     1       0.068 -14.626 -39.631  1.00  0.00     0.066 A 
HETATM   17  C   UNL     1       1.336 -15.082 -39.272  1.00  0.00     0.067 A 
HETATM   18  C   UNL     1       1.595 -15.554 -37.990  1.00  0.00     0.036 A 
HETATM   19  C   UNL     1       0.567 -15.565 -37.050  1.00  0.00     0.005 A 
HETATM   20  C   UNL     1      -0.707 -15.105 -37.400  1.00  0.00     0.029 A 
BRANCH  17  21
HETATM   21  O   UNL     1       2.316 -15.045 -40.220  1.00  0.00    -0.361 OA
HETATM   22  H   UNL     1       3.153 -15.333 -39.821  1.00  0.00     0.217 HD
ENDBRANCH  17  21
ENDBRANCH  12  15
ENDBRANCH   1  11
BRANCH   4  23
HETATM   23  C   UNL     1      -8.839 -12.747 -39.815  1.00  0.00     0.409 C 
HETATM   24  F   UNL     1      -8.769 -13.841 -40.606  1.00  0.00    -0.169 F 
HETATM   25  F   UNL     1      -9.953 -12.895 -39.048  1.00  0.00    -0.169 F 
HETATM   26  F   UNL     1      -9.065 -11.671 -40.596  1.00  0.00    -0.169 F 
ENDBRANCH   4  23
BRANCH   6  27
HETATM   27  C   UNL     1      -6.737 -14.268 -35.532  1.00  0.00    -0.035 A 
HETATM   28  C   UNL     1      -7.116 -15.624 -35.524  1.00  0.00     0.012 A 
HETATM   29  C   UNL     1      -7.308 -16.300 -34.318  1.00  0.00     0.043 A 
HETATM   30  C   UNL     1      -7.126 -15.626 -33.117  1.00  0.00     0.116 A 
HETATM   31  F   UNL     1      -7.313 -16.275 -31.960  1.00  0.00    -0.206 F 
HETATM   32  C   UNL     1      -6.754 -14.288 -33.098  1.00  0.00     0.043 A 
HETATM   33  C   UNL     1      -6.560 -13.609 -34.303  1.00  0.00     0.012 A 
ENDBRANCH   6  27
TORSDOF 5
ENDMDL
MODEL 10
REMARK VINA RESULT:      -8.3      3.105      5.749
REMARK  5 active torsions:
REMARK  status: ('A' for Active; 'I' for Inactive)
REMARK    1  A    between atoms: C_3  and  O_4 
REMARK    2  A    between atoms: C_6  and  N_7 
REMARK       I    between atoms: N_7  and  C_8 
REMARK    3  A    between atoms: C_8  and  C_9 
REMARK    4  A    between atoms: C_12  and  C_13 
REMARK    5  A    between atoms: C_18  and  C_19 
ROOT
HETATM    1  C   UNL     1      -7.519   1.344 -32.031  1.00  0.00     0.096 C 
HETATM    2  C   UNL     1      -6.187   1.713 -32.039  1.00  0.00     0.138 C 
HETATM    3  N   UNL     1      -5.480   0.574 -31.724  1.00  0.00    -0.240 N 
HETATM    4  C   UNL     1      -4.035   0.518 -31.572  1.00  0.00     0.221 C 
HETATM    5  C   UNL     1      -3.379   1.767 -32.189  1.00  0.00     0.066 C 
HETATM    6  C   UNL     1      -4.162   3.025 -31.798  1.00  0.00     0.118 C 
HETATM    7  N   UNL     1      -5.550   2.898 -32.263  1.00  0.00    -0.365 N 
HETATM    8  N   UNL     1      -6.260  -0.449 -31.347  1.00  0.00    -0.181 NA
HETATM    9  C   UNL     1      -7.497   0.008 -31.565  1.00  0.00     0.160 C 
HETATM   10  H   UNL     1      -6.077   3.756 -32.086  1.00  0.00     0.161 HD
ENDROOT
BRANCH   1  11
HETATM   11  C   UNL     1      -8.703   2.123 -32.361  1.00  0.00     0.261 C 
HETATM   12  N   UNL     1      -9.236   1.809 -33.597  1.00  0.00    -0.323 N 
HETATM   13  H   UNL     1      -8.815   1.009 -34.059  1.00  0.00     0.169 HD
HETATM   14  O   UNL     1      -9.154   2.934 -31.562  1.00  0.00    -0.267 OA
BRANCH  12  15
HETATM   15  C   UNL     1     -10.339   2.404 -34.240  1.00  0.00     0.037 A 
HETATM   16  C   UNL     1     -11.596   1.806 -34.350  1.00  0.00     0.066 A 
HETATM   17  C   UNL     1     -12.633   2.477 -34.995  1.00  0.00     0.067 A 
HETATM   18  C   UNL     1     -12.443   3.743 -35.539  1.00  0.00     0.036 A 
HETATM   19  C   UNL     1     -11.193   4.348 -35.430  1.00  0.00     0.005 A 
HETATM   20  C   UNL     1     -10.148   3.683 -34.781  1.00  0.00     0.029 A 
BRANCH  17  21
HETATM   21  O   UNL     1     -13.844   1.852 -35.071  1.00  0.00    -0.361 OA
HETATM   22  H   UNL     1     -13.725   0.984 -35.489  1.00  0.00     0.217 HD
ENDBRANCH  17  21
ENDBRANCH  12  15
ENDBRANCH   1  11
BRANCH   4  23
HETATM   23  C   UNL     1      -3.449  -0.727 -32.200  1.00  0.00     0.409 C 
HETATM   24  F   UNL     1      -3.849  -1.856 -31.573  1.00  0.00    -0.169 F 
HETATM   25  F   UNL     1      -3.878  -0.827 -33.488  1.00  0.00    -0.169 F 
HETATM   26  F   UNL     1      -2.102  -0.724 -32.255  1.00  0.00    -0.169 F 
ENDBRANCH   4  23
BRANCH   6  27
HETATM   27  C   UNL     1      -3.538   4.277 -32.384  1.00  0.00    -0.035 A 
HETATM   28  C   UNL     1      -2.449   4.205 -33.274  1.00  0.00     0.012 A 
HETATM   29  C   UNL     1      -1.874   5.369 -33.787  1.00  0.00     0.043 A 
HETATM   30  C   UNL     1      -2.381   6.607 -33.413  1.00  0.00     0.116 A 
HETATM   31  F   UNL     1      -1.827   7.724 -33.904  1.00  0.00    -0.206 F 
HETATM   32  C   UNL     1      -3.454   6.704 -32.536  1.00  0.00     0.043 A 
HETATM   33  C   UNL     1      -4.032   5.542 -32.022  1.00  0.00     0.012 A 
ENDBRANCH   6  27
TORSDOF 5
ENDMDL
