MODEL 1
REMARK VINA RESULT:     -10.8      0.000      0.000
REMARK  6 active torsions:
REMARK  status: ('A' for Active; 'I' for Inactive)
REMARK    1  A    between atoms: C_5  and  C_6 
REMARK    2  A    between atoms: C_11  and  C_12 
REMARK       I    between atoms: C_12  and  N_13 
REMARK    3  A    between atoms: N_13  and  C_14 
REMARK    4  A    between atoms: C_16  and  C_17 
REMARK    5  A    between atoms: C_17  and  O_18 
REMARK    6  A    between atoms: C_25  and  C_26 
ROOT
HETATM    1  C   UNL     1      -1.903   6.277 -31.277  1.00  0.00     0.118 C 
HETATM    2  N   UNL     1      -3.033   5.444 -30.854  1.00  0.00    -0.366 N 
HETATM    3  C   UNL     1      -3.319   4.271 -31.453  1.00  0.00     0.123 A 
HETATM    4  N   UNL     1      -2.834   3.979 -32.696  1.00  0.00    -0.240 N 
HETATM    5  N   UNL     1      -3.075   2.719 -33.100  1.00  0.00    -0.165 NA
HETATM    6  C   UNL     1      -3.825   2.211 -32.092  1.00  0.00     0.148 A 
HETATM    7  C   UNL     1      -4.035   3.172 -31.063  1.00  0.00     0.089 A 
HETATM    8  C   UNL     1      -1.959   4.878 -33.421  1.00  0.00     0.221 C 
HETATM    9  C   UNL     1      -1.079   5.622 -32.408  1.00  0.00     0.066 C 
HETATM   10  H   UNL     1      -3.377   5.642 -29.913  1.00  0.00     0.161 HD
ENDROOT
BRANCH   6  11
HETATM   11  C   UNL     1      -4.285   0.810 -32.084  1.00  0.00     0.276 C 
HETATM   12  N   UNL     1      -4.861   0.452 -33.288  1.00  0.00    -0.322 N 
HETATM   13  H   UNL     1      -4.931   1.223 -33.948  1.00  0.00     0.169 HD
HETATM   14  O   UNL     1      -4.132   0.094 -31.102  1.00  0.00    -0.266 OA
BRANCH  12  15
HETATM   15  C   UNL     1      -5.312  -0.813 -33.697  1.00  0.00     0.035 A 
HETATM   16  C   UNL     1      -4.489  -1.938 -33.788  1.00  0.00     0.039 A 
HETATM   17  C   UNL     1      -4.992  -3.177 -34.228  1.00  0.00    -0.028 A 
HETATM   18  C   UNL     1      -6.349  -3.271 -34.562  1.00  0.00     0.010 A 
HETATM   19  C   UNL     1      -7.178  -2.154 -34.476  1.00  0.00     0.003 A 
HETATM   20  C   UNL     1      -6.660  -0.929 -34.050  1.00  0.00     0.029 A 
BRANCH  17  21
HETATM   21  C   UNL     1      -4.059  -4.367 -34.307  1.00  0.00     0.147 C 
HETATM   22  C   UNL     1      -3.277  -4.554 -33.013  1.00  0.00     0.044 C 
BRANCH  21  23
HETATM   23  O   UNL     1      -4.789  -5.563 -34.583  1.00  0.00    -0.391 OA
HETATM   24  H   UNL     1      -5.711  -5.300 -34.737  1.00  0.00     0.210 HD
ENDBRANCH  21  23
ENDBRANCH  17  21
ENDBRANCH  12  15
ENDBRANCH   6  11
BRANCH   8  25
HETATM   25  C   UNL     1      -2.768   5.809 -34.294  1.00  0.00     0.409 C 
HETATM   26  F   UNL     1      -4.015   6.010 -33.812  1.00  0.00    -0.169 F 
HETATM   27  F   UNL     1      -2.197   7.016 -34.481  1.00  0.00    -0.169 F 
HETATM   28  F   UNL     1      -2.917   5.259 -35.529  1.00  0.00    -0.169 F 
ENDBRANCH   8  25
BRANCH   1  29
HETATM   29  C   UNL     1      -1.015   6.563 -30.077  1.00  0.00    -0.035 A 
HETATM   30  C   UNL     1      -0.083   5.611 -29.624  1.00  0.00     0.010 A 
HETATM   31  C   UNL     1       0.742   5.879 -28.530  1.00  0.00     0.007 A 
HETATM   32  C   UNL     1       0.651   7.101 -27.861  1.00  0.00    -0.062 A 
HETATM   33  C   UNL     1       1.561   7.401 -26.706  1.00  0.00     0.048 C 
HETATM   34  C   UNL     1      -0.259   8.062 -28.319  1.00  0.00     0.007 A 
HETATM   35  C   UNL     1      -1.087   7.795 -29.413  1.00  0.00     0.010 A 
ENDBRANCH   1  29
TORSDOF 6
ENDMDL
MODEL 2
REMARK VINA RESULT:     -10.1      1.200      1.874
REMARK  6 active torsions:
REMARK  status: ('A' for Active; 'I' for Inactive)
REMARK    1  A    between atoms: C_5  and  C_6 
REMARK    2  A    between atoms: C_11  and  C_12 
REMARK       I    between atoms: C_12  and  N_13 
REMARK    3  A    between atoms: N_13  and  C_14 
REMARK    4  A    between atoms: C_16  and  C_17 
REMARK    5  A    between atoms: C_17  and  O_18 
REMARK    6  A    between atoms: C_25  and  C_26 
ROOT
HETATM    1  C   UNL     1      -1.413   6.686 -30.967  1.00  0.00     0.118 C 
HETATM    2  N   UNL     1      -2.655   5.968 -30.660  1.00  0.00    -0.366 N 
HETATM    3  C   UNL     1      -2.953   4.782 -31.227  1.00  0.00     0.123 A 
HETATM    4  N   UNL     1      -2.331   4.374 -32.372  1.00  0.00    -0.240 N 
HETATM    5  N   UNL     1      -2.619   3.111 -32.736  1.00  0.00    -0.165 NA
HETATM    6  C   UNL     1      -3.537   2.727 -31.816  1.00  0.00     0.148 A 
HETATM    7  C   UNL     1      -3.803   3.767 -30.881  1.00  0.00     0.089 A 
HETATM    8  C   UNL     1      -1.297   5.157 -33.018  1.00  0.00     0.221 C 
HETATM    9  C   UNL     1      -0.502   5.898 -31.934  1.00  0.00     0.066 C 
HETATM   10  H   UNL     1      -3.104   6.252 -29.788  1.00  0.00     0.161 HD
ENDROOT
BRANCH   6  11
HETATM   11  C   UNL     1      -4.107   1.368 -31.795  1.00  0.00     0.276 C 
HETATM   12  N   UNL     1      -3.421   0.510 -32.632  1.00  0.00    -0.322 N 
HETATM   13  H   UNL     1      -2.687   0.969 -33.167  1.00  0.00     0.169 HD
HETATM   14  O   UNL     1      -5.067   1.090 -31.086  1.00  0.00    -0.266 OA
BRANCH  12  15
HETATM   15  C   UNL     1      -3.595  -0.873 -32.796  1.00  0.00     0.035 A 
HETATM   16  C   UNL     1      -4.435  -1.441 -33.757  1.00  0.00     0.039 A 
HETATM   17  C   UNL     1      -4.590  -2.835 -33.860  1.00  0.00    -0.028 A 
HETATM   18  C   UNL     1      -3.869  -3.658 -32.985  1.00  0.00     0.010 A 
HETATM   19  C   UNL     1      -3.029  -3.101 -32.021  1.00  0.00     0.003 A 
HETATM   20  C   UNL     1      -2.897  -1.715 -31.924  1.00  0.00     0.029 A 
BRANCH  17  21
HETATM   21  C   UNL     1      -5.511  -3.401 -34.920  1.00  0.00     0.147 C 
HETATM   22  C   UNL     1      -5.539  -4.925 -34.883  1.00  0.00     0.044 C 
BRANCH  21  23
HETATM   23  O   UNL     1      -6.840  -2.909 -34.749  1.00  0.00    -0.391 OA
HETATM   24  H   UNL     1      -7.415  -3.450 -35.316  1.00  0.00     0.210 HD
ENDBRANCH  21  23
ENDBRANCH  17  21
ENDBRANCH  12  15
ENDBRANCH   6  11
BRANCH   8  25
HETATM   25  C   UNL     1      -1.902   6.085 -34.045  1.00  0.00     0.409 C 
HETATM   26  F   UNL     1      -1.785   5.605 -35.302  1.00  0.00    -0.169 F 
HETATM   27  F   UNL     1      -3.204   6.363 -33.828  1.00  0.00    -0.169 F 
HETATM   28  F   UNL     1      -1.246   7.276 -34.024  1.00  0.00    -0.169 F 
ENDBRANCH   8  25
BRANCH   1  29
HETATM   29  C   UNL     1      -0.674   6.983 -29.673  1.00  0.00    -0.035 A 
HETATM   30  C   UNL     1       0.179   6.028 -29.092  1.00  0.00     0.010 A 
HETATM   31  C   UNL     1       0.869   6.306 -27.910  1.00  0.00     0.007 A 
HETATM   32  C   UNL     1       0.718   7.542 -27.280  1.00  0.00    -0.062 A 
HETATM   33  C   UNL     1       1.485   7.853 -26.028  1.00  0.00     0.048 C 
HETATM   34  C   UNL     1      -0.112   8.507 -27.864  1.00  0.00     0.007 A 
HETATM   35  C   UNL     1      -0.805   8.229 -29.047  1.00  0.00     0.010 A 
ENDBRANCH   1  29
TORSDOF 6
ENDMDL
MODEL 3
REMARK VINA RESULT:      -9.9      3.502      9.505
REMARK  6 active torsions:
REMARK  status: ('A' for Active; 'I' for Inactive)
REMARK    1  A    between atoms: C_5  and  C_6 
REMARK    2  A    between atoms: C_11  and  C_12 
REMARK       I    between atoms: C_12  and  N_13 
REMARK    3  A    between atoms: N_13  and  C_14 
REMARK    4  A    between atoms: C_16  and  C_17 
REMARK    5  A    between atoms: C_17  and  O_18 
REMARK    6  A    between atoms: C_25  and  C_26 
ROOT
HETATM    1  C   UNL     1      -7.339  -0.253 -33.983  1.00  0.00     0.118 C 
HETATM    2  N   UNL     1      -6.495   0.856 -34.438  1.00  0.00    -0.366 N 
HETATM    3  C   UNL     1      -6.214   1.911 -33.646  1.00  0.00     0.123 A 
HETATM    4  N   UNL     1      -6.982   2.194 -32.554  1.00  0.00    -0.240 N 
HETATM    5  N   UNL     1      -6.496   3.180 -31.778  1.00  0.00    -0.165 NA
HETATM    6  C   UNL     1      -5.403   3.599 -32.462  1.00  0.00     0.148 A 
HETATM    7  C   UNL     1      -5.222   2.853 -33.661  1.00  0.00     0.089 A 
HETATM    8  C   UNL     1      -8.105   1.369 -32.156  1.00  0.00     0.221 C 
HETATM    9  C   UNL     1      -7.786  -0.089 -32.513  1.00  0.00     0.066 C 
HETATM   10  H   UNL     1      -5.898   0.635 -35.236  1.00  0.00     0.161 HD
ENDROOT
BRANCH   6  11
HETATM   11  C   UNL     1      -4.512   4.654 -31.948  1.00  0.00     0.276 C 
HETATM   12  N   UNL     1      -3.180   4.338 -32.136  1.00  0.00    -0.322 N 
HETATM   13  H   UNL     1      -3.036   3.412 -32.532  1.00  0.00     0.169 HD
HETATM   14  O   UNL     1      -4.959   5.675 -31.439  1.00  0.00    -0.266 OA
BRANCH  12  15
HETATM   15  C   UNL     1      -2.051   5.133 -31.880  1.00  0.00     0.035 A 
HETATM   16  C   UNL     1      -1.151   4.890 -30.840  1.00  0.00     0.039 A 
HETATM   17  C   UNL     1      -0.048   5.735 -30.616  1.00  0.00    -0.028 A 
HETATM   18  C   UNL     1       0.146   6.828 -31.471  1.00  0.00     0.010 A 
HETATM   19  C   UNL     1      -0.748   7.080 -32.511  1.00  0.00     0.003 A 
HETATM   20  C   UNL     1      -1.844   6.239 -32.711  1.00  0.00     0.029 A 
BRANCH  17  21
HETATM   21  C   UNL     1       0.900   5.428 -29.477  1.00  0.00     0.147 C 
HETATM   22  C   UNL     1       0.381   5.976 -28.152  1.00  0.00     0.044 C 
BRANCH  21  23
HETATM   23  O   UNL     1       1.098   4.019 -29.350  1.00  0.00    -0.391 OA
HETATM   24  H   UNL     1       0.478   3.709 -28.669  1.00  0.00     0.210 HD
ENDBRANCH  21  23
ENDBRANCH  17  21
ENDBRANCH  12  15
ENDBRANCH   6  11
BRANCH   8  25
HETATM   25  C   UNL     1      -9.379   1.868 -32.796  1.00  0.00     0.409 C 
HETATM   26  F   UNL     1     -10.083   2.677 -31.974  1.00  0.00    -0.169 F 
HETATM   27  F   UNL     1      -9.184   2.527 -33.957  1.00  0.00    -0.169 F 
HETATM   28  F   UNL     1     -10.187   0.813 -33.084  1.00  0.00    -0.169 F 
ENDBRANCH   8  25
BRANCH   1  29
HETATM   29  C   UNL     1      -6.584  -1.561 -34.160  1.00  0.00    -0.035 A 
HETATM   30  C   UNL     1      -5.212  -1.650 -33.862  1.00  0.00     0.010 A 
HETATM   31  C   UNL     1      -4.522  -2.854 -34.012  1.00  0.00     0.007 A 
HETATM   32  C   UNL     1      -5.186  -3.996 -34.467  1.00  0.00    -0.062 A 
HETATM   33  C   UNL     1      -4.452  -5.298 -34.595  1.00  0.00     0.048 C 
HETATM   34  C   UNL     1      -6.557  -3.920 -34.744  1.00  0.00     0.007 A 
HETATM   35  C   UNL     1      -7.249  -2.714 -34.596  1.00  0.00     0.010 A 
ENDBRANCH   1  29
TORSDOF 6
ENDMDL
MODEL 4
REMARK VINA RESULT:      -9.6      3.979      9.909
REMARK  6 active torsions:
REMARK  status: ('A' for Active; 'I' for Inactive)
REMARK    1  A    between atoms: C_5  and  C_6 
REMARK    2  A    between atoms: C_11  and  C_12 
REMARK       I    between atoms: C_12  and  N_13 
REMARK    3  A    between atoms: N_13  and  C_14 
REMARK    4  A    between atoms: C_16  and  C_17 
REMARK    5  A    between atoms: C_17  and  O_18 
REMARK    6  A    between atoms: C_25  and  C_26 
ROOT
HETATM    1  C   UNL     1      -8.338  -0.014 -33.090  1.00  0.00     0.118 C 
HETATM    2  N   UNL     1      -7.910   0.719 -31.894  1.00  0.00    -0.366 N 
HETATM    3  C   UNL     1      -6.768   1.435 -31.867  1.00  0.00     0.123 A 
HETATM    4  N   UNL     1      -5.779   1.216 -32.782  1.00  0.00    -0.240 N 
HETATM    5  N   UNL     1      -4.768   2.103 -32.724  1.00  0.00    -0.165 NA
HETATM    6  C   UNL     1      -5.097   2.875 -31.660  1.00  0.00     0.148 A 
HETATM    7  C   UNL     1      -6.323   2.455 -31.071  1.00  0.00     0.089 A 
HETATM    8  C   UNL     1      -5.907   0.247 -33.851  1.00  0.00     0.221 C 
HETATM    9  C   UNL     1      -7.379   0.193 -34.283  1.00  0.00     0.066 C 
HETATM   10  H   UNL     1      -8.656   0.908 -31.224  1.00  0.00     0.161 HD
ENDROOT
BRANCH   6  11
HETATM   11  C   UNL     1      -4.283   4.033 -31.248  1.00  0.00     0.276 C 
HETATM   12  N   UNL     1      -2.992   3.952 -31.733  1.00  0.00    -0.322 N 
HETATM   13  H   UNL     1      -2.802   3.085 -32.232  1.00  0.00     0.169 HD
HETATM   14  O   UNL     1      -4.757   4.937 -30.570  1.00  0.00    -0.266 OA
BRANCH  12  15
HETATM   15  C   UNL     1      -1.965   4.905 -31.646  1.00  0.00     0.035 A 
HETATM   16  C   UNL     1      -1.186   5.103 -30.504  1.00  0.00     0.039 A 
HETATM   17  C   UNL     1      -0.186   6.092 -30.465  1.00  0.00    -0.028 A 
HETATM   18  C   UNL     1       0.031   6.875 -31.607  1.00  0.00     0.010 A 
HETATM   19  C   UNL     1      -0.744   6.686 -32.751  1.00  0.00     0.003 A 
HETATM   20  C   UNL     1      -1.741   5.710 -32.768  1.00  0.00     0.029 A 
BRANCH  17  21
HETATM   21  C   UNL     1       0.635   6.266 -29.204  1.00  0.00     0.147 C 
HETATM   22  C   UNL     1       0.762   7.734 -28.816  1.00  0.00     0.044 C 
BRANCH  21  23
HETATM   23  O   UNL     1       0.048   5.549 -28.118  1.00  0.00    -0.391 OA
HETATM   24  H   UNL     1       0.119   4.604 -28.333  1.00  0.00     0.210 HD
ENDBRANCH  21  23
ENDBRANCH  17  21
ENDBRANCH  12  15
ENDBRANCH   6  11
BRANCH   8  25
HETATM   25  C   UNL     1      -5.372  -1.096 -33.412  1.00  0.00     0.409 C 
HETATM   26  F   UNL     1      -5.304  -1.205 -32.067  1.00  0.00    -0.169 F 
HETATM   27  F   UNL     1      -6.081  -2.144 -33.876  1.00  0.00    -0.169 F 
HETATM   28  F   UNL     1      -4.103  -1.254 -33.876  1.00  0.00    -0.169 F 
ENDBRANCH   8  25
BRANCH   1  29
HETATM   29  C   UNL     1      -9.745   0.419 -33.466  1.00  0.00    -0.035 A 
HETATM   30  C   UNL     1     -10.865  -0.332 -33.064  1.00  0.00     0.010 A 
HETATM   31  C   UNL     1     -12.158   0.074 -33.398  1.00  0.00     0.007 A 
HETATM   32  C   UNL     1     -12.363   1.236 -34.144  1.00  0.00    -0.062 A 
HETATM   33  C   UNL     1     -13.754   1.690 -34.473  1.00  0.00     0.048 C 
HETATM   34  C   UNL     1     -11.254   2.001 -34.528  1.00  0.00     0.007 A 
HETATM   35  C   UNL     1      -9.958   1.595 -34.197  1.00  0.00     0.010 A 
ENDBRANCH   1  29
TORSDOF 6
ENDMDL
MODEL 5
REMARK VINA RESULT:      -9.6      3.571      9.778
REMARK  6 active torsions:
REMARK  status: ('A' for Active; 'I' for Inactive)
REMARK    1  A    between atoms: C_5  and  C_6 
REMARK    2  A    between atoms: C_11  and  C_12 
REMARK       I    between atoms: C_12  and  N_13 
REMARK    3  A    between atoms: N_13  and  C_14 
REMARK    4  A    between atoms: C_16  and  C_17 
REMARK    5  A    between atoms: C_17  and  O_18 
REMARK    6  A    between atoms: C_25  and  C_26 
ROOT
HETATM    1  C   UNL     1      -6.937   0.250 -33.125  1.00  0.00     0.118 C 
HETATM    2  N   UNL     1      -6.265   1.421 -33.699  1.00  0.00    -0.366 N 
HETATM    3  C   UNL     1      -5.934   2.492 -32.950  1.00  0.00     0.123 A 
HETATM    4  N   UNL     1      -6.526   2.714 -31.740  1.00  0.00    -0.240 N 
HETATM    5  N   UNL     1      -5.990   3.732 -31.042  1.00  0.00    -0.165 NA
HETATM    6  C   UNL     1      -5.062   4.233 -31.893  1.00  0.00     0.148 A 
HETATM    7  C   UNL     1      -5.031   3.506 -33.117  1.00  0.00     0.089 A 
HETATM    8  C   UNL     1      -7.502   1.806 -31.172  1.00  0.00     0.221 C 
HETATM    9  C   UNL     1      -7.141   0.377 -31.599  1.00  0.00     0.066 C 
HETATM   10  H   UNL     1      -5.797   1.246 -34.589  1.00  0.00     0.161 HD
ENDROOT
BRANCH   6  11
HETATM   11  C   UNL     1      -4.177   5.351 -31.520  1.00  0.00     0.276 C 
HETATM   12  N   UNL     1      -2.927   4.910 -31.129  1.00  0.00    -0.322 N 
HETATM   13  H   UNL     1      -2.849   3.895 -31.100  1.00  0.00     0.169 HD
HETATM   14  O   UNL     1      -4.557   6.514 -31.586  1.00  0.00    -0.266 OA
BRANCH  12  15
HETATM   15  C   UNL     1      -1.793   5.672 -30.811  1.00  0.00     0.035 A 
HETATM   16  C   UNL     1      -1.725   6.544 -29.721  1.00  0.00     0.039 A 
HETATM   17  C   UNL     1      -0.568   7.303 -29.465  1.00  0.00    -0.028 A 
HETATM   18  C   UNL     1       0.534   7.159 -30.318  1.00  0.00     0.010 A 
HETATM   19  C   UNL     1       0.475   6.293 -31.409  1.00  0.00     0.003 A 
HETATM   20  C   UNL     1      -0.685   5.558 -31.657  1.00  0.00     0.029 A 
BRANCH  17  21
HETATM   21  C   UNL     1      -0.543   8.232 -28.269  1.00  0.00     0.147 C 
HETATM   22  C   UNL     1       0.883   8.546 -27.833  1.00  0.00     0.044 C 
BRANCH  21  23
HETATM   23  O   UNL     1      -1.216   9.456 -28.567  1.00  0.00    -0.391 OA
HETATM   24  H   UNL     1      -1.433   9.871 -27.716  1.00  0.00     0.210 HD
ENDBRANCH  21  23
ENDBRANCH  17  21
ENDBRANCH  12  15
ENDBRANCH   6  11
BRANCH   8  25
HETATM   25  C   UNL     1      -8.899   2.210 -31.582  1.00  0.00     0.409 C 
HETATM   26  F   UNL     1      -8.897   3.099 -32.600  1.00  0.00    -0.169 F 
HETATM   27  F   UNL     1      -9.683   1.173 -31.940  1.00  0.00    -0.169 F 
HETATM   28  F   UNL     1      -9.521   2.820 -30.539  1.00  0.00    -0.169 F 
ENDBRANCH   8  25
BRANCH   1  29
HETATM   29  C   UNL     1      -6.128  -0.997 -33.445  1.00  0.00    -0.035 A 
HETATM   30  C   UNL     1      -6.648  -2.000 -34.283  1.00  0.00     0.010 A 
HETATM   31  C   UNL     1      -5.901  -3.139 -34.587  1.00  0.00     0.007 A 
HETATM   32  C   UNL     1      -4.619  -3.304 -34.058  1.00  0.00    -0.062 A 
HETATM   33  C   UNL     1      -3.803  -4.512 -34.413  1.00  0.00     0.048 C 
HETATM   34  C   UNL     1      -4.086  -2.299 -33.241  1.00  0.00     0.007 A 
HETATM   35  C   UNL     1      -4.834  -1.159 -32.933  1.00  0.00     0.010 A 
ENDBRANCH   1  29
TORSDOF 6
ENDMDL
MODEL 6
REMARK VINA RESULT:      -9.2      6.685     10.203
REMARK  6 active torsions:
REMARK  status: ('A' for Active; 'I' for Inactive)
REMARK    1  A    between atoms: C_5  and  C_6 
REMARK    2  A    between atoms: C_11  and  C_12 
REMARK       I    between atoms: C_12  and  N_13 
REMARK    3  A    between atoms: N_13  and  C_14 
REMARK    4  A    between atoms: C_16  and  C_17 
REMARK    5  A    between atoms: C_17  and  O_18 
REMARK    6  A    between atoms: C_25  and  C_26 
ROOT
HETATM    1  C   UNL     1      -6.180   0.277 -33.000  1.00  0.00     0.118 C 
HETATM    2  N   UNL     1      -7.486   0.293 -32.333  1.00  0.00    -0.366 N 
HETATM    3  C   UNL     1      -8.437   1.196 -32.648  1.00  0.00     0.123 A 
HETATM    4  N   UNL     1      -8.120   2.351 -33.302  1.00  0.00    -0.240 N 
HETATM    5  N   UNL     1      -9.186   3.081 -33.680  1.00  0.00    -0.165 NA
HETATM    6  C   UNL     1     -10.231   2.389 -33.164  1.00  0.00     0.148 A 
HETATM    7  C   UNL     1      -9.793   1.224 -32.471  1.00  0.00     0.089 A 
HETATM    8  C   UNL     1      -6.771   2.658 -33.732  1.00  0.00     0.221 C 
HETATM    9  C   UNL     1      -6.072   1.345 -34.110  1.00  0.00     0.066 C 
HETATM   10  H   UNL     1      -7.736  -0.581 -31.869  1.00  0.00     0.161 HD
ENDROOT
BRANCH   6  11
HETATM   11  C   UNL     1     -11.629   2.802 -33.380  1.00  0.00     0.276 C 
HETATM   12  N   UNL     1     -12.250   3.151 -32.196  1.00  0.00    -0.322 N 
HETATM   13  H   UNL     1     -11.667   3.003 -31.375  1.00  0.00     0.169 HD
HETATM   14  O   UNL     1     -12.121   2.827 -34.502  1.00  0.00    -0.266 OA
BRANCH  12  15
HETATM   15  C   UNL     1     -13.532   3.694 -32.010  1.00  0.00     0.035 A 
HETATM   16  C   UNL     1     -14.712   2.956 -32.135  1.00  0.00     0.039 A 
HETATM   17  C   UNL     1     -15.971   3.560 -31.962  1.00  0.00    -0.028 A 
HETATM   18  C   UNL     1     -16.025   4.923 -31.643  1.00  0.00     0.010 A 
HETATM   19  C   UNL     1     -14.853   5.667 -31.518  1.00  0.00     0.003 A 
HETATM   20  C   UNL     1     -13.613   5.056 -31.706  1.00  0.00     0.029 A 
BRANCH  17  21
HETATM   21  C   UNL     1     -17.221   2.718 -32.105  1.00  0.00     0.147 C 
HETATM   22  C   UNL     1     -18.480   3.531 -31.828  1.00  0.00     0.044 C 
BRANCH  21  23
HETATM   23  O   UNL     1     -17.308   2.162 -33.418  1.00  0.00    -0.391 OA
HETATM   24  H   UNL     1     -17.678   2.853 -33.992  1.00  0.00     0.210 HD
ENDBRANCH  21  23
ENDBRANCH  17  21
ENDBRANCH  12  15
ENDBRANCH   6  11
BRANCH   8  25
HETATM   25  C   UNL     1      -6.039   3.429 -32.660  1.00  0.00     0.409 C 
HETATM   26  F   UNL     1      -6.090   4.764 -32.862  1.00  0.00    -0.169 F 
HETATM   27  F   UNL     1      -6.484   3.183 -31.411  1.00  0.00    -0.169 F 
HETATM   28  F   UNL     1      -4.722   3.088 -32.672  1.00  0.00    -0.169 F 
ENDBRANCH   8  25
BRANCH   1  29
HETATM   29  C   UNL     1      -5.929  -1.107 -33.575  1.00  0.00    -0.035 A 
HETATM   30  C   UNL     1      -4.654  -1.698 -33.507  1.00  0.00     0.010 A 
HETATM   31  C   UNL     1      -4.427  -2.975 -34.024  1.00  0.00     0.007 A 
HETATM   32  C   UNL     1      -5.466  -3.688 -34.624  1.00  0.00    -0.062 A 
HETATM   33  C   UNL     1      -5.229  -5.074 -35.149  1.00  0.00     0.048 C 
HETATM   34  C   UNL     1      -6.743  -3.116 -34.676  1.00  0.00     0.007 A 
HETATM   35  C   UNL     1      -6.972  -1.836 -34.161  1.00  0.00     0.010 A 
ENDBRANCH   1  29
TORSDOF 6
ENDMDL
MODEL 7
REMARK VINA RESULT:      -9.2      2.475      3.584
REMARK  6 active torsions:
REMARK  status: ('A' for Active; 'I' for Inactive)
REMARK    1  A    between atoms: C_5  and  C_6 
REMARK    2  A    between atoms: C_11  and  C_12 
REMARK       I    between atoms: C_12  and  N_13 
REMARK    3  A    between atoms: N_13  and  C_14 
REMARK    4  A    between atoms: C_16  and  C_17 
REMARK    5  A    between atoms: C_17  and  O_18 
REMARK    6  A    between atoms: C_25  and  C_26 
ROOT
HETATM    1  C   UNL     1      -1.195   7.311 -31.140  1.00  0.00     0.118 C 
HETATM    2  N   UNL     1      -2.625   7.005 -31.030  1.00  0.00    -0.366 N 
HETATM    3  C   UNL     1      -3.131   5.815 -31.413  1.00  0.00     0.123 A 
HETATM    4  N   UNL     1      -2.438   4.995 -32.256  1.00  0.00    -0.240 N 
HETATM    5  N   UNL     1      -2.997   3.783 -32.429  1.00  0.00    -0.165 NA
HETATM    6  C   UNL     1      -4.149   3.871 -31.721  1.00  0.00     0.148 A 
HETATM    7  C   UNL     1      -4.287   5.149 -31.107  1.00  0.00     0.089 A 
HETATM    8  C   UNL     1      -1.117   5.323 -32.752  1.00  0.00     0.221 C 
HETATM    9  C   UNL     1      -0.374   6.113 -31.665  1.00  0.00     0.066 C 
HETATM   10  H   UNL     1      -3.137   7.599 -30.377  1.00  0.00     0.161 HD
ENDROOT
BRANCH   6  11
HETATM   11  C   UNL     1      -5.076   2.734 -31.584  1.00  0.00     0.276 C 
HETATM   12  N   UNL     1      -5.812   2.529 -32.735  1.00  0.00    -0.322 N 
HETATM   13  H   UNL     1      -5.641   3.229 -33.453  1.00  0.00     0.169 HD
HETATM   14  O   UNL     1      -5.131   2.076 -30.551  1.00  0.00    -0.266 OA
BRANCH  12  15
HETATM   15  C   UNL     1      -6.708   1.487 -33.024  1.00  0.00     0.035 A 
HETATM   16  C   UNL     1      -8.096   1.608 -32.926  1.00  0.00     0.039 A 
HETATM   17  C   UNL     1      -8.945   0.521 -33.205  1.00  0.00    -0.028 A 
HETATM   18  C   UNL     1      -8.373  -0.694 -33.602  1.00  0.00     0.010 A 
HETATM   19  C   UNL     1      -6.988  -0.825 -33.701  1.00  0.00     0.003 A 
HETATM   20  C   UNL     1      -6.160   0.259 -33.408  1.00  0.00     0.029 A 
BRANCH  17  21
HETATM   21  C   UNL     1     -10.443   0.704 -33.087  1.00  0.00     0.147 C 
HETATM   22  C   UNL     1     -11.032   1.332 -34.344  1.00  0.00     0.044 C 
BRANCH  21  23
HETATM   23  O   UNL     1     -11.088  -0.548 -32.849  1.00  0.00    -0.391 OA
HETATM   24  H   UNL     1     -11.958  -0.502 -33.278  1.00  0.00     0.210 HD
ENDBRANCH  21  23
ENDBRANCH  17  21
ENDBRANCH  12  15
ENDBRANCH   6  11
BRANCH   8  25
HETATM   25  C   UNL     1      -1.217   6.071 -34.060  1.00  0.00     0.409 C 
HETATM   26  F   UNL     1      -0.882   5.300 -35.118  1.00  0.00    -0.169 F 
HETATM   27  F   UNL     1      -2.437   6.593 -34.299  1.00  0.00    -0.169 F 
HETATM   28  F   UNL     1      -0.347   7.116 -34.055  1.00  0.00    -0.169 F 
ENDBRANCH   8  25
BRANCH   1  29
HETATM   29  C   UNL     1      -0.672   7.751 -29.781  1.00  0.00    -0.035 A 
HETATM   30  C   UNL     1      -1.483   8.488 -28.899  1.00  0.00     0.010 A 
HETATM   31  C   UNL     1      -1.007   8.880 -27.647  1.00  0.00     0.007 A 
HETATM   32  C   UNL     1       0.290   8.550 -27.249  1.00  0.00    -0.062 A 
HETATM   33  C   UNL     1       0.788   8.942 -25.889  1.00  0.00     0.048 C 
HETATM   34  C   UNL     1       1.095   7.797 -28.113  1.00  0.00     0.007 A 
HETATM   35  C   UNL     1       0.621   7.405 -29.369  1.00  0.00     0.010 A 
ENDBRANCH   1  29
TORSDOF 6
ENDMDL
MODEL 8
REMARK VINA RESULT:      -8.9      4.040      9.677
REMARK  6 active torsions:
REMARK  status: ('A' for Active; 'I' for Inactive)
REMARK    1  A    between atoms: C_5  and  C_6 
REMARK    2  A    between atoms: C_11  and  C_12 
REMARK       I    between atoms: C_12  and  N_13 
REMARK    3  A    between atoms: N_13  and  C_14 
REMARK    4  A    between atoms: C_16  and  C_17 
REMARK    5  A    between atoms: C_17  and  O_18 
REMARK    6  A    between atoms: C_25  and  C_26 
ROOT
HETATM    1  C   UNL     1      -7.482  -0.420 -34.360  1.00  0.00     0.118 C 
HETATM    2  N   UNL     1      -6.790   0.820 -34.726  1.00  0.00    -0.366 N 
HETATM    3  C   UNL     1      -6.887   1.938 -33.979  1.00  0.00     0.123 A 
HETATM    4  N   UNL     1      -7.905   2.100 -33.084  1.00  0.00    -0.240 N 
HETATM    5  N   UNL     1      -7.788   3.192 -32.307  1.00  0.00    -0.165 NA
HETATM    6  C   UNL     1      -6.677   3.798 -32.794  1.00  0.00     0.148 A 
HETATM    7  C   UNL     1      -6.113   3.061 -33.873  1.00  0.00     0.089 A 
HETATM    8  C   UNL     1      -8.907   1.079 -32.851  1.00  0.00     0.221 C 
HETATM    9  C   UNL     1      -8.248  -0.296 -33.024  1.00  0.00     0.066 C 
HETATM   10  H   UNL     1      -6.009   0.695 -35.372  1.00  0.00     0.161 HD
ENDROOT
BRANCH   6  11
HETATM   11  C   UNL     1      -6.131   5.031 -32.199  1.00  0.00     0.276 C 
HETATM   12  N   UNL     1      -4.889   4.821 -31.631  1.00  0.00    -0.322 N 
HETATM   13  H   UNL     1      -4.592   3.848 -31.659  1.00  0.00     0.169 HD
HETATM   14  O   UNL     1      -6.746   6.090 -32.248  1.00  0.00    -0.266 OA
BRANCH  12  15
HETATM   15  C   UNL     1      -4.015   5.766 -31.071  1.00  0.00     0.035 A 
HETATM   16  C   UNL     1      -2.800   6.138 -31.652  1.00  0.00     0.039 A 
HETATM   17  C   UNL     1      -1.951   7.073 -31.033  1.00  0.00    -0.028 A 
HETATM   18  C   UNL     1      -2.352   7.646 -29.819  1.00  0.00     0.010 A 
HETATM   19  C   UNL     1      -3.562   7.279 -29.230  1.00  0.00     0.003 A 
HETATM   20  C   UNL     1      -4.387   6.340 -29.851  1.00  0.00     0.029 A 
BRANCH  17  21
HETATM   21  C   UNL     1      -0.646   7.445 -31.704  1.00  0.00     0.147 C 
HETATM   22  C   UNL     1       0.534   6.705 -31.084  1.00  0.00     0.044 C 
BRANCH  21  23
HETATM   23  O   UNL     1      -0.694   7.151 -33.100  1.00  0.00    -0.391 OA
HETATM   24  H   UNL     1      -0.192   7.849 -33.552  1.00  0.00     0.210 HD
ENDBRANCH  21  23
ENDBRANCH  17  21
ENDBRANCH  12  15
ENDBRANCH   6  11
BRANCH   8  25
HETATM   25  C   UNL     1     -10.091   1.286 -33.766  1.00  0.00     0.409 C 
HETATM   26  F   UNL     1     -11.199   0.652 -33.321  1.00  0.00    -0.169 F 
HETATM   27  F   UNL     1     -10.408   2.581 -33.965  1.00  0.00    -0.169 F 
HETATM   28  F   UNL     1      -9.816   0.765 -34.992  1.00  0.00    -0.169 F 
ENDBRANCH   8  25
BRANCH   1  29
HETATM   29  C   UNL     1      -6.472  -1.553 -34.283  1.00  0.00    -0.035 A 
HETATM   30  C   UNL     1      -6.762  -2.819 -34.824  1.00  0.00     0.010 A 
HETATM   31  C   UNL     1      -5.829  -3.855 -34.765  1.00  0.00     0.007 A 
HETATM   32  C   UNL     1      -4.586  -3.653 -34.161  1.00  0.00    -0.062 A 
HETATM   33  C   UNL     1      -3.571  -4.757 -34.128  1.00  0.00     0.048 C 
HETATM   34  C   UNL     1      -4.281  -2.389 -33.640  1.00  0.00     0.007 A 
HETATM   35  C   UNL     1      -5.216  -1.350 -33.696  1.00  0.00     0.010 A 
ENDBRANCH   1  29
TORSDOF 6
ENDMDL
MODEL 9
REMARK VINA RESULT:      -8.7      5.969      7.971
REMARK  6 active torsions:
REMARK  status: ('A' for Active; 'I' for Inactive)
REMARK    1  A    between atoms: C_5  and  C_6 
REMARK    2  A    between atoms: C_11  and  C_12 
REMARK       I    between atoms: C_12  and  N_13 
REMARK    3  A    between atoms: N_13  and  C_14 
REMARK    4  A    between atoms: C_16  and  C_17 
REMARK    5  A    between atoms: C_17  and  O_18 
REMARK    6  A    between atoms: C_25  and  C_26 
ROOT
HETATM    1  C   UNL     1      -4.509   2.347 -32.261  1.00  0.00     0.118 C 
HETATM    2  N   UNL     1      -5.368   2.112 -33.426  1.00  0.00    -0.366 N 
HETATM    3  C   UNL     1      -6.708   2.005 -33.315  1.00  0.00     0.123 A 
HETATM    4  N   UNL     1      -7.294   1.729 -32.113  1.00  0.00    -0.240 N 
HETATM    5  N   UNL     1      -8.637   1.802 -32.125  1.00  0.00    -0.165 NA
HETATM    6  C   UNL     1      -8.920   2.058 -33.425  1.00  0.00     0.148 A 
HETATM    7  C   UNL     1      -7.734   2.146 -34.208  1.00  0.00     0.089 A 
HETATM    8  C   UNL     1      -6.531   1.579 -30.890  1.00  0.00     0.221 C 
HETATM    9  C   UNL     1      -5.318   2.518 -30.957  1.00  0.00     0.066 C 
HETATM   10  H   UNL     1      -4.940   2.346 -34.323  1.00  0.00     0.161 HD
ENDROOT
BRANCH   6  11
HETATM   11  C   UNL     1     -10.298   2.272 -33.902  1.00  0.00     0.276 C 
HETATM   12  N   UNL     1     -11.207   1.491 -33.214  1.00  0.00    -0.322 N 
HETATM   13  H   UNL     1     -10.772   0.857 -32.548  1.00  0.00     0.169 HD
HETATM   14  O   UNL     1     -10.547   3.074 -34.795  1.00  0.00    -0.266 OA
BRANCH  12  15
HETATM   15  C   UNL     1     -12.608   1.497 -33.307  1.00  0.00     0.035 A 
HETATM   16  C   UNL     1     -13.425   2.415 -32.643  1.00  0.00     0.039 A 
HETATM   17  C   UNL     1     -14.827   2.357 -32.753  1.00  0.00    -0.028 A 
HETATM   18  C   UNL     1     -15.398   1.364 -33.560  1.00  0.00     0.010 A 
HETATM   19  C   UNL     1     -14.590   0.442 -34.224  1.00  0.00     0.003 A 
HETATM   20  C   UNL     1     -13.202   0.505 -34.094  1.00  0.00     0.029 A 
BRANCH  17  21
HETATM   21  C   UNL     1     -15.669   3.377 -32.016  1.00  0.00     0.147 C 
HETATM   22  C   UNL     1     -14.937   4.706 -31.868  1.00  0.00     0.044 C 
BRANCH  21  23
HETATM   23  O   UNL     1     -16.903   3.602 -32.699  1.00  0.00    -0.391 OA
HETATM   24  H   UNL     1     -16.677   3.898 -33.597  1.00  0.00     0.210 HD
ENDBRANCH  21  23
ENDBRANCH  17  21
ENDBRANCH  12  15
ENDBRANCH   6  11
BRANCH   8  25
HETATM   25  C   UNL     1      -6.146   0.132 -30.685  1.00  0.00     0.409 C 
HETATM   26  F   UNL     1      -6.861  -0.453 -29.698  1.00  0.00    -0.169 F 
HETATM   27  F   UNL     1      -6.270  -0.628 -31.792  1.00  0.00    -0.169 F 
HETATM   28  F   UNL     1      -4.841   0.057 -30.311  1.00  0.00    -0.169 F 
ENDBRANCH   8  25
BRANCH   1  29
HETATM   29  C   UNL     1      -3.651   3.576 -32.512  1.00  0.00    -0.035 A 
HETATM   30  C   UNL     1      -2.541   3.862 -31.698  1.00  0.00     0.010 A 
HETATM   31  C   UNL     1      -1.745   4.984 -31.937  1.00  0.00     0.007 A 
HETATM   32  C   UNL     1      -2.044   5.849 -32.992  1.00  0.00    -0.062 A 
HETATM   33  C   UNL     1      -1.169   7.035 -33.270  1.00  0.00     0.048 C 
HETATM   34  C   UNL     1      -3.135   5.559 -33.821  1.00  0.00     0.007 A 
HETATM   35  C   UNL     1      -3.934   4.436 -33.582  1.00  0.00     0.010 A 
ENDBRANCH   1  29
TORSDOF 6
ENDMDL
MODEL 10
REMARK VINA RESULT:      -8.7      4.219     10.055
REMARK  6 active torsions:
REMARK  status: ('A' for Active; 'I' for Inactive)
REMARK    1  A    between atoms: C_5  and  C_6 
REMARK    2  A    between atoms: C_11  and  C_12 
REMARK       I    between atoms: C_12  and  N_13 
REMARK    3  A    between atoms: N_13  and  C_14 
REMARK    4  A    between atoms: C_16  and  C_17 
REMARK    5  A    between atoms: C_17  and  O_18 
REMARK    6  A    between atoms: C_25  and  C_26 
ROOT
HETATM    1  C   UNL     1      -7.512  -0.229 -34.230  1.00  0.00     0.118 C 
HETATM    2  N   UNL     1      -6.837   0.993 -34.679  1.00  0.00    -0.366 N 
HETATM    3  C   UNL     1      -6.868   2.131 -33.957  1.00  0.00     0.123 A 
HETATM    4  N   UNL     1      -7.817   2.328 -32.995  1.00  0.00    -0.240 N 
HETATM    5  N   UNL     1      -7.633   3.439 -32.258  1.00  0.00    -0.165 NA
HETATM    6  C   UNL     1      -6.555   4.019 -32.840  1.00  0.00     0.148 A 
HETATM    7  C   UNL     1      -6.078   3.248 -33.937  1.00  0.00     0.089 A 
HETATM    8  C   UNL     1      -8.809   1.326 -32.662  1.00  0.00     0.221 C 
HETATM    9  C   UNL     1      -8.177  -0.061 -32.846  1.00  0.00     0.066 C 
HETATM   10  H   UNL     1      -6.106   0.842 -35.376  1.00  0.00     0.161 HD
ENDROOT
BRANCH   6  11
HETATM   11  C   UNL     1      -5.955   5.261 -32.319  1.00  0.00     0.276 C 
HETATM   12  N   UNL     1      -5.488   5.104 -31.029  1.00  0.00    -0.322 N 
HETATM   13  H   UNL     1      -5.692   4.188 -30.634  1.00  0.00     0.169 HD
HETATM   14  O   UNL     1      -5.894   6.275 -33.004  1.00  0.00    -0.266 OA
BRANCH  12  15
HETATM   15  C   UNL     1      -4.764   6.017 -30.246  1.00  0.00     0.035 A 
HETATM   16  C   UNL     1      -5.321   6.751 -29.196  1.00  0.00     0.039 A 
HETATM   17  C   UNL     1      -4.552   7.672 -28.461  1.00  0.00    -0.028 A 
HETATM   18  C   UNL     1      -3.200   7.833 -28.789  1.00  0.00     0.010 A 
HETATM   19  C   UNL     1      -2.636   7.107 -29.837  1.00  0.00     0.003 A 
HETATM   20  C   UNL     1      -3.415   6.207 -30.565  1.00  0.00     0.029 A 
BRANCH  17  21
HETATM   21  C   UNL     1      -5.202   8.441 -27.330  1.00  0.00     0.147 C 
HETATM   22  C   UNL     1      -6.683   8.687 -27.597  1.00  0.00     0.044 C 
BRANCH  21  23
HETATM   23  O   UNL     1      -5.065   7.737 -26.095  1.00  0.00    -0.391 OA
HETATM   24  H   UNL     1      -4.748   8.379 -25.439  1.00  0.00     0.210 HD
ENDBRANCH  21  23
ENDBRANCH  17  21
ENDBRANCH  12  15
ENDBRANCH   6  11
BRANCH   8  25
HETATM   25  C   UNL     1     -10.055   1.521 -33.494  1.00  0.00     0.409 C 
HETATM   26  F   UNL     1      -9.792   2.113 -34.680  1.00  0.00    -0.169 F 
HETATM   27  F   UNL     1     -10.730   0.380 -33.742  1.00  0.00    -0.169 F 
HETATM   28  F   UNL     1     -10.916   2.343 -32.837  1.00  0.00    -0.169 F 
ENDBRANCH   8  25
BRANCH   1  29
HETATM   29  C   UNL     1      -6.509  -1.371 -34.197  1.00  0.00    -0.035 A 
HETATM   30  C   UNL     1      -6.830  -2.631 -34.733  1.00  0.00     0.010 A 
HETATM   31  C   UNL     1      -5.905  -3.676 -34.715  1.00  0.00     0.007 A 
HETATM   32  C   UNL     1      -4.639  -3.487 -34.155  1.00  0.00    -0.062 A 
HETATM   33  C   UNL     1      -3.633  -4.600 -34.166  1.00  0.00     0.048 C 
HETATM   34  C   UNL     1      -4.304  -2.229 -33.639  1.00  0.00     0.007 A 
HETATM   35  C   UNL     1      -5.231  -1.182 -33.655  1.00  0.00     0.010 A 
ENDBRANCH   1  29
TORSDOF 6
ENDMDL
