MODEL 1
REMARK VINA RESULT:      -8.7      0.000      0.000
REMARK  8 active torsions:
REMARK  status: ('A' for Active; 'I' for Inactive)
REMARK    1  A    between atoms: N_2  and  C_3 
REMARK    2  A    between atoms: C_6  and  N_7 
REMARK       I    between atoms: N_7  and  C_8 
REMARK    3  A    between atoms: C_8  and  C_9 
REMARK    4  A    between atoms: C_9  and  O_10 
REMARK    5  A    between atoms: O_10  and  C_11 
REMARK    6  A    between atoms: C_11  and  C_12 
REMARK    7  A    between atoms: C_13  and  N_14 
REMARK       I    between atoms: N_14  and  C_15 
REMARK    8  A    between atoms: C_15  and  C_16 
ROOT
HETATM    1  C   UNL     1      -3.747   4.868 -31.305  1.00  0.00     0.296 C 
HETATM    2  O   UNL     1      -4.074   5.651 -30.425  1.00  0.00    -0.259 OA
ENDROOT
BRANCH   1   3
HETATM    3  O   UNL     1      -3.980   3.534 -31.316  1.00  0.00    -0.308 OA
BRANCH   3   4
HETATM    4  C   UNL     1      -5.352   3.162 -31.192  1.00  0.00     0.282 C 
BRANCH   4   5
HETATM    5  C   UNL     1      -5.634   1.680 -31.466  1.00  0.00     0.246 C 
HETATM    6  N   UNL     1      -5.341   1.305 -32.765  1.00  0.00    -0.325 N 
HETATM    7  H   UNL     1      -5.079   2.064 -33.397  1.00  0.00     0.169 HD
HETATM    8  O   UNL     1      -6.062   0.948 -30.576  1.00  0.00    -0.271 OA
BRANCH   6   9
HETATM    9  C   UNL     1      -5.412   0.020 -33.335  1.00  0.00     0.034 A 
HETATM   10  C   UNL     1      -6.528  -0.485 -33.994  1.00  0.00     0.032 A 
HETATM   11  C   UNL     1      -6.521  -1.791 -34.513  1.00  0.00     0.031 A 
HETATM   12  C   UNL     1      -5.402  -2.630 -34.408  1.00  0.00     0.029 A 
HETATM   13  C   UNL     1      -4.293  -2.102 -33.730  1.00  0.00     0.031 A 
HETATM   14  C   UNL     1      -4.292  -0.801 -33.204  1.00  0.00     0.032 A 
BRANCH  12  15
HETATM   15  N   UNL     1      -5.378  -3.947 -34.894  1.00  0.00    -0.390 N 
HETATM   16  C   UNL     1      -6.667  -4.465 -35.365  1.00  0.00     0.149 C 
HETATM   17  C   UNL     1      -4.558  -4.931 -34.187  1.00  0.00     0.149 C 
ENDBRANCH  12  15
ENDBRANCH   6   9
ENDBRANCH   4   5
ENDBRANCH   3   4
ENDBRANCH   1   3
BRANCH   1  18
HETATM   18  C   UNL     1      -2.973   5.245 -32.506  1.00  0.00     0.066 A 
HETATM   19  C   UNL     1      -1.676   5.782 -32.430  1.00  0.00     0.051 A 
HETATM   20  C   UNL     1      -0.909   5.844 -33.605  1.00  0.00     0.030 A 
HETATM   21  C   UNL     1      -1.443   5.461 -34.838  1.00  0.00     0.002 A 
HETATM   22  C   UNL     1      -2.748   4.985 -34.913  1.00  0.00     0.001 A 
HETATM   23  C   UNL     1      -3.506   4.861 -33.751  1.00  0.00     0.020 A 
BRANCH  19  24
HETATM   24  N   UNL     1      -1.049   6.291 -31.271  1.00  0.00    -0.320 N 
HETATM   25  C   UNL     1      -0.326   5.572 -30.333  1.00  0.00     0.279 C 
HETATM   26  O   UNL     1      -0.138   4.360 -30.374  1.00  0.00    -0.265 OA
HETATM   27  H   UNL     1      -1.323   7.218 -30.957  1.00  0.00     0.169 HD
BRANCH  25  28
HETATM   28  C   UNL     1       0.118   6.390 -29.219  1.00  0.00     0.142 A 
HETATM   29  O   UNL     1       0.327   5.806 -27.993  1.00  0.00    -0.317 OA
HETATM   30  C   UNL     1       0.748   6.784 -27.151  1.00  0.00     0.143 A 
HETATM   31  C   UNL     1       0.824   7.989 -27.809  1.00  0.00     0.027 A 
HETATM   32  C   UNL     1       0.418   7.737 -29.141  1.00  0.00     0.045 A 
ENDBRANCH  25  28
ENDBRANCH  19  24
ENDBRANCH   1  18
TORSDOF 8
ENDMDL
MODEL 2
REMARK VINA RESULT:      -8.4      2.624      5.197
REMARK  8 active torsions:
REMARK  status: ('A' for Active; 'I' for Inactive)
REMARK    1  A    between atoms: N_2  and  C_3 
REMARK    2  A    between atoms: C_6  and  N_7 
REMARK       I    between atoms: N_7  and  C_8 
REMARK    3  A    between atoms: C_8  and  C_9 
REMARK    4  A    between atoms: C_9  and  O_10 
REMARK    5  A    between atoms: O_10  and  C_11 
REMARK    6  A    between atoms: C_11  and  C_12 
REMARK    7  A    between atoms: C_13  and  N_14 
REMARK       I    between atoms: N_14  and  C_15 
REMARK    8  A    between atoms: C_15  and  C_16 
ROOT
HETATM    1  C   UNL     1      -3.933   4.585 -31.231  1.00  0.00     0.296 C 
HETATM    2  O   UNL     1      -4.172   5.532 -30.496  1.00  0.00    -0.259 OA
ENDROOT
BRANCH   1   3
HETATM    3  O   UNL     1      -4.165   3.279 -30.954  1.00  0.00    -0.308 OA
BRANCH   3   4
HETATM    4  C   UNL     1      -5.540   2.928 -30.822  1.00  0.00     0.282 C 
BRANCH   4   5
HETATM    5  C   UNL     1      -5.874   1.494 -31.254  1.00  0.00     0.246 C 
HETATM    6  N   UNL     1      -5.314   1.154 -32.473  1.00  0.00    -0.325 N 
HETATM    7  H   UNL     1      -4.848   1.913 -32.974  1.00  0.00     0.169 HD
HETATM    8  O   UNL     1      -6.559   0.767 -30.538  1.00  0.00    -0.271 OA
BRANCH   6   9
HETATM    9  C   UNL     1      -5.356  -0.090 -33.130  1.00  0.00     0.034 A 
HETATM   10  C   UNL     1      -6.332  -0.459 -34.049  1.00  0.00     0.032 A 
HETATM   11  C   UNL     1      -6.311  -1.733 -34.642  1.00  0.00     0.031 A 
HETATM   12  C   UNL     1      -5.312  -2.675 -34.352  1.00  0.00     0.029 A 
HETATM   13  C   UNL     1      -4.345  -2.282 -33.413  1.00  0.00     0.031 A 
HETATM   14  C   UNL     1      -4.360  -1.015 -32.814  1.00  0.00     0.032 A 
BRANCH  12  15
HETATM   15  N   UNL     1      -5.283  -3.963 -34.908  1.00  0.00    -0.390 N 
HETATM   16  C   UNL     1      -6.573  -4.469 -35.386  1.00  0.00     0.149 C 
HETATM   17  C   UNL     1      -4.441  -4.974 -34.269  1.00  0.00     0.149 C 
ENDBRANCH  12  15
ENDBRANCH   6   9
ENDBRANCH   4   5
ENDBRANCH   3   4
ENDBRANCH   1   3
BRANCH   1  18
HETATM   18  C   UNL     1      -3.281   4.702 -32.551  1.00  0.00     0.066 A 
HETATM   19  C   UNL     1      -4.013   4.795 -33.749  1.00  0.00     0.051 A 
HETATM   20  C   UNL     1      -3.338   5.187 -34.916  1.00  0.00     0.030 A 
HETATM   21  C   UNL     1      -1.958   5.402 -34.915  1.00  0.00     0.002 A 
HETATM   22  C   UNL     1      -1.231   5.252 -33.739  1.00  0.00     0.001 A 
HETATM   23  C   UNL     1      -1.890   4.919 -32.557  1.00  0.00     0.020 A 
BRANCH  19  24
HETATM   24  N   UNL     1      -5.388   4.515 -33.911  1.00  0.00    -0.320 N 
HETATM   25  C   UNL     1      -6.451   5.316 -33.523  1.00  0.00     0.279 C 
HETATM   26  O   UNL     1      -6.340   6.400 -32.958  1.00  0.00    -0.265 OA
HETATM   27  H   UNL     1      -5.652   3.557 -34.122  1.00  0.00     0.169 HD
BRANCH  25  28
HETATM   28  C   UNL     1      -7.740   4.695 -33.766  1.00  0.00     0.142 A 
HETATM   29  O   UNL     1      -8.658   5.335 -34.562  1.00  0.00    -0.317 OA
HETATM   30  C   UNL     1      -9.753   4.534 -34.632  1.00  0.00     0.143 A 
HETATM   31  C   UNL     1      -9.558   3.385 -33.904  1.00  0.00     0.027 A 
HETATM   32  C   UNL     1      -8.263   3.487 -33.344  1.00  0.00     0.045 A 
ENDBRANCH  25  28
ENDBRANCH  19  24
ENDBRANCH   1  18
TORSDOF 8
ENDMDL
MODEL 3
REMARK VINA RESULT:      -8.0      6.380      9.586
REMARK  8 active torsions:
REMARK  status: ('A' for Active; 'I' for Inactive)
REMARK    1  A    between atoms: N_2  and  C_3 
REMARK    2  A    between atoms: C_6  and  N_7 
REMARK       I    between atoms: N_7  and  C_8 
REMARK    3  A    between atoms: C_8  and  C_9 
REMARK    4  A    between atoms: C_9  and  O_10 
REMARK    5  A    between atoms: O_10  and  C_11 
REMARK    6  A    between atoms: C_11  and  C_12 
REMARK    7  A    between atoms: C_13  and  N_14 
REMARK       I    between atoms: N_14  and  C_15 
REMARK    8  A    between atoms: C_15  and  C_16 
ROOT
HETATM    1  C   UNL     1      -9.740   5.244 -34.339  1.00  0.00     0.296 C 
HETATM    2  O   UNL     1      -8.564   5.215 -34.674  1.00  0.00    -0.259 OA
ENDROOT
BRANCH   1   3
HETATM    3  O   UNL     1     -10.265   4.696 -33.217  1.00  0.00    -0.308 OA
BRANCH   3   4
HETATM    4  C   UNL     1      -9.315   4.095 -32.340  1.00  0.00     0.282 C 
BRANCH   4   5
HETATM    5  C   UNL     1      -9.077   2.600 -32.591  1.00  0.00     0.246 C 
HETATM    6  N   UNL     1      -7.899   2.349 -33.272  1.00  0.00    -0.325 N 
HETATM    7  H   UNL     1      -7.397   3.173 -33.610  1.00  0.00     0.169 HD
HETATM    8  O   UNL     1      -9.879   1.761 -32.188  1.00  0.00    -0.271 OA
BRANCH   6   9
HETATM    9  C   UNL     1      -7.338   1.102 -33.604  1.00  0.00     0.034 A 
HETATM   10  C   UNL     1      -6.315   0.487 -32.889  1.00  0.00     0.032 A 
HETATM   11  C   UNL     1      -5.795  -0.751 -33.305  1.00  0.00     0.031 A 
HETATM   12  C   UNL     1      -6.285  -1.424 -34.434  1.00  0.00     0.029 A 
HETATM   13  C   UNL     1      -7.310  -0.778 -35.145  1.00  0.00     0.031 A 
HETATM   14  C   UNL     1      -7.831   0.459 -34.739  1.00  0.00     0.032 A 
BRANCH  12  15
HETATM   15  N   UNL     1      -5.767  -2.647 -34.887  1.00  0.00    -0.390 N 
HETATM   16  C   UNL     1      -6.697  -3.780 -34.833  1.00  0.00     0.149 C 
HETATM   17  C   UNL     1      -4.387  -2.986 -34.540  1.00  0.00     0.149 C 
ENDBRANCH  12  15
ENDBRANCH   6   9
ENDBRANCH   4   5
ENDBRANCH   3   4
ENDBRANCH   1   3
BRANCH   1  18
HETATM   18  C   UNL     1     -10.819   5.845 -35.148  1.00  0.00     0.066 A 
HETATM   19  C   UNL     1     -12.110   5.290 -35.219  1.00  0.00     0.051 A 
HETATM   20  C   UNL     1     -13.142   6.065 -35.770  1.00  0.00     0.030 A 
HETATM   21  C   UNL     1     -12.888   7.327 -36.312  1.00  0.00     0.002 A 
HETATM   22  C   UNL     1     -11.597   7.846 -36.291  1.00  0.00     0.001 A 
HETATM   23  C   UNL     1     -10.569   7.117 -35.698  1.00  0.00     0.020 A 
BRANCH  19  24
HETATM   24  N   UNL     1     -12.485   3.995 -34.796  1.00  0.00    -0.320 N 
HETATM   25  C   UNL     1     -12.557   2.853 -35.578  1.00  0.00     0.279 C 
HETATM   26  O   UNL     1     -12.312   2.813 -36.780  1.00  0.00    -0.265 OA
HETATM   27  H   UNL     1     -12.961   3.911 -33.903  1.00  0.00     0.169 HD
BRANCH  25  28
HETATM   28  C   UNL     1     -13.055   1.702 -34.848  1.00  0.00     0.142 A 
HETATM   29  O   UNL     1     -14.405   1.573 -34.630  1.00  0.00    -0.317 OA
HETATM   30  C   UNL     1     -14.590   0.414 -33.947  1.00  0.00     0.143 A 
HETATM   31  C   UNL     1     -13.388  -0.214 -33.726  1.00  0.00     0.027 A 
HETATM   32  C   UNL     1     -12.397   0.615 -34.304  1.00  0.00     0.045 A 
ENDBRANCH  25  28
ENDBRANCH  19  24
ENDBRANCH   1  18
TORSDOF 8
ENDMDL
MODEL 4
REMARK VINA RESULT:      -8.0      5.101      9.241
REMARK  8 active torsions:
REMARK  status: ('A' for Active; 'I' for Inactive)
REMARK    1  A    between atoms: N_2  and  C_3 
REMARK    2  A    between atoms: C_6  and  N_7 
REMARK       I    between atoms: N_7  and  C_8 
REMARK    3  A    between atoms: C_8  and  C_9 
REMARK    4  A    between atoms: C_9  and  O_10 
REMARK    5  A    between atoms: O_10  and  C_11 
REMARK    6  A    between atoms: C_11  and  C_12 
REMARK    7  A    between atoms: C_13  and  N_14 
REMARK       I    between atoms: N_14  and  C_15 
REMARK    8  A    between atoms: C_15  and  C_16 
ROOT
HETATM    1  C   UNL     1      -4.954  -0.269 -32.397  1.00  0.00     0.296 C 
HETATM    2  O   UNL     1      -4.038   0.501 -32.647  1.00  0.00    -0.259 OA
ENDROOT
BRANCH   1   3
HETATM    3  O   UNL     1      -5.812  -0.179 -31.353  1.00  0.00    -0.308 OA
BRANCH   3   4
HETATM    4  C   UNL     1      -5.407   0.713 -30.317  1.00  0.00     0.282 C 
BRANCH   4   5
HETATM    5  C   UNL     1      -6.118   2.072 -30.335  1.00  0.00     0.246 C 
HETATM    6  N   UNL     1      -7.343   2.031 -30.976  1.00  0.00    -0.325 N 
HETATM    7  H   UNL     1      -7.573   1.149 -31.439  1.00  0.00     0.169 HD
HETATM    8  O   UNL     1      -5.606   3.054 -29.803  1.00  0.00    -0.271 OA
BRANCH   6   9
HETATM    9  C   UNL     1      -8.286   3.067 -31.114  1.00  0.00     0.034 A 
HETATM   10  C   UNL     1      -9.500   3.119 -30.437  1.00  0.00     0.032 A 
HETATM   11  C   UNL     1     -10.394   4.181 -30.653  1.00  0.00     0.031 A 
HETATM   12  C   UNL     1     -10.105   5.232 -31.536  1.00  0.00     0.029 A 
HETATM   13  C   UNL     1      -8.879   5.152 -32.215  1.00  0.00     0.031 A 
HETATM   14  C   UNL     1      -7.982   4.093 -32.009  1.00  0.00     0.032 A 
BRANCH  12  15
HETATM   15  N   UNL     1     -10.991   6.291 -31.791  1.00  0.00    -0.390 N 
HETATM   16  C   UNL     1     -11.747   6.187 -33.043  1.00  0.00     0.149 C 
HETATM   17  C   UNL     1     -10.561   7.649 -31.460  1.00  0.00     0.149 C 
ENDBRANCH  12  15
ENDBRANCH   6   9
ENDBRANCH   4   5
ENDBRANCH   3   4
ENDBRANCH   1   3
BRANCH   1  18
HETATM   18  C   UNL     1      -5.251  -1.488 -33.178  1.00  0.00     0.066 A 
HETATM   19  C   UNL     1      -6.441  -1.644 -33.910  1.00  0.00     0.051 A 
HETATM   20  C   UNL     1      -6.520  -2.693 -34.841  1.00  0.00     0.030 A 
HETATM   21  C   UNL     1      -5.477  -3.612 -34.985  1.00  0.00     0.002 A 
HETATM   22  C   UNL     1      -4.326  -3.484 -34.214  1.00  0.00     0.001 A 
HETATM   23  C   UNL     1      -4.204  -2.418 -33.326  1.00  0.00     0.020 A 
BRANCH  19  24
HETATM   24  N   UNL     1      -7.602  -0.848 -33.797  1.00  0.00    -0.320 N 
HETATM   25  C   UNL     1      -7.908   0.285 -34.534  1.00  0.00     0.279 C 
HETATM   26  O   UNL     1      -7.186   0.773 -35.398  1.00  0.00    -0.265 OA
HETATM   27  H   UNL     1      -8.172  -0.962 -32.964  1.00  0.00     0.169 HD
BRANCH  25  28
HETATM   28  C   UNL     1      -9.147   0.913 -34.111  1.00  0.00     0.142 A 
HETATM   29  O   UNL     1      -9.474   2.155 -34.597  1.00  0.00    -0.317 OA
HETATM   30  C   UNL     1     -10.675   2.491 -34.058  1.00  0.00     0.143 A 
HETATM   31  C   UNL     1     -11.135   1.487 -33.240  1.00  0.00     0.027 A 
HETATM   32  C   UNL     1     -10.152   0.470 -33.272  1.00  0.00     0.045 A 
ENDBRANCH  25  28
ENDBRANCH  19  24
ENDBRANCH   1  18
TORSDOF 8
ENDMDL
MODEL 5
REMARK VINA RESULT:      -7.9      2.644      9.001
REMARK  8 active torsions:
REMARK  status: ('A' for Active; 'I' for Inactive)
REMARK    1  A    between atoms: N_2  and  C_3 
REMARK    2  A    between atoms: C_6  and  N_7 
REMARK       I    between atoms: N_7  and  C_8 
REMARK    3  A    between atoms: C_8  and  C_9 
REMARK    4  A    between atoms: C_9  and  O_10 
REMARK    5  A    between atoms: O_10  and  C_11 
REMARK    6  A    between atoms: C_11  and  C_12 
REMARK    7  A    between atoms: C_13  and  N_14 
REMARK       I    between atoms: N_14  and  C_15 
REMARK    8  A    between atoms: C_15  and  C_16 
ROOT
HETATM    1  C   UNL     1      -4.229   4.871 -34.051  1.00  0.00     0.296 C 
HETATM    2  O   UNL     1      -4.855   4.857 -35.101  1.00  0.00    -0.259 OA
ENDROOT
BRANCH   1   3
HETATM    3  O   UNL     1      -2.909   4.603 -33.903  1.00  0.00    -0.308 OA
BRANCH   3   4
HETATM    4  C   UNL     1      -2.031   5.604 -34.413  1.00  0.00     0.282 C 
BRANCH   4   5
HETATM    5  C   UNL     1      -1.638   6.682 -33.395  1.00  0.00     0.246 C 
HETATM    6  N   UNL     1      -1.496   6.185 -32.112  1.00  0.00    -0.325 N 
HETATM    7  H   UNL     1      -1.766   5.207 -31.981  1.00  0.00     0.169 HD
HETATM    8  O   UNL     1      -1.466   7.846 -33.749  1.00  0.00    -0.271 OA
BRANCH   6   9
HETATM    9  C   UNL     1      -1.079   6.872 -30.956  1.00  0.00     0.034 A 
HETATM   10  C   UNL     1      -1.867   7.780 -30.256  1.00  0.00     0.032 A 
HETATM   11  C   UNL     1      -1.361   8.440 -29.123  1.00  0.00     0.031 A 
HETATM   12  C   UNL     1      -0.064   8.210 -28.641  1.00  0.00     0.029 A 
HETATM   13  C   UNL     1       0.715   7.298 -29.371  1.00  0.00     0.031 A 
HETATM   14  C   UNL     1       0.220   6.637 -30.505  1.00  0.00     0.032 A 
BRANCH  12  15
HETATM   15  N   UNL     1       0.475   8.876 -27.529  1.00  0.00    -0.390 N 
HETATM   16  C   UNL     1       1.315   8.053 -26.653  1.00  0.00     0.149 C 
HETATM   17  C   UNL     1      -0.370   9.837 -26.821  1.00  0.00     0.149 C 
ENDBRANCH  12  15
ENDBRANCH   6   9
ENDBRANCH   4   5
ENDBRANCH   3   4
ENDBRANCH   1   3
BRANCH   1  18
HETATM   18  C   UNL     1      -4.831   5.134 -32.728  1.00  0.00     0.066 A 
HETATM   19  C   UNL     1      -4.902   4.154 -31.722  1.00  0.00     0.051 A 
HETATM   20  C   UNL     1      -5.224   4.557 -30.416  1.00  0.00     0.030 A 
HETATM   21  C   UNL     1      -5.547   5.886 -30.130  1.00  0.00     0.002 A 
HETATM   22  C   UNL     1      -5.531   6.840 -31.142  1.00  0.00     0.001 A 
HETATM   23  C   UNL     1      -5.159   6.471 -32.433  1.00  0.00     0.020 A 
BRANCH  19  24
HETATM   24  N   UNL     1      -4.692   2.767 -31.892  1.00  0.00    -0.320 N 
HETATM   25  C   UNL     1      -3.531   2.062 -31.617  1.00  0.00     0.279 C 
HETATM   26  O   UNL     1      -2.494   2.562 -31.192  1.00  0.00    -0.265 OA
HETATM   27  H   UNL     1      -5.355   2.258 -32.470  1.00  0.00     0.169 HD
BRANCH  25  28
HETATM   28  C   UNL     1      -3.627   0.660 -31.980  1.00  0.00     0.142 A 
HETATM   29  O   UNL     1      -2.848  -0.262 -31.322  1.00  0.00    -0.317 OA
HETATM   30  C   UNL     1      -3.147  -1.480 -31.842  1.00  0.00     0.143 A 
HETATM   31  C   UNL     1      -4.110  -1.367 -32.817  1.00  0.00     0.027 A 
HETATM   32  C   UNL     1      -4.419   0.011 -32.908  1.00  0.00     0.045 A 
ENDBRANCH  25  28
ENDBRANCH  19  24
ENDBRANCH   1  18
TORSDOF 8
ENDMDL
MODEL 6
REMARK VINA RESULT:      -7.8      2.068      3.898
REMARK  8 active torsions:
REMARK  status: ('A' for Active; 'I' for Inactive)
REMARK    1  A    between atoms: N_2  and  C_3 
REMARK    2  A    between atoms: C_6  and  N_7 
REMARK       I    between atoms: N_7  and  C_8 
REMARK    3  A    between atoms: C_8  and  C_9 
REMARK    4  A    between atoms: C_9  and  O_10 
REMARK    5  A    between atoms: O_10  and  C_11 
REMARK    6  A    between atoms: C_11  and  C_12 
REMARK    7  A    between atoms: C_13  and  N_14 
REMARK       I    between atoms: N_14  and  C_15 
REMARK    8  A    between atoms: C_15  and  C_16 
ROOT
HETATM    1  C   UNL     1      -2.158   4.423 -32.109  1.00  0.00     0.296 C 
HETATM    2  O   UNL     1      -2.389   4.339 -33.307  1.00  0.00    -0.259 OA
ENDROOT
BRANCH   1   3
HETATM    3  O   UNL     1      -2.515   3.524 -31.161  1.00  0.00    -0.308 OA
BRANCH   3   4
HETATM    4  C   UNL     1      -3.786   2.911 -31.362  1.00  0.00     0.282 C 
BRANCH   4   5
HETATM    5  C   UNL     1      -3.721   1.431 -31.760  1.00  0.00     0.246 C 
HETATM    6  N   UNL     1      -4.742   1.057 -32.615  1.00  0.00    -0.325 N 
HETATM    7  H   UNL     1      -5.458   1.767 -32.789  1.00  0.00     0.169 HD
HETATM    8  O   UNL     1      -2.820   0.708 -31.340  1.00  0.00    -0.271 OA
BRANCH   6   9
HETATM    9  C   UNL     1      -4.947  -0.193 -33.228  1.00  0.00     0.034 A 
HETATM   10  C   UNL     1      -6.049  -0.510 -34.015  1.00  0.00     0.032 A 
HETATM   11  C   UNL     1      -6.186  -1.794 -34.571  1.00  0.00     0.031 A 
HETATM   12  C   UNL     1      -5.225  -2.797 -34.377  1.00  0.00     0.029 A 
HETATM   13  C   UNL     1      -4.127  -2.456 -33.571  1.00  0.00     0.031 A 
HETATM   14  C   UNL     1      -3.985  -1.179 -33.008  1.00  0.00     0.032 A 
BRANCH  12  15
HETATM   15  N   UNL     1      -5.349  -4.095 -34.897  1.00  0.00    -0.390 N 
HETATM   16  C   UNL     1      -6.693  -4.458 -35.359  1.00  0.00     0.149 C 
HETATM   17  C   UNL     1      -4.629  -5.180 -34.232  1.00  0.00     0.149 C 
ENDBRANCH  12  15
ENDBRANCH   6   9
ENDBRANCH   4   5
ENDBRANCH   3   4
ENDBRANCH   1   3
BRANCH   1  18
HETATM   18  C   UNL     1      -1.485   5.573 -31.472  1.00  0.00     0.066 A 
HETATM   19  C   UNL     1      -2.018   6.234 -30.351  1.00  0.00     0.051 A 
HETATM   20  C   UNL     1      -1.192   7.120 -29.641  1.00  0.00     0.030 A 
HETATM   21  C   UNL     1       0.105   7.406 -30.077  1.00  0.00     0.002 A 
HETATM   22  C   UNL     1       0.605   6.792 -31.221  1.00  0.00     0.001 A 
HETATM   23  C   UNL     1      -0.178   5.867 -31.907  1.00  0.00     0.020 A 
BRANCH  19  24
HETATM   24  N   UNL     1      -3.336   6.111 -29.858  1.00  0.00    -0.320 N 
HETATM   25  C   UNL     1      -4.487   6.638 -30.421  1.00  0.00     0.279 C 
HETATM   26  O   UNL     1      -4.518   7.315 -31.445  1.00  0.00    -0.265 OA
HETATM   27  H   UNL     1      -3.452   5.806 -28.896  1.00  0.00     0.169 HD
BRANCH  25  28
HETATM   28  C   UNL     1      -5.670   6.392 -29.617  1.00  0.00     0.142 A 
HETATM   29  O   UNL     1      -6.117   5.103 -29.451  1.00  0.00    -0.317 OA
HETATM   30  C   UNL     1      -7.214   5.161 -28.651  1.00  0.00     0.143 A 
HETATM   31  C   UNL     1      -7.479   6.460 -28.288  1.00  0.00     0.027 A 
HETATM   32  C   UNL     1      -6.487   7.255 -28.910  1.00  0.00     0.045 A 
ENDBRANCH  25  28
ENDBRANCH  19  24
ENDBRANCH   1  18
TORSDOF 8
ENDMDL
MODEL 7
REMARK VINA RESULT:      -7.8      2.222     10.287
REMARK  8 active torsions:
REMARK  status: ('A' for Active; 'I' for Inactive)
REMARK    1  A    between atoms: N_2  and  C_3 
REMARK    2  A    between atoms: C_6  and  N_7 
REMARK       I    between atoms: N_7  and  C_8 
REMARK    3  A    between atoms: C_8  and  C_9 
REMARK    4  A    between atoms: C_9  and  O_10 
REMARK    5  A    between atoms: O_10  and  C_11 
REMARK    6  A    between atoms: C_11  and  C_12 
REMARK    7  A    between atoms: C_13  and  N_14 
REMARK       I    between atoms: N_14  and  C_15 
REMARK    8  A    between atoms: C_15  and  C_16 
ROOT
HETATM    1  C   UNL     1      -3.509   3.218 -31.378  1.00  0.00     0.296 C 
HETATM    2  O   UNL     1      -2.799   2.235 -31.222  1.00  0.00    -0.259 OA
ENDROOT
BRANCH   1   3
HETATM    3  O   UNL     1      -3.124   4.408 -31.898  1.00  0.00    -0.308 OA
BRANCH   3   4
HETATM    4  C   UNL     1      -1.756   4.746 -31.679  1.00  0.00     0.282 C 
BRANCH   4   5
HETATM    5  C   UNL     1      -1.539   5.919 -30.715  1.00  0.00     0.246 C 
HETATM    6  N   UNL     1      -0.730   5.593 -29.642  1.00  0.00    -0.325 N 
HETATM    7  H   UNL     1      -0.469   4.607 -29.566  1.00  0.00     0.169 HD
HETATM    8  O   UNL     1      -2.045   7.017 -30.939  1.00  0.00    -0.271 OA
BRANCH   6   9
HETATM    9  C   UNL     1      -0.269   6.437 -28.614  1.00  0.00     0.034 A 
HETATM   10  C   UNL     1      -0.756   6.423 -27.310  1.00  0.00     0.032 A 
HETATM   11  C   UNL     1      -0.254   7.319 -26.351  1.00  0.00     0.031 A 
HETATM   12  C   UNL     1       0.756   8.245 -26.650  1.00  0.00     0.029 A 
HETATM   13  C   UNL     1       1.222   8.247 -27.974  1.00  0.00     0.031 A 
HETATM   14  C   UNL     1       0.724   7.360 -28.940  1.00  0.00     0.032 A 
BRANCH  12  15
HETATM   15  N   UNL     1       1.255   9.169 -25.719  1.00  0.00    -0.390 N 
HETATM   16  C   UNL     1       2.596   8.875 -25.202  1.00  0.00     0.149 C 
HETATM   17  C   UNL     1       0.334   9.714 -24.721  1.00  0.00     0.149 C 
ENDBRANCH  12  15
ENDBRANCH   6   9
ENDBRANCH   4   5
ENDBRANCH   3   4
ENDBRANCH   1   3
BRANCH   1  18
HETATM   18  C   UNL     1      -4.924   3.295 -30.962  1.00  0.00     0.066 A 
HETATM   19  C   UNL     1      -5.819   2.222 -31.126  1.00  0.00     0.051 A 
HETATM   20  C   UNL     1      -7.051   2.271 -30.455  1.00  0.00     0.030 A 
HETATM   21  C   UNL     1      -7.422   3.390 -29.705  1.00  0.00     0.002 A 
HETATM   22  C   UNL     1      -6.555   4.473 -29.595  1.00  0.00     0.001 A 
HETATM   23  C   UNL     1      -5.304   4.420 -30.206  1.00  0.00     0.020 A 
BRANCH  19  24
HETATM   24  N   UNL     1      -5.611   1.077 -31.926  1.00  0.00    -0.320 N 
HETATM   25  C   UNL     1      -5.907   0.939 -33.273  1.00  0.00     0.279 C 
HETATM   26  O   UNL     1      -6.416   1.812 -33.970  1.00  0.00    -0.265 OA
HETATM   27  H   UNL     1      -5.440   0.195 -31.451  1.00  0.00     0.169 HD
BRANCH  25  28
HETATM   28  C   UNL     1      -5.641  -0.397 -33.773  1.00  0.00     0.142 A 
HETATM   29  O   UNL     1      -4.476  -1.032 -33.415  1.00  0.00    -0.317 OA
HETATM   30  C   UNL     1      -4.493  -2.257 -34.002  1.00  0.00     0.143 A 
HETATM   31  C   UNL     1      -5.650  -2.431 -34.724  1.00  0.00     0.027 A 
HETATM   32  C   UNL     1      -6.390  -1.234 -34.579  1.00  0.00     0.045 A 
ENDBRANCH  25  28
ENDBRANCH  19  24
ENDBRANCH   1  18
TORSDOF 8
ENDMDL
MODEL 8
REMARK VINA RESULT:      -7.8      3.482      9.860
REMARK  8 active torsions:
REMARK  status: ('A' for Active; 'I' for Inactive)
REMARK    1  A    between atoms: N_2  and  C_3 
REMARK    2  A    between atoms: C_6  and  N_7 
REMARK       I    between atoms: N_7  and  C_8 
REMARK    3  A    between atoms: C_8  and  C_9 
REMARK    4  A    between atoms: C_9  and  O_10 
REMARK    5  A    between atoms: O_10  and  C_11 
REMARK    6  A    between atoms: C_11  and  C_12 
REMARK    7  A    between atoms: C_13  and  N_14 
REMARK       I    between atoms: N_14  and  C_15 
REMARK    8  A    between atoms: C_15  and  C_16 
ROOT
HETATM    1  C   UNL     1      -6.905   2.459 -33.087  1.00  0.00     0.296 C 
HETATM    2  O   UNL     1      -6.914   2.823 -31.920  1.00  0.00    -0.259 OA
ENDROOT
BRANCH   1   3
HETATM    3  O   UNL     1      -7.073   3.250 -34.174  1.00  0.00    -0.308 OA
BRANCH   3   4
HETATM    4  C   UNL     1      -6.846   4.639 -33.946  1.00  0.00     0.282 C 
BRANCH   4   5
HETATM    5  C   UNL     1      -5.368   5.026 -33.807  1.00  0.00     0.246 C 
HETATM    6  N   UNL     1      -4.919   4.982 -32.499  1.00  0.00    -0.325 N 
HETATM    7  H   UNL     1      -5.635   4.805 -31.790  1.00  0.00     0.169 HD
HETATM    8  O   UNL     1      -4.700   5.320 -34.797  1.00  0.00    -0.271 OA
BRANCH   6   9
HETATM    9  C   UNL     1      -3.614   5.205 -32.021  1.00  0.00     0.034 A 
HETATM   10  C   UNL     1      -2.475   4.596 -32.537  1.00  0.00     0.032 A 
HETATM   11  C   UNL     1      -1.211   4.858 -31.982  1.00  0.00     0.031 A 
HETATM   12  C   UNL     1      -1.036   5.744 -30.909  1.00  0.00     0.029 A 
HETATM   13  C   UNL     1      -2.202   6.338 -30.399  1.00  0.00     0.031 A 
HETATM   14  C   UNL     1      -3.468   6.079 -30.943  1.00  0.00     0.032 A 
BRANCH  12  15
HETATM   15  N   UNL     1       0.211   6.004 -30.318  1.00  0.00    -0.390 N 
HETATM   16  C   UNL     1       0.839   4.858 -29.653  1.00  0.00     0.149 C 
HETATM   17  C   UNL     1       0.397   7.277 -29.623  1.00  0.00     0.149 C 
ENDBRANCH  12  15
ENDBRANCH   6   9
ENDBRANCH   4   5
ENDBRANCH   3   4
ENDBRANCH   1   3
BRANCH   1  18
HETATM   18  C   UNL     1      -6.763   1.052 -33.517  1.00  0.00     0.066 A 
HETATM   19  C   UNL     1      -7.763   0.380 -34.242  1.00  0.00     0.051 A 
HETATM   20  C   UNL     1      -7.439  -0.843 -34.851  1.00  0.00     0.030 A 
HETATM   21  C   UNL     1      -6.181  -1.425 -34.678  1.00  0.00     0.002 A 
HETATM   22  C   UNL     1      -5.216  -0.782 -33.911  1.00  0.00     0.001 A 
HETATM   23  C   UNL     1      -5.498   0.460 -33.345  1.00  0.00     0.020 A 
BRANCH  19  24
HETATM   24  N   UNL     1      -9.098   0.808 -34.417  1.00  0.00    -0.320 N 
HETATM   25  C   UNL     1     -10.128   0.714 -33.495  1.00  0.00     0.279 C 
HETATM   26  O   UNL     1     -10.023   0.221 -32.376  1.00  0.00    -0.265 OA
HETATM   27  H   UNL     1      -9.411   0.998 -35.364  1.00  0.00     0.169 HD
BRANCH  25  28
HETATM   28  C   UNL     1     -11.398   1.177 -34.023  1.00  0.00     0.142 A 
HETATM   29  O   UNL     1     -11.423   2.255 -34.875  1.00  0.00    -0.317 OA
HETATM   30  C   UNL     1     -12.720   2.458 -35.224  1.00  0.00     0.143 A 
HETATM   31  C   UNL     1     -13.534   1.528 -34.623  1.00  0.00     0.027 A 
HETATM   32  C   UNL     1     -12.685   0.703 -33.848  1.00  0.00     0.045 A 
ENDBRANCH  25  28
ENDBRANCH  19  24
ENDBRANCH   1  18
TORSDOF 8
ENDMDL
MODEL 9
REMARK VINA RESULT:      -7.8      2.903      4.517
REMARK  8 active torsions:
REMARK  status: ('A' for Active; 'I' for Inactive)
REMARK    1  A    between atoms: N_2  and  C_3 
REMARK    2  A    between atoms: C_6  and  N_7 
REMARK       I    between atoms: N_7  and  C_8 
REMARK    3  A    between atoms: C_8  and  C_9 
REMARK    4  A    between atoms: C_9  and  O_10 
REMARK    5  A    between atoms: O_10  and  C_11 
REMARK    6  A    between atoms: C_11  and  C_12 
REMARK    7  A    between atoms: C_13  and  N_14 
REMARK       I    between atoms: N_14  and  C_15 
REMARK    8  A    between atoms: C_15  and  C_16 
ROOT
HETATM    1  C   UNL     1      -5.921   3.571 -30.037  1.00  0.00     0.296 C 
HETATM    2  O   UNL     1      -4.906   3.065 -30.492  1.00  0.00    -0.259 OA
ENDROOT
BRANCH   1   3
HETATM    3  O   UNL     1      -7.125   2.965 -29.899  1.00  0.00    -0.308 OA
BRANCH   3   4
HETATM    4  C   UNL     1      -7.887   2.864 -31.100  1.00  0.00     0.282 C 
BRANCH   4   5
HETATM    5  C   UNL     1      -7.900   1.465 -31.728  1.00  0.00     0.246 C 
HETATM    6  N   UNL     1      -6.752   1.186 -32.448  1.00  0.00    -0.325 N 
HETATM    7  H   UNL     1      -6.098   1.964 -32.559  1.00  0.00     0.169 HD
HETATM    8  O   UNL     1      -8.856   0.710 -31.559  1.00  0.00    -0.271 OA
BRANCH   6   9
HETATM    9  C   UNL     1      -6.401  -0.016 -33.090  1.00  0.00     0.034 A 
HETATM   10  C   UNL     1      -7.198  -0.669 -34.024  1.00  0.00     0.032 A 
HETATM   11  C   UNL     1      -6.779  -1.880 -34.600  1.00  0.00     0.031 A 
HETATM   12  C   UNL     1      -5.549  -2.474 -34.278  1.00  0.00     0.029 A 
HETATM   13  C   UNL     1      -4.768  -1.802 -33.325  1.00  0.00     0.031 A 
HETATM   14  C   UNL     1      -5.180  -0.594 -32.742  1.00  0.00     0.032 A 
BRANCH  12  15
HETATM   15  N   UNL     1      -5.119  -3.696 -34.817  1.00  0.00    -0.390 N 
HETATM   16  C   UNL     1      -6.186  -4.577 -35.302  1.00  0.00     0.149 C 
HETATM   17  C   UNL     1      -4.018  -4.396 -34.154  1.00  0.00     0.149 C 
ENDBRANCH  12  15
ENDBRANCH   6   9
ENDBRANCH   4   5
ENDBRANCH   3   4
ENDBRANCH   1   3
BRANCH   1  18
HETATM   18  C   UNL     1      -6.025   4.980 -29.603  1.00  0.00     0.066 A 
HETATM   19  C   UNL     1      -5.431   6.035 -30.318  1.00  0.00     0.051 A 
HETATM   20  C   UNL     1      -5.810   7.351 -30.005  1.00  0.00     0.030 A 
HETATM   21  C   UNL     1      -6.693   7.618 -28.956  1.00  0.00     0.002 A 
HETATM   22  C   UNL     1      -7.232   6.571 -28.215  1.00  0.00     0.001 A 
HETATM   23  C   UNL     1      -6.913   5.256 -28.546  1.00  0.00     0.020 A 
BRANCH  19  24
HETATM   24  N   UNL     1      -4.458   5.912 -31.334  1.00  0.00    -0.320 N 
HETATM   25  C   UNL     1      -4.682   5.890 -32.701  1.00  0.00     0.279 C 
HETATM   26  O   UNL     1      -5.787   5.961 -33.230  1.00  0.00    -0.265 OA
HETATM   27  H   UNL     1      -3.534   5.588 -31.064  1.00  0.00     0.169 HD
BRANCH  25  28
HETATM   28  C   UNL     1      -3.468   5.672 -33.466  1.00  0.00     0.142 A 
HETATM   29  O   UNL     1      -2.249   5.916 -32.881  1.00  0.00    -0.317 OA
HETATM   30  C   UNL     1      -1.297   5.617 -33.803  1.00  0.00     0.143 A 
HETATM   31  C   UNL     1      -1.875   5.175 -34.969  1.00  0.00     0.027 A 
HETATM   32  C   UNL     1      -3.273   5.210 -34.754  1.00  0.00     0.045 A 
ENDBRANCH  25  28
ENDBRANCH  19  24
ENDBRANCH   1  18
TORSDOF 8
ENDMDL
MODEL 10
REMARK VINA RESULT:      -7.8      2.225      5.034
REMARK  8 active torsions:
REMARK  status: ('A' for Active; 'I' for Inactive)
REMARK    1  A    between atoms: N_2  and  C_3 
REMARK    2  A    between atoms: C_6  and  N_7 
REMARK       I    between atoms: N_7  and  C_8 
REMARK    3  A    between atoms: C_8  and  C_9 
REMARK    4  A    between atoms: C_9  and  O_10 
REMARK    5  A    between atoms: O_10  and  C_11 
REMARK    6  A    between atoms: C_11  and  C_12 
REMARK    7  A    between atoms: C_13  and  N_14 
REMARK       I    between atoms: N_14  and  C_15 
REMARK    8  A    between atoms: C_15  and  C_16 
ROOT
HETATM    1  C   UNL     1      -3.187   7.748 -28.998  1.00  0.00     0.296 C 
HETATM    2  O   UNL     1      -3.861   8.754 -28.833  1.00  0.00    -0.259 OA
ENDROOT
BRANCH   1   3
HETATM    3  O   UNL     1      -3.653   6.518 -29.324  1.00  0.00    -0.308 OA
BRANCH   3   4
HETATM    4  C   UNL     1      -4.934   6.507 -29.949  1.00  0.00     0.282 C 
BRANCH   4   5
HETATM    5  C   UNL     1      -5.242   5.229 -30.741  1.00  0.00     0.246 C 
HETATM    6  N   UNL     1      -4.500   4.141 -30.318  1.00  0.00    -0.325 N 
HETATM    7  H   UNL     1      -3.780   4.338 -29.620  1.00  0.00     0.169 HD
HETATM    8  O   UNL     1      -6.084   5.234 -31.636  1.00  0.00    -0.271 OA
BRANCH   6   9
HETATM    9  C   UNL     1      -4.577   2.809 -30.769  1.00  0.00     0.034 A 
HETATM   10  C   UNL     1      -5.539   1.895 -30.353  1.00  0.00     0.032 A 
HETATM   11  C   UNL     1      -5.529   0.576 -30.838  1.00  0.00     0.031 A 
HETATM   12  C   UNL     1      -4.573   0.128 -31.761  1.00  0.00     0.029 A 
HETATM   13  C   UNL     1      -3.606   1.066 -32.157  1.00  0.00     0.031 A 
HETATM   14  C   UNL     1      -3.607   2.383 -31.676  1.00  0.00     0.032 A 
BRANCH  12  15
HETATM   15  N   UNL     1      -4.522  -1.191 -32.241  1.00  0.00    -0.390 N 
HETATM   16  C   UNL     1      -3.250  -1.887 -32.025  1.00  0.00     0.149 C 
HETATM   17  C   UNL     1      -5.158  -1.486 -33.525  1.00  0.00     0.149 C 
ENDBRANCH  12  15
ENDBRANCH   6   9
ENDBRANCH   4   5
ENDBRANCH   3   4
ENDBRANCH   1   3
BRANCH   1  18
HETATM   18  C   UNL     1      -1.724   7.688 -28.807  1.00  0.00     0.066 A 
HETATM   19  C   UNL     1      -0.839   7.362 -29.851  1.00  0.00     0.051 A 
HETATM   20  C   UNL     1       0.532   7.604 -29.665  1.00  0.00     0.030 A 
HETATM   21  C   UNL     1       1.023   8.080 -28.447  1.00  0.00     0.002 A 
HETATM   22  C   UNL     1       0.147   8.345 -27.399  1.00  0.00     0.001 A 
HETATM   23  C   UNL     1      -1.222   8.167 -27.581  1.00  0.00     0.020 A 
BRANCH  19  24
HETATM   24  N   UNL     1      -1.189   6.790 -31.093  1.00  0.00    -0.320 N 
HETATM   25  C   UNL     1      -1.638   7.459 -32.221  1.00  0.00     0.279 C 
HETATM   26  O   UNL     1      -1.811   8.672 -32.290  1.00  0.00    -0.265 OA
HETATM   27  H   UNL     1      -1.347   5.787 -31.122  1.00  0.00     0.169 HD
BRANCH  25  28
HETATM   28  C   UNL     1      -1.984   6.561 -33.307  1.00  0.00     0.142 A 
HETATM   29  O   UNL     1      -0.983   5.957 -34.029  1.00  0.00    -0.317 OA
HETATM   30  C   UNL     1      -1.582   5.168 -34.958  1.00  0.00     0.143 A 
HETATM   31  C   UNL     1      -2.950   5.242 -34.846  1.00  0.00     0.027 A 
HETATM   32  C   UNL     1      -3.211   6.140 -33.784  1.00  0.00     0.045 A 
ENDBRANCH  25  28
ENDBRANCH  19  24
ENDBRANCH   1  18
TORSDOF 8
ENDMDL
