MODEL 1
REMARK VINA RESULT:      -9.6      0.000      0.000
REMARK  7 active torsions:
REMARK  status: ('A' for Active; 'I' for Inactive)
REMARK    1  A    between atoms: C_2  and  O_3 
REMARK    2  A    between atoms: O_3  and  C_4 
REMARK    3  A    between atoms: C_4  and  C_5 
REMARK    4  A    between atoms: C_6  and  C_7 
REMARK    5  A    between atoms: C_18  and  S_19 
REMARK    6  A    between atoms: S_19  and  C_20 
REMARK    7  A    between atoms: C_20  and  C_21 
ROOT
HETATM    1  C   UNL     1      -5.150   5.922 -29.952  1.00  0.00     0.070 A 
HETATM    2  C   UNL     1      -5.530   5.451 -31.354  1.00  0.00     0.203 A 
HETATM    3  N   UNL     1      -6.329   4.220 -31.308  1.00  0.00    -0.082 N 
HETATM    4  C   UNL     1      -6.694   3.581 -30.156  1.00  0.00     0.726 A 
HETATM    5  N   UNL     1      -6.313   4.091 -28.972  1.00  0.00    -0.192 N 
HETATM    6  N   UNL     1      -6.851   3.611 -32.390  1.00  0.00    -0.128 NA
HETATM    7  C   UNL     1      -7.451   2.558 -31.823  1.00  0.00     0.226 A 
HETATM    8  N   UNL     1      -7.398   2.518 -30.451  1.00  0.00    -0.035 NA
HETATM    9  C   UNL     1      -5.549   5.247 -28.844  1.00  0.00     0.037 A 
HETATM   10  C   UNL     1      -5.249   5.675 -27.427  1.00  0.00     0.070 C 
HETATM   11  H   UNL     1      -6.583   3.608 -28.119  1.00  0.00     0.184 HD
ENDROOT
BRANCH   7  12
HETATM   12  S   UNL     1      -8.212   1.337 -32.800  1.00  0.00    -0.083 SA
BRANCH  12  13
HETATM   13  C   UNL     1      -6.993   1.177 -34.132  1.00  0.00     0.121 C 
BRANCH  13  14
HETATM   14  C   UNL     1      -6.241  -0.131 -34.043  1.00  0.00    -0.048 A 
HETATM   15  C   UNL     1      -6.800  -1.316 -34.550  1.00  0.00     0.020 A 
HETATM   16  C   UNL     1      -6.102  -2.533 -34.499  1.00  0.00    -0.025 A 
HETATM   17  C   UNL     1      -4.816  -2.569 -33.914  1.00  0.00    -0.026 A 
HETATM   18  C   UNL     1      -6.650  -3.715 -35.023  1.00  0.00     0.012 A 
HETATM   19  C   UNL     1      -4.263  -1.386 -33.402  1.00  0.00     0.013 A 
HETATM   20  C   UNL     1      -4.116  -3.786 -33.866  1.00  0.00     0.012 A 
HETATM   21  C   UNL     1      -4.965  -0.180 -33.469  1.00  0.00     0.009 A 
HETATM   22  C   UNL     1      -4.676  -4.951 -34.391  1.00  0.00     0.001 A 
HETATM   23  C   UNL     1      -5.941  -4.916 -34.970  1.00  0.00     0.001 A 
ENDBRANCH  13  14
ENDBRANCH  12  13
ENDBRANCH   7  12
BRANCH   2  24
HETATM   24  C   UNL     1      -4.336   5.255 -32.288  1.00  0.00    -0.028 A 
HETATM   25  C   UNL     1      -3.321   4.323 -32.009  1.00  0.00     0.012 A 
HETATM   26  C   UNL     1      -2.242   4.172 -32.882  1.00  0.00     0.043 A 
HETATM   27  C   UNL     1      -2.177   4.942 -34.037  1.00  0.00     0.116 A 
HETATM   28  F   UNL     1      -1.140   4.795 -34.872  1.00  0.00    -0.206 F 
HETATM   29  C   UNL     1      -3.173   5.859 -34.341  1.00  0.00     0.043 A 
HETATM   30  C   UNL     1      -4.252   6.016 -33.470  1.00  0.00     0.012 A 
ENDBRANCH   2  24
BRANCH   1  31
HETATM   31  C   UNL     1      -4.275   7.112 -29.859  1.00  0.00     0.293 C 
HETATM   32  O   UNL     1      -4.669   8.262 -29.966  1.00  0.00    -0.259 OA
BRANCH  31  33
HETATM   33  O   UNL     1      -3.000   6.728 -29.609  1.00  0.00    -0.318 OA
BRANCH  33  34
HETATM   34  C   UNL     1      -1.991   7.705 -29.914  1.00  0.00     0.174 C 
HETATM   35  C   UNL     1      -1.563   7.595 -31.366  1.00  0.00     0.034 C 
ENDBRANCH  33  34
ENDBRANCH  31  33
ENDBRANCH   1  31
TORSDOF 7
ENDMDL
MODEL 2
REMARK VINA RESULT:      -9.3      4.156      9.713
REMARK  7 active torsions:
REMARK  status: ('A' for Active; 'I' for Inactive)
REMARK    1  A    between atoms: C_2  and  O_3 
REMARK    2  A    between atoms: O_3  and  C_4 
REMARK    3  A    between atoms: C_4  and  C_5 
REMARK    4  A    between atoms: C_6  and  C_7 
REMARK    5  A    between atoms: C_18  and  S_19 
REMARK    6  A    between atoms: S_19  and  C_20 
REMARK    7  A    between atoms: C_20  and  C_21 
ROOT
HETATM    1  C   UNL     1      -4.197  -1.542 -33.267  1.00  0.00     0.070 A 
HETATM    2  C   UNL     1      -4.622  -0.117 -33.612  1.00  0.00     0.203 A 
HETATM    3  N   UNL     1      -4.095   0.850 -32.641  1.00  0.00    -0.082 N 
HETATM    4  C   UNL     1      -3.314   0.517 -31.569  1.00  0.00     0.726 A 
HETATM    5  N   UNL     1      -2.989  -0.772 -31.366  1.00  0.00    -0.192 N 
HETATM    6  N   UNL     1      -4.262   2.184 -32.728  1.00  0.00    -0.128 NA
HETATM    7  C   UNL     1      -3.625   2.590 -31.623  1.00  0.00     0.226 A 
HETATM    8  N   UNL     1      -3.009   1.600 -30.899  1.00  0.00    -0.035 NA
HETATM    9  C   UNL     1      -3.414  -1.809 -32.190  1.00  0.00     0.037 A 
HETATM   10  C   UNL     1      -2.919  -3.184 -31.812  1.00  0.00     0.070 C 
HETATM   11  H   UNL     1      -2.414  -1.013 -30.564  1.00  0.00     0.184 HD
ENDROOT
BRANCH   7  12
HETATM   12  S   UNL     1      -3.626   4.268 -31.165  1.00  0.00    -0.083 SA
BRANCH  12  13
HETATM   13  C   UNL     1      -2.101   4.829 -31.970  1.00  0.00     0.121 C 
BRANCH  13  14
HETATM   14  C   UNL     1      -1.263   5.678 -31.042  1.00  0.00    -0.048 A 
HETATM   15  C   UNL     1      -1.837   6.748 -30.336  1.00  0.00     0.020 A 
HETATM   16  C   UNL     1      -1.077   7.529 -29.450  1.00  0.00    -0.025 A 
HETATM   17  C   UNL     1       0.295   7.241 -29.275  1.00  0.00    -0.026 A 
HETATM   18  C   UNL     1      -1.652   8.587 -28.727  1.00  0.00     0.012 A 
HETATM   19  C   UNL     1       0.867   6.176 -29.987  1.00  0.00     0.013 A 
HETATM   20  C   UNL     1       1.054   8.020 -28.386  1.00  0.00     0.012 A 
HETATM   21  C   UNL     1       0.097   5.401 -30.857  1.00  0.00     0.009 A 
HETATM   22  C   UNL     1       0.466   9.068 -27.676  1.00  0.00     0.001 A 
HETATM   23  C   UNL     1      -0.886   9.351 -27.845  1.00  0.00     0.001 A 
ENDBRANCH  13  14
ENDBRANCH  12  13
ENDBRANCH   7  12
BRANCH   2  24
HETATM   24  C   UNL     1      -6.134   0.063 -33.748  1.00  0.00    -0.028 A 
HETATM   25  C   UNL     1      -6.744   0.298 -34.993  1.00  0.00     0.012 A 
HETATM   26  C   UNL     1      -8.129   0.462 -35.081  1.00  0.00     0.043 A 
HETATM   27  C   UNL     1      -8.907   0.383 -33.932  1.00  0.00     0.116 A 
HETATM   28  F   UNL     1     -10.234   0.542 -34.020  1.00  0.00    -0.206 F 
HETATM   29  C   UNL     1      -8.328   0.139 -32.694  1.00  0.00     0.043 A 
HETATM   30  C   UNL     1      -6.946  -0.023 -32.600  1.00  0.00     0.012 A 
ENDBRANCH   2  24
BRANCH   1  31
HETATM   31  C   UNL     1      -4.729  -2.626 -34.123  1.00  0.00     0.293 C 
HETATM   32  O   UNL     1      -4.144  -3.085 -35.090  1.00  0.00    -0.259 OA
BRANCH  31  33
HETATM   33  O   UNL     1      -5.930  -3.039 -33.650  1.00  0.00    -0.318 OA
BRANCH  33  34
HETATM   34  C   UNL     1      -6.924  -3.316 -34.651  1.00  0.00     0.174 C 
HETATM   35  C   UNL     1      -6.649  -4.651 -35.321  1.00  0.00     0.034 C 
ENDBRANCH  33  34
ENDBRANCH  31  33
ENDBRANCH   1  31
TORSDOF 7
ENDMDL
MODEL 3
REMARK VINA RESULT:      -9.2      4.169      8.104
REMARK  7 active torsions:
REMARK  status: ('A' for Active; 'I' for Inactive)
REMARK    1  A    between atoms: C_2  and  O_3 
REMARK    2  A    between atoms: O_3  and  C_4 
REMARK    3  A    between atoms: C_4  and  C_5 
REMARK    4  A    between atoms: C_6  and  C_7 
REMARK    5  A    between atoms: C_18  and  S_19 
REMARK    6  A    between atoms: S_19  and  C_20 
REMARK    7  A    between atoms: C_20  and  C_21 
ROOT
HETATM    1  C   UNL     1      -4.233  -1.412 -33.257  1.00  0.00     0.070 A 
HETATM    2  C   UNL     1      -4.700   0.000 -33.602  1.00  0.00     0.203 A 
HETATM    3  N   UNL     1      -4.204   0.982 -32.628  1.00  0.00    -0.082 N 
HETATM    4  C   UNL     1      -3.417   0.672 -31.555  1.00  0.00     0.726 A 
HETATM    5  N   UNL     1      -3.054  -0.607 -31.353  1.00  0.00    -0.192 N 
HETATM    6  N   UNL     1      -4.411   2.310 -32.714  1.00  0.00    -0.128 NA
HETATM    7  C   UNL     1      -3.790   2.734 -31.608  1.00  0.00     0.226 A 
HETATM    8  N   UNL     1      -3.146   1.762 -30.883  1.00  0.00    -0.035 NA
HETATM    9  C   UNL     1      -3.445  -1.656 -32.179  1.00  0.00     0.037 A 
HETATM   10  C   UNL     1      -2.910  -3.016 -31.801  1.00  0.00     0.070 C 
HETATM   11  H   UNL     1      -2.473  -0.832 -30.550  1.00  0.00     0.184 HD
ENDROOT
BRANCH   7  12
HETATM   12  S   UNL     1      -3.843   4.411 -31.148  1.00  0.00    -0.083 SA
BRANCH  12  13
HETATM   13  C   UNL     1      -5.162   4.368 -29.905  1.00  0.00     0.121 C 
BRANCH  13  14
HETATM   14  C   UNL     1      -6.513   4.117 -30.536  1.00  0.00    -0.048 A 
HETATM   15  C   UNL     1      -6.787   4.559 -31.841  1.00  0.00     0.020 A 
HETATM   16  C   UNL     1      -8.027   4.309 -32.450  1.00  0.00    -0.025 A 
HETATM   17  C   UNL     1      -9.023   3.610 -31.732  1.00  0.00    -0.026 A 
HETATM   18  C   UNL     1      -8.298   4.732 -33.762  1.00  0.00     0.012 A 
HETATM   19  C   UNL     1      -8.749   3.177 -30.426  1.00  0.00     0.013 A 
HETATM   20  C   UNL     1     -10.262   3.357 -32.343  1.00  0.00     0.012 A 
HETATM   21  C   UNL     1      -7.506   3.423 -29.836  1.00  0.00     0.009 A 
HETATM   22  C   UNL     1     -10.514   3.785 -33.647  1.00  0.00     0.001 A 
HETATM   23  C   UNL     1      -9.533   4.470 -34.357  1.00  0.00     0.001 A 
ENDBRANCH  13  14
ENDBRANCH  12  13
ENDBRANCH   7  12
BRANCH   2  24
HETATM   24  C   UNL     1      -6.217   0.136 -33.742  1.00  0.00    -0.028 A 
HETATM   25  C   UNL     1      -6.829   0.367 -34.986  1.00  0.00     0.012 A 
HETATM   26  C   UNL     1      -8.217   0.489 -35.077  1.00  0.00     0.043 A 
HETATM   27  C   UNL     1      -8.997   0.371 -33.933  1.00  0.00     0.116 A 
HETATM   28  F   UNL     1     -10.328   0.490 -34.024  1.00  0.00    -0.206 F 
HETATM   29  C   UNL     1      -8.416   0.130 -32.695  1.00  0.00     0.043 A 
HETATM   30  C   UNL     1      -7.029   0.010 -32.598  1.00  0.00     0.012 A 
ENDBRANCH   2  24
BRANCH   1  31
HETATM   31  C   UNL     1      -4.730  -2.510 -34.116  1.00  0.00     0.293 C 
HETATM   32  O   UNL     1      -4.128  -2.951 -35.082  1.00  0.00    -0.259 OA
BRANCH  31  33
HETATM   33  O   UNL     1      -5.921  -2.958 -33.648  1.00  0.00    -0.318 OA
BRANCH  33  34
HETATM   34  C   UNL     1      -6.910  -3.241 -34.651  1.00  0.00     0.174 C 
HETATM   35  C   UNL     1      -6.702  -4.629 -35.231  1.00  0.00     0.034 C 
ENDBRANCH  33  34
ENDBRANCH  31  33
ENDBRANCH   1  31
TORSDOF 7
ENDMDL
MODEL 4
REMARK VINA RESULT:      -9.1      3.529      8.219
REMARK  7 active torsions:
REMARK  status: ('A' for Active; 'I' for Inactive)
REMARK    1  A    between atoms: C_2  and  O_3 
REMARK    2  A    between atoms: O_3  and  C_4 
REMARK    3  A    between atoms: C_4  and  C_5 
REMARK    4  A    between atoms: C_6  and  C_7 
REMARK    5  A    between atoms: C_18  and  S_19 
REMARK    6  A    between atoms: S_19  and  C_20 
REMARK    7  A    between atoms: C_20  and  C_21 
ROOT
HETATM    1  C   UNL     1      -7.573   3.781 -32.085  1.00  0.00     0.070 A 
HETATM    2  C   UNL     1      -6.133   3.273 -32.077  1.00  0.00     0.203 A 
HETATM    3  N   UNL     1      -5.267   4.102 -32.925  1.00  0.00    -0.082 N 
HETATM    4  C   UNL     1      -5.694   5.196 -33.624  1.00  0.00     0.726 A 
HETATM    5  N   UNL     1      -6.985   5.562 -33.550  1.00  0.00    -0.192 N 
HETATM    6  N   UNL     1      -3.939   3.924 -33.060  1.00  0.00    -0.128 NA
HETATM    7  C   UNL     1      -3.640   4.897 -33.928  1.00  0.00     0.226 A 
HETATM    8  N   UNL     1      -4.686   5.716 -34.279  1.00  0.00    -0.035 NA
HETATM    9  C   UNL     1      -7.934   4.879 -32.797  1.00  0.00     0.037 A 
HETATM   10  C   UNL     1      -9.326   5.465 -32.819  1.00  0.00     0.070 C 
HETATM   11  H   UNL     1      -7.297   6.373 -34.077  1.00  0.00     0.184 HD
ENDROOT
BRANCH   7  12
HETATM   12  S   UNL     1      -2.028   5.061 -34.559  1.00  0.00    -0.083 SA
BRANCH  12  13
HETATM   13  C   UNL     1      -1.711   6.809 -34.200  1.00  0.00     0.121 C 
BRANCH  13  14
HETATM   14  C   UNL     1      -1.417   7.031 -32.733  1.00  0.00    -0.048 A 
HETATM   15  C   UNL     1      -0.646   6.106 -32.009  1.00  0.00     0.020 A 
HETATM   16  C   UNL     1      -0.342   6.312 -30.654  1.00  0.00    -0.025 A 
HETATM   17  C   UNL     1      -0.832   7.466 -30.003  1.00  0.00    -0.026 A 
HETATM   18  C   UNL     1       0.445   5.400 -29.932  1.00  0.00     0.012 A 
HETATM   19  C   UNL     1      -1.608   8.384 -30.726  1.00  0.00     0.013 A 
HETATM   20  C   UNL     1      -0.525   7.674 -28.647  1.00  0.00     0.012 A 
HETATM   21  C   UNL     1      -1.894   8.171 -32.077  1.00  0.00     0.009 A 
HETATM   22  C   UNL     1       0.258   6.757 -27.945  1.00  0.00     0.001 A 
HETATM   23  C   UNL     1       0.744   5.621 -28.587  1.00  0.00     0.001 A 
ENDBRANCH  13  14
ENDBRANCH  12  13
ENDBRANCH   7  12
BRANCH   2  24
HETATM   24  C   UNL     1      -5.991   1.804 -32.478  1.00  0.00    -0.028 A 
HETATM   25  C   UNL     1      -5.607   0.817 -31.554  1.00  0.00     0.012 A 
HETATM   26  C   UNL     1      -5.484  -0.515 -31.955  1.00  0.00     0.043 A 
HETATM   27  C   UNL     1      -5.752  -0.867 -33.273  1.00  0.00     0.116 A 
HETATM   28  F   UNL     1      -5.631  -2.145 -33.654  1.00  0.00    -0.206 F 
HETATM   29  C   UNL     1      -6.146   0.089 -34.200  1.00  0.00     0.043 A 
HETATM   30  C   UNL     1      -6.268   1.421 -33.805  1.00  0.00     0.012 A 
ENDBRANCH   2  24
BRANCH   1  31
HETATM   31  C   UNL     1      -8.568   2.985 -31.333  1.00  0.00     0.293 C 
HETATM   32  O   UNL     1      -8.769   3.096 -30.134  1.00  0.00    -0.259 OA
BRANCH  31  33
HETATM   33  O   UNL     1      -9.229   2.156 -32.177  1.00  0.00    -0.318 OA
BRANCH  33  34
HETATM   34  C   UNL     1      -9.298   0.782 -31.761  1.00  0.00     0.174 C 
HETATM   35  C   UNL     1      -9.744  -0.103 -32.912  1.00  0.00     0.034 C 
ENDBRANCH  33  34
ENDBRANCH  31  33
ENDBRANCH   1  31
TORSDOF 7
ENDMDL
MODEL 5
REMARK VINA RESULT:      -9.1      5.012      6.805
REMARK  7 active torsions:
REMARK  status: ('A' for Active; 'I' for Inactive)
REMARK    1  A    between atoms: C_2  and  O_3 
REMARK    2  A    between atoms: O_3  and  C_4 
REMARK    3  A    between atoms: C_4  and  C_5 
REMARK    4  A    between atoms: C_6  and  C_7 
REMARK    5  A    between atoms: C_18  and  S_19 
REMARK    6  A    between atoms: S_19  and  C_20 
REMARK    7  A    between atoms: C_20  and  C_21 
ROOT
HETATM    1  C   UNL     1     -11.516   2.232 -34.581  1.00  0.00     0.070 A 
HETATM    2  C   UNL     1     -10.124   2.806 -34.331  1.00  0.00     0.203 A 
HETATM    3  N   UNL     1      -9.380   2.003 -33.351  1.00  0.00    -0.082 N 
HETATM    4  C   UNL     1      -9.869   0.879 -32.748  1.00  0.00     0.726 A 
HETATM    5  N   UNL     1     -11.109   0.455 -33.052  1.00  0.00    -0.192 N 
HETATM    6  N   UNL     1      -8.107   2.241 -32.982  1.00  0.00    -0.128 NA
HETATM    7  C   UNL     1      -7.918   1.267 -32.084  1.00  0.00     0.226 A 
HETATM    8  N   UNL     1      -8.968   0.395 -31.931  1.00  0.00    -0.035 NA
HETATM    9  C   UNL     1     -11.943   1.107 -33.954  1.00  0.00     0.037 A 
HETATM   10  C   UNL     1     -13.287   0.457 -34.183  1.00  0.00     0.070 C 
HETATM   11  H   UNL     1     -11.468  -0.379 -32.595  1.00  0.00     0.184 HD
ENDROOT
BRANCH   7  12
HETATM   12  S   UNL     1      -6.435   1.167 -31.181  1.00  0.00    -0.083 SA
BRANCH  12  13
HETATM   13  C   UNL     1      -5.236   1.033 -32.533  1.00  0.00     0.121 C 
BRANCH  13  14
HETATM   14  C   UNL     1      -5.010  -0.407 -32.935  1.00  0.00    -0.048 A 
HETATM   15  C   UNL     1      -5.967  -1.097 -33.697  1.00  0.00     0.020 A 
HETATM   16  C   UNL     1      -5.759  -2.426 -34.100  1.00  0.00    -0.025 A 
HETATM   17  C   UNL     1      -4.569  -3.086 -33.721  1.00  0.00    -0.026 A 
HETATM   18  C   UNL     1      -6.705  -3.112 -34.879  1.00  0.00     0.012 A 
HETATM   19  C   UNL     1      -3.618  -2.396 -32.954  1.00  0.00     0.013 A 
HETATM   20  C   UNL     1      -4.359  -4.414 -34.128  1.00  0.00     0.012 A 
HETATM   21  C   UNL     1      -3.833  -1.071 -32.569  1.00  0.00     0.009 A 
HETATM   22  C   UNL     1      -5.310  -5.081 -34.902  1.00  0.00     0.001 A 
HETATM   23  C   UNL     1      -6.481  -4.431 -35.278  1.00  0.00     0.001 A 
ENDBRANCH  13  14
ENDBRANCH  12  13
ENDBRANCH   7  12
BRANCH   2  24
HETATM   24  C   UNL     1     -10.126   4.273 -33.898  1.00  0.00    -0.028 A 
HETATM   25  C   UNL     1     -10.516   4.664 -32.605  1.00  0.00     0.012 A 
HETATM   26  C   UNL     1     -10.510   6.014 -32.244  1.00  0.00     0.043 A 
HETATM   27  C   UNL     1     -10.105   6.972 -33.165  1.00  0.00     0.116 A 
HETATM   28  F   UNL     1     -10.100   8.265 -32.816  1.00  0.00    -0.206 F 
HETATM   29  C   UNL     1      -9.702   6.608 -34.443  1.00  0.00     0.043 A 
HETATM   30  C   UNL     1      -9.709   5.262 -34.810  1.00  0.00     0.012 A 
ENDBRANCH   2  24
BRANCH   1  31
HETATM   31  C   UNL     1     -12.401   2.994 -35.490  1.00  0.00     0.293 C 
HETATM   32  O   UNL     1     -12.453   2.824 -36.697  1.00  0.00    -0.259 OA
BRANCH  31  33
HETATM   33  O   UNL     1     -13.151   3.869 -34.776  1.00  0.00    -0.318 OA
BRANCH  33  34
HETATM   34  C   UNL     1     -13.228   5.198 -35.318  1.00  0.00     0.174 C 
HETATM   35  C   UNL     1     -13.633   6.191 -34.242  1.00  0.00     0.034 C 
ENDBRANCH  33  34
ENDBRANCH  31  33
ENDBRANCH   1  31
TORSDOF 7
ENDMDL
MODEL 6
REMARK VINA RESULT:      -9.0      3.178      7.521
REMARK  7 active torsions:
REMARK  status: ('A' for Active; 'I' for Inactive)
REMARK    1  A    between atoms: C_2  and  O_3 
REMARK    2  A    between atoms: O_3  and  C_4 
REMARK    3  A    between atoms: C_4  and  C_5 
REMARK    4  A    between atoms: C_6  and  C_7 
REMARK    5  A    between atoms: C_18  and  S_19 
REMARK    6  A    between atoms: S_19  and  C_20 
REMARK    7  A    between atoms: C_20  and  C_21 
ROOT
HETATM    1  C   UNL     1      -6.358   1.638 -31.772  1.00  0.00     0.070 A 
HETATM    2  C   UNL     1      -5.331   2.624 -31.221  1.00  0.00     0.203 A 
HETATM    3  N   UNL     1      -5.940   3.555 -30.263  1.00  0.00    -0.082 N 
HETATM    4  C   UNL     1      -7.259   3.536 -29.903  1.00  0.00     0.726 A 
HETATM    5  N   UNL     1      -8.075   2.614 -30.444  1.00  0.00    -0.192 N 
HETATM    6  N   UNL     1      -5.261   4.494 -29.577  1.00  0.00    -0.128 NA
HETATM    7  C   UNL     1      -6.252   5.065 -28.881  1.00  0.00     0.226 A 
HETATM    8  N   UNL     1      -7.489   4.488 -29.036  1.00  0.00    -0.035 NA
HETATM    9  C   UNL     1      -7.655   1.665 -31.370  1.00  0.00     0.037 A 
HETATM   10  C   UNL     1      -8.716   0.698 -31.838  1.00  0.00     0.070 C 
HETATM   11  H   UNL     1      -9.056   2.609 -30.177  1.00  0.00     0.184 HD
ENDROOT
BRANCH   7  12
HETATM   12  S   UNL     1      -5.948   6.455 -27.882  1.00  0.00    -0.083 SA
BRANCH  12  13
HETATM   13  C   UNL     1      -5.743   7.733 -29.151  1.00  0.00     0.121 C 
BRANCH  13  14
HETATM   14  C   UNL     1      -4.430   7.583 -29.885  1.00  0.00    -0.048 A 
HETATM   15  C   UNL     1      -3.243   7.314 -29.182  1.00  0.00     0.020 A 
HETATM   16  C   UNL     1      -2.021   7.144 -29.852  1.00  0.00    -0.025 A 
HETATM   17  C   UNL     1      -1.981   7.260 -31.260  1.00  0.00    -0.026 A 
HETATM   18  C   UNL     1      -0.837   6.856 -29.155  1.00  0.00     0.012 A 
HETATM   19  C   UNL     1      -3.167   7.536 -31.958  1.00  0.00     0.013 A 
HETATM   20  C   UNL     1      -0.759   7.087 -31.930  1.00  0.00     0.012 A 
HETATM   21  C   UNL     1      -4.378   7.691 -31.279  1.00  0.00     0.009 A 
HETATM   22  C   UNL     1       0.408   6.800 -31.221  1.00  0.00     0.001 A 
HETATM   23  C   UNL     1       0.370   6.684 -29.835  1.00  0.00     0.001 A 
ENDBRANCH  13  14
ENDBRANCH  12  13
ENDBRANCH   7  12
BRANCH   2  24
HETATM   24  C   UNL     1      -4.585   3.410 -32.299  1.00  0.00    -0.028 A 
HETATM   25  C   UNL     1      -5.264   4.180 -33.260  1.00  0.00     0.012 A 
HETATM   26  C   UNL     1      -4.551   4.883 -34.233  1.00  0.00     0.043 A 
HETATM   27  C   UNL     1      -3.163   4.829 -34.245  1.00  0.00     0.116 A 
HETATM   28  F   UNL     1      -2.482   5.505 -35.180  1.00  0.00    -0.206 F 
HETATM   29  C   UNL     1      -2.469   4.088 -33.298  1.00  0.00     0.043 A 
HETATM   30  C   UNL     1      -3.177   3.381 -32.325  1.00  0.00     0.012 A 
ENDBRANCH   2  24
BRANCH   1  31
HETATM   31  C   UNL     1      -5.890   0.693 -32.810  1.00  0.00     0.293 C 
HETATM   32  O   UNL     1      -6.000   0.884 -34.010  1.00  0.00    -0.259 OA
BRANCH  31  33
HETATM   33  O   UNL     1      -5.303  -0.380 -32.225  1.00  0.00    -0.318 OA
BRANCH  33  34
HETATM   34  C   UNL     1      -3.949  -0.639 -32.633  1.00  0.00     0.174 C 
HETATM   35  C   UNL     1      -2.979  -0.282 -31.520  1.00  0.00     0.034 C 
ENDBRANCH  33  34
ENDBRANCH  31  33
ENDBRANCH   1  31
TORSDOF 7
ENDMDL
MODEL 7
REMARK VINA RESULT:      -8.9      2.423      3.895
REMARK  7 active torsions:
REMARK  status: ('A' for Active; 'I' for Inactive)
REMARK    1  A    between atoms: C_2  and  O_3 
REMARK    2  A    between atoms: O_3  and  C_4 
REMARK    3  A    between atoms: C_4  and  C_5 
REMARK    4  A    between atoms: C_6  and  C_7 
REMARK    5  A    between atoms: C_18  and  S_19 
REMARK    6  A    between atoms: S_19  and  C_20 
REMARK    7  A    between atoms: C_20  and  C_21 
ROOT
HETATM    1  C   UNL     1      -2.016   6.174 -32.275  1.00  0.00     0.070 A 
HETATM    2  C   UNL     1      -2.950   5.666 -31.180  1.00  0.00     0.203 A 
HETATM    3  N   UNL     1      -3.674   4.462 -31.609  1.00  0.00    -0.082 N 
HETATM    4  C   UNL     1      -3.523   3.867 -32.831  1.00  0.00     0.726 A 
HETATM    5  N   UNL     1      -2.660   4.395 -33.718  1.00  0.00    -0.192 N 
HETATM    6  N   UNL     1      -4.521   3.764 -30.829  1.00  0.00    -0.128 NA
HETATM    7  C   UNL     1      -4.913   2.805 -31.675  1.00  0.00     0.226 A 
HETATM    8  N   UNL     1      -4.303   2.819 -32.906  1.00  0.00    -0.035 NA
HETATM    9  C   UNL     1      -1.904   5.535 -33.467  1.00  0.00     0.037 A 
HETATM   10  C   UNL     1      -0.971   5.954 -34.579  1.00  0.00     0.070 C 
HETATM   11  H   UNL     1      -2.557   3.951 -34.626  1.00  0.00     0.184 HD
ENDROOT
BRANCH   7  12
HETATM   12  S   UNL     1      -6.131   1.654 -31.210  1.00  0.00    -0.083 SA
BRANCH  12  13
HETATM   13  C   UNL     1      -6.646   1.046 -32.839  1.00  0.00     0.121 C 
BRANCH  13  14
HETATM   14  C   UNL     1      -6.015  -0.290 -33.158  1.00  0.00    -0.048 A 
HETATM   15  C   UNL     1      -6.736  -1.274 -33.854  1.00  0.00     0.020 A 
HETATM   16  C   UNL     1      -6.154  -2.510 -34.182  1.00  0.00    -0.025 A 
HETATM   17  C   UNL     1      -4.822  -2.773 -33.792  1.00  0.00    -0.026 A 
HETATM   18  C   UNL     1      -6.865  -3.489 -34.895  1.00  0.00     0.012 A 
HETATM   19  C   UNL     1      -4.107  -1.790 -33.089  1.00  0.00     0.013 A 
HETATM   20  C   UNL     1      -4.238  -4.007 -34.122  1.00  0.00     0.012 A 
HETATM   21  C   UNL     1      -4.695  -0.561 -32.780  1.00  0.00     0.009 A 
HETATM   22  C   UNL     1      -4.959  -4.968 -34.832  1.00  0.00     0.001 A 
HETATM   23  C   UNL     1      -6.271  -4.710 -35.219  1.00  0.00     0.001 A 
ENDBRANCH  13  14
ENDBRANCH  12  13
ENDBRANCH   7  12
BRANCH   2  24
HETATM   24  C   UNL     1      -3.945   6.712 -30.678  1.00  0.00    -0.028 A 
HETATM   25  C   UNL     1      -4.918   7.277 -31.522  1.00  0.00     0.012 A 
HETATM   26  C   UNL     1      -5.809   8.233 -31.030  1.00  0.00     0.043 A 
HETATM   27  C   UNL     1      -5.739   8.620 -29.698  1.00  0.00     0.116 A 
HETATM   28  F   UNL     1      -6.595   9.539 -29.230  1.00  0.00    -0.206 F 
HETATM   29  C   UNL     1      -4.797   8.067 -28.842  1.00  0.00     0.043 A 
HETATM   30  C   UNL     1      -3.902   7.113 -29.328  1.00  0.00     0.012 A 
ENDBRANCH   2  24
BRANCH   1  31
HETATM   31  C   UNL     1      -1.284   7.431 -32.000  1.00  0.00     0.293 C 
HETATM   32  O   UNL     1      -1.660   8.536 -32.359  1.00  0.00    -0.259 OA
BRANCH  31  33
HETATM   33  O   UNL     1      -0.170   7.167 -31.274  1.00  0.00    -0.318 OA
BRANCH  33  34
HETATM   34  C   UNL     1      -0.252   7.498 -29.878  1.00  0.00     0.174 C 
HETATM   35  C   UNL     1       0.179   6.319 -29.023  1.00  0.00     0.034 C 
ENDBRANCH  33  34
ENDBRANCH  31  33
ENDBRANCH   1  31
TORSDOF 7
ENDMDL
MODEL 8
REMARK VINA RESULT:      -8.9      5.625      7.607
REMARK  7 active torsions:
REMARK  status: ('A' for Active; 'I' for Inactive)
REMARK    1  A    between atoms: C_2  and  O_3 
REMARK    2  A    between atoms: O_3  and  C_4 
REMARK    3  A    between atoms: C_4  and  C_5 
REMARK    4  A    between atoms: C_6  and  C_7 
REMARK    5  A    between atoms: C_18  and  S_19 
REMARK    6  A    between atoms: S_19  and  C_20 
REMARK    7  A    between atoms: C_20  and  C_21 
ROOT
HETATM    1  C   UNL     1     -11.655   6.042 -34.156  1.00  0.00     0.070 A 
HETATM    2  C   UNL     1     -11.318   4.770 -33.382  1.00  0.00     0.203 A 
HETATM    3  N   UNL     1      -9.902   4.411 -33.531  1.00  0.00    -0.082 N 
HETATM    4  C   UNL     1      -8.998   5.129 -34.262  1.00  0.00     0.726 A 
HETATM    5  N   UNL     1      -9.403   6.244 -34.897  1.00  0.00    -0.192 N 
HETATM    6  N   UNL     1      -9.312   3.370 -32.912  1.00  0.00    -0.128 NA
HETATM    7  C   UNL     1      -8.064   3.470 -33.385  1.00  0.00     0.226 A 
HETATM    8  N   UNL     1      -7.826   4.551 -34.197  1.00  0.00    -0.035 NA
HETATM    9  C   UNL     1     -10.711   6.716 -34.861  1.00  0.00     0.037 A 
HETATM   10  C   UNL     1     -10.959   8.001 -35.614  1.00  0.00     0.070 C 
HETATM   11  H   UNL     1      -8.727   6.770 -35.444  1.00  0.00     0.184 HD
ENDROOT
BRANCH   7  12
HETATM   12  S   UNL     1      -6.866   2.272 -32.989  1.00  0.00    -0.083 SA
BRANCH  12  13
HETATM   13  C   UNL     1      -7.033   1.159 -34.410  1.00  0.00     0.121 C 
BRANCH  13  14
HETATM   14  C   UNL     1      -6.247  -0.117 -34.213  1.00  0.00    -0.048 A 
HETATM   15  C   UNL     1      -6.738  -1.342 -34.692  1.00  0.00     0.020 A 
HETATM   16  C   UNL     1      -6.005  -2.531 -34.540  1.00  0.00    -0.025 A 
HETATM   17  C   UNL     1      -4.757  -2.495 -33.880  1.00  0.00    -0.026 A 
HETATM   18  C   UNL     1      -6.484  -3.755 -35.035  1.00  0.00     0.012 A 
HETATM   19  C   UNL     1      -4.273  -1.271 -33.396  1.00  0.00     0.013 A 
HETATM   20  C   UNL     1      -4.023  -3.684 -33.731  1.00  0.00     0.012 A 
HETATM   21  C   UNL     1      -5.007  -0.094 -33.564  1.00  0.00     0.009 A 
HETATM   22  C   UNL     1      -4.513  -4.892 -34.230  1.00  0.00     0.001 A 
HETATM   23  C   UNL     1      -5.742  -4.928 -34.882  1.00  0.00     0.001 A 
ENDBRANCH  13  14
ENDBRANCH  12  13
ENDBRANCH   7  12
BRANCH   2  24
HETATM   24  C   UNL     1     -12.194   3.571 -33.746  1.00  0.00    -0.028 A 
HETATM   25  C   UNL     1     -12.074   2.913 -34.983  1.00  0.00     0.012 A 
HETATM   26  C   UNL     1     -12.893   1.823 -35.284  1.00  0.00     0.043 A 
HETATM   27  C   UNL     1     -13.824   1.381 -34.352  1.00  0.00     0.116 A 
HETATM   28  F   UNL     1     -14.608   0.335 -34.645  1.00  0.00    -0.206 F 
HETATM   29  C   UNL     1     -13.951   2.006 -33.119  1.00  0.00     0.043 A 
HETATM   30  C   UNL     1     -13.137   3.097 -32.814  1.00  0.00     0.012 A 
ENDBRANCH   2  24
BRANCH   1  31
HETATM   31  C   UNL     1     -13.072   6.471 -34.155  1.00  0.00     0.293 C 
HETATM   32  O   UNL     1     -13.595   7.104 -33.252  1.00  0.00    -0.259 OA
BRANCH  31  33
HETATM   33  O   UNL     1     -13.671   6.084 -35.307  1.00  0.00    -0.318 OA
BRANCH  33  34
HETATM   34  C   UNL     1     -14.506   7.075 -35.930  1.00  0.00     0.174 C 
HETATM   35  C   UNL     1     -14.289   7.090 -37.433  1.00  0.00     0.034 C 
ENDBRANCH  33  34
ENDBRANCH  31  33
ENDBRANCH   1  31
TORSDOF 7
ENDMDL
MODEL 9
REMARK VINA RESULT:      -8.9      2.612      3.774
REMARK  7 active torsions:
REMARK  status: ('A' for Active; 'I' for Inactive)
REMARK    1  A    between atoms: C_2  and  O_3 
REMARK    2  A    between atoms: O_3  and  C_4 
REMARK    3  A    between atoms: C_4  and  C_5 
REMARK    4  A    between atoms: C_6  and  C_7 
REMARK    5  A    between atoms: C_18  and  S_19 
REMARK    6  A    between atoms: S_19  and  C_20 
REMARK    7  A    between atoms: C_20  and  C_21 
ROOT
HETATM    1  C   UNL     1      -4.929   6.542 -32.110  1.00  0.00     0.070 A 
HETATM    2  C   UNL     1      -5.405   5.335 -32.915  1.00  0.00     0.203 A 
HETATM    3  N   UNL     1      -6.849   5.398 -33.174  1.00  0.00    -0.082 N 
HETATM    4  C   UNL     1      -7.663   6.414 -32.755  1.00  0.00     0.726 A 
HETATM    5  N   UNL     1      -7.134   7.436 -32.060  1.00  0.00    -0.192 N 
HETATM    6  N   UNL     1      -7.531   4.499 -33.909  1.00  0.00    -0.128 NA
HETATM    7  C   UNL     1      -8.773   4.989 -33.821  1.00  0.00     0.226 A 
HETATM    8  N   UNL     1      -8.891   6.177 -33.141  1.00  0.00    -0.035 NA
HETATM    9  C   UNL     1      -5.786   7.523 -31.728  1.00  0.00     0.037 A 
HETATM   10  C   UNL     1      -5.382   8.765 -30.969  1.00  0.00     0.070 C 
HETATM   11  H   UNL     1      -7.746   8.185 -31.746  1.00  0.00     0.184 HD
ENDROOT
BRANCH   7  12
HETATM   12  S   UNL     1     -10.117   4.132 -34.515  1.00  0.00    -0.083 SA
BRANCH  12  13
HETATM   13  C   UNL     1     -10.505   2.984 -33.167  1.00  0.00     0.121 C 
BRANCH  13  14
HETATM   14  C   UNL     1      -9.433   1.930 -33.007  1.00  0.00    -0.048 A 
HETATM   15  C   UNL     1      -8.922   1.253 -34.127  1.00  0.00     0.020 A 
HETATM   16  C   UNL     1      -7.907   0.291 -33.996  1.00  0.00    -0.025 A 
HETATM   17  C   UNL     1      -7.399  -0.010 -32.713  1.00  0.00    -0.026 A 
HETATM   18  C   UNL     1      -7.379  -0.374 -35.116  1.00  0.00     0.012 A 
HETATM   19  C   UNL     1      -7.917   0.663 -31.596  1.00  0.00     0.013 A 
HETATM   20  C   UNL     1      -6.381  -0.969 -32.583  1.00  0.00     0.012 A 
HETATM   21  C   UNL     1      -8.919   1.625 -31.742  1.00  0.00     0.009 A 
HETATM   22  C   UNL     1      -5.868  -1.620 -33.706  1.00  0.00     0.001 A 
HETATM   23  C   UNL     1      -6.366  -1.323 -34.971  1.00  0.00     0.001 A 
ENDBRANCH  13  14
ENDBRANCH  12  13
ENDBRANCH   7  12
BRANCH   2  24
HETATM   24  C   UNL     1      -5.054   3.989 -32.281  1.00  0.00    -0.028 A 
HETATM   25  C   UNL     1      -4.271   3.034 -32.953  1.00  0.00     0.012 A 
HETATM   26  C   UNL     1      -3.973   1.812 -32.346  1.00  0.00     0.043 A 
HETATM   27  C   UNL     1      -4.444   1.545 -31.066  1.00  0.00     0.116 A 
HETATM   28  F   UNL     1      -4.157   0.372 -30.487  1.00  0.00    -0.206 F 
HETATM   29  C   UNL     1      -5.208   2.478 -30.378  1.00  0.00     0.043 A 
HETATM   30  C   UNL     1      -5.512   3.698 -30.981  1.00  0.00     0.012 A 
ENDBRANCH   2  24
BRANCH   1  31
HETATM   31  C   UNL     1      -3.504   6.562 -31.712  1.00  0.00     0.293 C 
HETATM   32  O   UNL     1      -3.106   6.342 -30.580  1.00  0.00    -0.259 OA
BRANCH  31  33
HETATM   33  O   UNL     1      -2.728   6.827 -32.791  1.00  0.00    -0.318 OA
BRANCH  33  34
HETATM   34  C   UNL     1      -1.741   5.829 -33.100  1.00  0.00     0.174 C 
HETATM   35  C   UNL     1      -1.685   5.576 -34.596  1.00  0.00     0.034 C 
ENDBRANCH  33  34
ENDBRANCH  31  33
ENDBRANCH   1  31
TORSDOF 7
ENDMDL
MODEL 10
REMARK VINA RESULT:      -8.6      1.948      2.653
REMARK  7 active torsions:
REMARK  status: ('A' for Active; 'I' for Inactive)
REMARK    1  A    between atoms: C_2  and  O_3 
REMARK    2  A    between atoms: O_3  and  C_4 
REMARK    3  A    between atoms: C_4  and  C_5 
REMARK    4  A    between atoms: C_6  and  C_7 
REMARK    5  A    between atoms: C_18  and  S_19 
REMARK    6  A    between atoms: S_19  and  C_20 
REMARK    7  A    between atoms: C_20  and  C_21 
ROOT
HETATM    1  C   UNL     1      -4.907   7.766 -30.302  1.00  0.00     0.070 A 
HETATM    2  C   UNL     1      -4.266   6.804 -31.299  1.00  0.00     0.203 A 
HETATM    3  N   UNL     1      -4.689   5.418 -31.056  1.00  0.00    -0.082 N 
HETATM    4  C   UNL     1      -5.554   5.040 -30.067  1.00  0.00     0.726 A 
HETATM    5  N   UNL     1      -6.070   5.975 -29.250  1.00  0.00    -0.192 N 
HETATM    6  N   UNL     1      -4.327   4.368 -31.816  1.00  0.00    -0.128 NA
HETATM    7  C   UNL     1      -4.945   3.368 -31.176  1.00  0.00     0.226 A 
HETATM    8  N   UNL     1      -5.728   3.744 -30.112  1.00  0.00    -0.035 NA
HETATM    9  C   UNL     1      -5.765   7.329 -29.345  1.00  0.00     0.037 A 
HETATM   10  C   UNL     1      -6.470   8.225 -28.354  1.00  0.00     0.070 C 
HETATM   11  H   UNL     1      -6.708   5.686 -28.514  1.00  0.00     0.184 HD
ENDROOT
BRANCH   7  12
HETATM   12  S   UNL     1      -4.721   1.719 -31.680  1.00  0.00    -0.083 SA
BRANCH  12  13
HETATM   13  C   UNL     1      -6.022   1.580 -32.935  1.00  0.00     0.121 C 
BRANCH  13  14
HETATM   14  C   UNL     1      -6.104   0.180 -33.499  1.00  0.00    -0.048 A 
HETATM   15  C   UNL     1      -5.064  -0.741 -33.284  1.00  0.00     0.020 A 
HETATM   16  C   UNL     1      -5.139  -2.053 -33.779  1.00  0.00    -0.025 A 
HETATM   17  C   UNL     1      -6.275  -2.451 -34.518  1.00  0.00    -0.026 A 
HETATM   18  C   UNL     1      -4.111  -2.982 -33.548  1.00  0.00     0.012 A 
HETATM   19  C   UNL     1      -7.307  -1.527 -34.737  1.00  0.00     0.013 A 
HETATM   20  C   UNL     1      -6.351  -3.765 -35.009  1.00  0.00     0.012 A 
HETATM   21  C   UNL     1      -7.225  -0.228 -34.230  1.00  0.00     0.009 A 
HETATM   22  C   UNL     1      -5.320  -4.676 -34.771  1.00  0.00     0.001 A 
HETATM   23  C   UNL     1      -4.201  -4.285 -34.041  1.00  0.00     0.001 A 
ENDBRANCH  13  14
ENDBRANCH  12  13
ENDBRANCH   7  12
BRANCH   2  24
HETATM   24  C   UNL     1      -2.739   6.876 -31.337  1.00  0.00    -0.028 A 
HETATM   25  C   UNL     1      -1.951   6.499 -30.236  1.00  0.00     0.012 A 
HETATM   26  C   UNL     1      -0.558   6.581 -30.305  1.00  0.00     0.043 A 
HETATM   27  C   UNL     1       0.050   7.029 -31.471  1.00  0.00     0.116 A 
HETATM   28  F   UNL     1       1.386   7.107 -31.533  1.00  0.00    -0.206 F 
HETATM   29  C   UNL     1      -0.707   7.394 -32.576  1.00  0.00     0.043 A 
HETATM   30  C   UNL     1      -2.099   7.316 -32.512  1.00  0.00     0.012 A 
ENDBRANCH   2  24
BRANCH   1  31
HETATM   31  C   UNL     1      -4.502   9.187 -30.386  1.00  0.00     0.293 C 
HETATM   32  O   UNL     1      -4.804   9.932 -31.304  1.00  0.00    -0.259 OA
BRANCH  31  33
HETATM   33  O   UNL     1      -3.783   9.527 -29.288  1.00  0.00    -0.318 OA
BRANCH  33  34
HETATM   34  C   UNL     1      -2.481  10.076 -29.551  1.00  0.00     0.174 C 
HETATM   35  C   UNL     1      -1.515   9.720 -28.434  1.00  0.00     0.034 C 
ENDBRANCH  33  34
ENDBRANCH  31  33
ENDBRANCH   1  31
TORSDOF 7
ENDMDL
