MODEL 1
REMARK VINA RESULT:      -8.6      0.000      0.000
REMARK  6 active torsions:
REMARK  status: ('A' for Active; 'I' for Inactive)
REMARK    1  A    between atoms: C_3  and  N_4 
REMARK       I    between atoms: N_4  and  C_5 
REMARK       I    between atoms: C_5  and  N_6 
REMARK    2  A    between atoms: N_6  and  C_7 
REMARK    3  A    between atoms: C_7  and  C_8 
REMARK    4  A    between atoms: C_8  and  C_9 
REMARK    5  A    between atoms: C_21  and  O_22 
REMARK    6  A    between atoms: O_22  and  C_23 
ROOT
HETATM    1  N   UNL     1      -6.191   0.800 -31.522  1.00  0.00    -0.308 N 
HETATM    2  C   UNL     1      -5.446   1.907 -31.248  1.00  0.00     0.322 C 
HETATM    3  N   UNL     1      -5.025   2.715 -32.284  1.00  0.00    -0.338 N 
HETATM    4  C   UNL     1      -5.700   2.798 -33.577  1.00  0.00     0.154 C 
HETATM    5  O   UNL     1      -5.248   2.197 -30.068  1.00  0.00    -0.247 OA
HETATM    6  H   UNL     1      -6.725   0.503 -30.714  1.00  0.00     0.170 HD
ENDROOT
BRANCH   1   7
HETATM    7  C   UNL     1      -6.011  -0.187 -32.516  1.00  0.00     0.042 A 
HETATM    8  C   UNL     1      -7.126  -0.593 -33.280  1.00  0.00    -0.033 A 
HETATM    9  C   UNL     1      -8.484   0.033 -33.100  1.00  0.00     0.050 C 
HETATM   10  C   UNL     1      -6.972  -1.611 -34.237  1.00  0.00     0.045 A 
HETATM   11  C   UNL     1      -5.725  -2.199 -34.448  1.00  0.00     0.075 A 
HETATM   12  C   UNL     1      -4.636  -1.825 -33.668  1.00  0.00     0.039 A 
HETATM   13  C   UNL     1      -4.778  -0.820 -32.709  1.00  0.00     0.033 A 
BRANCH  11  14
HETATM   14  O   UNL     1      -5.535  -3.215 -35.342  1.00  0.00    -0.290 OA
BRANCH  14  15
HETATM   15  C   UNL     1      -6.084  -4.442 -34.879  1.00  0.00     0.505 C 
HETATM   16  F   UNL     1      -6.985  -4.898 -35.785  1.00  0.00    -0.184 F 
HETATM   17  F   UNL     1      -5.074  -5.349 -34.846  1.00  0.00    -0.184 F 
ENDBRANCH  14  15
ENDBRANCH  11  14
ENDBRANCH   1   7
BRANCH   3  18
HETATM   18  C   UNL     1      -4.151   3.845 -31.956  1.00  0.00     0.132 C 
BRANCH  18  19
HETATM   19  C   UNL     1      -2.729   3.688 -32.521  1.00  0.00     0.062 C 
BRANCH  19  20
HETATM   20  C   UNL     1      -2.158   4.976 -33.019  1.00  0.00    -0.007 A 
HETATM   21  C   UNL     1      -2.532   5.698 -34.189  1.00  0.00     0.059 A 
HETATM   22  C   UNL     1      -3.583   5.364 -35.183  1.00  0.00     0.073 C 
HETATM   23  N   UNL     1      -1.813   6.815 -34.335  1.00  0.00    -0.179 NA
HETATM   24  N   UNL     1      -1.000   6.824 -33.270  1.00  0.00    -0.282 N 
HETATM   25  H   UNL     1      -0.357   7.602 -33.166  1.00  0.00     0.189 HD
HETATM   26  C   UNL     1      -1.161   5.745 -32.447  1.00  0.00     0.032 A 
HETATM   27  C   UNL     1      -0.359   5.567 -31.215  1.00  0.00     0.070 C 
ENDBRANCH  19  20
ENDBRANCH  18  19
ENDBRANCH   3  18
TORSDOF 6
ENDMDL
MODEL 2
REMARK VINA RESULT:      -8.6      0.206      1.630
REMARK  6 active torsions:
REMARK  status: ('A' for Active; 'I' for Inactive)
REMARK    1  A    between atoms: C_3  and  N_4 
REMARK       I    between atoms: N_4  and  C_5 
REMARK       I    between atoms: C_5  and  N_6 
REMARK    2  A    between atoms: N_6  and  C_7 
REMARK    3  A    between atoms: C_7  and  C_8 
REMARK    4  A    between atoms: C_8  and  C_9 
REMARK    5  A    between atoms: C_21  and  O_22 
REMARK    6  A    between atoms: O_22  and  C_23 
ROOT
HETATM    1  N   UNL     1      -6.167   0.796 -31.459  1.00  0.00    -0.308 N 
HETATM    2  C   UNL     1      -5.428   1.911 -31.205  1.00  0.00     0.322 C 
HETATM    3  N   UNL     1      -5.046   2.726 -32.251  1.00  0.00    -0.338 N 
HETATM    4  C   UNL     1      -5.759   2.803 -33.523  1.00  0.00     0.154 C 
HETATM    5  O   UNL     1      -5.199   2.202 -30.029  1.00  0.00    -0.247 OA
HETATM    6  H   UNL     1      -6.674   0.491 -30.637  1.00  0.00     0.170 HD
ENDROOT
BRANCH   1   7
HETATM    7  C   UNL     1      -6.003  -0.187 -32.459  1.00  0.00     0.042 A 
HETATM    8  C   UNL     1      -7.130  -0.588 -33.209  1.00  0.00    -0.033 A 
HETATM    9  C   UNL     1      -8.484   0.040 -33.006  1.00  0.00     0.050 C 
HETATM   10  C   UNL     1      -6.992  -1.602 -34.172  1.00  0.00     0.045 A 
HETATM   11  C   UNL     1      -5.749  -2.192 -34.405  1.00  0.00     0.075 A 
HETATM   12  C   UNL     1      -4.649  -1.823 -33.639  1.00  0.00     0.039 A 
HETATM   13  C   UNL     1      -4.774  -0.822 -32.674  1.00  0.00     0.033 A 
BRANCH  11  14
HETATM   14  O   UNL     1      -5.574  -3.204 -35.305  1.00  0.00    -0.290 OA
BRANCH  14  15
HETATM   15  C   UNL     1      -6.152  -4.423 -34.856  1.00  0.00     0.505 C 
HETATM   16  F   UNL     1      -6.926  -4.941 -35.843  1.00  0.00    -0.184 F 
HETATM   17  F   UNL     1      -5.136  -5.302 -34.658  1.00  0.00    -0.184 F 
ENDBRANCH  14  15
ENDBRANCH  11  14
ENDBRANCH   1   7
BRANCH   3  18
HETATM   18  C   UNL     1      -4.177   3.866 -31.945  1.00  0.00     0.132 C 
BRANCH  18  19
HETATM   19  C   UNL     1      -2.777   3.738 -32.570  1.00  0.00     0.062 C 
BRANCH  19  20
HETATM   20  C   UNL     1      -2.317   5.000 -33.225  1.00  0.00    -0.007 A 
HETATM   21  C   UNL     1      -1.262   5.861 -32.806  1.00  0.00     0.059 A 
HETATM   22  C   UNL     1      -0.358   5.713 -31.639  1.00  0.00     0.073 C 
HETATM   23  N   UNL     1      -1.119   6.906 -33.627  1.00  0.00    -0.179 NA
HETATM   24  N   UNL     1      -2.052   6.715 -34.568  1.00  0.00    -0.282 N 
HETATM   25  H   UNL     1      -2.122   7.396 -35.318  1.00  0.00     0.189 HD
HETATM   26  C   UNL     1      -2.802   5.589 -34.379  1.00  0.00     0.032 A 
HETATM   27  C   UNL     1      -3.885   5.197 -35.308  1.00  0.00     0.070 C 
ENDBRANCH  19  20
ENDBRANCH  18  19
ENDBRANCH   3  18
TORSDOF 6
ENDMDL
MODEL 3
REMARK VINA RESULT:      -8.2      5.866      8.142
REMARK  6 active torsions:
REMARK  status: ('A' for Active; 'I' for Inactive)
REMARK    1  A    between atoms: C_3  and  N_4 
REMARK       I    between atoms: N_4  and  C_5 
REMARK       I    between atoms: C_5  and  N_6 
REMARK    2  A    between atoms: N_6  and  C_7 
REMARK    3  A    between atoms: C_7  and  C_8 
REMARK    4  A    between atoms: C_8  and  C_9 
REMARK    5  A    between atoms: C_21  and  O_22 
REMARK    6  A    between atoms: O_22  and  C_23 
ROOT
HETATM    1  N   UNL     1      -8.831   1.736 -32.869  1.00  0.00    -0.308 N 
HETATM    2  C   UNL     1      -7.913   0.763 -32.613  1.00  0.00     0.322 C 
HETATM    3  N   UNL     1      -7.625  -0.171 -33.586  1.00  0.00    -0.338 N 
HETATM    4  C   UNL     1      -7.815   0.059 -35.016  1.00  0.00     0.154 C 
HETATM    5  O   UNL     1      -7.303   0.805 -31.543  1.00  0.00    -0.247 OA
HETATM    6  H   UNL     1      -8.702   2.537 -32.262  1.00  0.00     0.170 HD
ENDROOT
BRANCH   1   7
HETATM    7  C   UNL     1     -10.105   1.640 -33.470  1.00  0.00     0.042 A 
HETATM    8  C   UNL     1     -10.559   2.707 -34.274  1.00  0.00    -0.033 A 
HETATM    9  C   UNL     1      -9.704   3.916 -34.549  1.00  0.00     0.050 C 
HETATM   10  C   UNL     1     -11.846   2.647 -34.836  1.00  0.00     0.045 A 
HETATM   11  C   UNL     1     -12.659   1.535 -34.623  1.00  0.00     0.075 A 
HETATM   12  C   UNL     1     -12.226   0.502 -33.800  1.00  0.00     0.039 A 
HETATM   13  C   UNL     1     -10.952   0.552 -33.229  1.00  0.00     0.033 A 
BRANCH  11  14
HETATM   14  O   UNL     1     -13.929   1.448 -35.120  1.00  0.00    -0.290 OA
BRANCH  14  15
HETATM   15  C   UNL     1     -14.803   0.761 -34.233  1.00  0.00     0.505 C 
HETATM   16  F   UNL     1     -15.316   1.643 -33.339  1.00  0.00    -0.184 F 
HETATM   17  F   UNL     1     -15.847   0.304 -34.970  1.00  0.00    -0.184 F 
ENDBRANCH  14  15
ENDBRANCH  11  14
ENDBRANCH   1   7
BRANCH   3  18
HETATM   18  C   UNL     1      -6.698  -1.253 -33.240  1.00  0.00     0.132 C 
BRANCH  18  19
HETATM   19  C   UNL     1      -5.784  -1.657 -34.409  1.00  0.00     0.062 C 
BRANCH  19  20
HETATM   20  C   UNL     1      -5.093  -2.962 -34.181  1.00  0.00    -0.007 A 
HETATM   21  C   UNL     1      -3.984  -3.220 -33.324  1.00  0.00     0.059 A 
HETATM   22  C   UNL     1      -3.259  -2.272 -32.442  1.00  0.00     0.073 C 
HETATM   23  N   UNL     1      -3.617  -4.505 -33.360  1.00  0.00    -0.179 NA
HETATM   24  N   UNL     1      -4.482  -5.070 -34.212  1.00  0.00    -0.282 N 
HETATM   25  H   UNL     1      -4.397  -6.066 -34.389  1.00  0.00     0.189 HD
HETATM   26  C   UNL     1      -5.389  -4.194 -34.736  1.00  0.00     0.032 A 
HETATM   27  C   UNL     1      -6.432  -4.620 -35.697  1.00  0.00     0.070 C 
ENDBRANCH  19  20
ENDBRANCH  18  19
ENDBRANCH   3  18
TORSDOF 6
ENDMDL
MODEL 4
REMARK VINA RESULT:      -8.1      3.327      5.330
REMARK  6 active torsions:
REMARK  status: ('A' for Active; 'I' for Inactive)
REMARK    1  A    between atoms: C_3  and  N_4 
REMARK       I    between atoms: N_4  and  C_5 
REMARK       I    between atoms: C_5  and  N_6 
REMARK    2  A    between atoms: N_6  and  C_7 
REMARK    3  A    between atoms: C_7  and  C_8 
REMARK    4  A    between atoms: C_8  and  C_9 
REMARK    5  A    between atoms: C_21  and  O_22 
REMARK    6  A    between atoms: O_22  and  C_23 
ROOT
HETATM    1  N   UNL     1      -4.911   1.445 -32.529  1.00  0.00    -0.308 N 
HETATM    2  C   UNL     1      -5.783   2.294 -31.916  1.00  0.00     0.322 C 
HETATM    3  N   UNL     1      -6.799   1.779 -31.139  1.00  0.00    -0.338 N 
HETATM    4  C   UNL     1      -6.748   0.468 -30.497  1.00  0.00     0.154 C 
HETATM    5  O   UNL     1      -5.577   3.506 -32.007  1.00  0.00    -0.247 OA
HETATM    6  H   UNL     1      -4.040   1.909 -32.756  1.00  0.00     0.170 HD
ENDROOT
BRANCH   1   7
HETATM    7  C   UNL     1      -5.164   0.258 -33.250  1.00  0.00     0.042 A 
HETATM    8  C   UNL     1      -4.297  -0.841 -33.073  1.00  0.00    -0.033 A 
HETATM    9  C   UNL     1      -3.148  -0.799 -32.101  1.00  0.00     0.050 C 
HETATM   10  C   UNL     1      -4.507  -2.012 -33.823  1.00  0.00     0.045 A 
HETATM   11  C   UNL     1      -5.574  -2.097 -34.717  1.00  0.00     0.075 A 
HETATM   12  C   UNL     1      -6.404  -0.999 -34.918  1.00  0.00     0.039 A 
HETATM   13  C   UNL     1      -6.203   0.171 -34.185  1.00  0.00     0.033 A 
BRANCH  11  14
HETATM   14  O   UNL     1      -5.796  -3.200 -35.492  1.00  0.00    -0.290 OA
BRANCH  14  15
HETATM   15  C   UNL     1      -6.502  -4.213 -34.787  1.00  0.00     0.505 C 
HETATM   16  F   UNL     1      -7.503  -3.644 -34.069  1.00  0.00    -0.184 F 
HETATM   17  F   UNL     1      -7.094  -5.010 -35.713  1.00  0.00    -0.184 F 
ENDBRANCH  14  15
ENDBRANCH  11  14
ENDBRANCH   1   7
BRANCH   3  18
HETATM   18  C   UNL     1      -7.768   2.721 -30.570  1.00  0.00     0.132 C 
BRANCH  18  19
HETATM   19  C   UNL     1      -9.214   2.431 -31.006  1.00  0.00     0.062 C 
BRANCH  19  20
HETATM   20  C   UNL     1      -9.345   2.216 -32.479  1.00  0.00    -0.007 A 
HETATM   21  C   UNL     1      -9.676   1.006 -33.154  1.00  0.00     0.059 A 
HETATM   22  C   UNL     1      -9.986  -0.322 -32.570  1.00  0.00     0.073 C 
HETATM   23  N   UNL     1      -9.706   1.171 -34.481  1.00  0.00    -0.179 NA
HETATM   24  N   UNL     1      -9.417   2.466 -34.658  1.00  0.00    -0.282 N 
HETATM   25  H   UNL     1      -9.394   2.825 -35.607  1.00  0.00     0.189 HD
HETATM   26  C   UNL     1      -9.190   3.143 -33.494  1.00  0.00     0.032 A 
HETATM   27  C   UNL     1      -8.856   4.586 -33.472  1.00  0.00     0.070 C 
ENDBRANCH  19  20
ENDBRANCH  18  19
ENDBRANCH   3  18
TORSDOF 6
ENDMDL
MODEL 5
REMARK VINA RESULT:      -8.1      3.285      5.356
REMARK  6 active torsions:
REMARK  status: ('A' for Active; 'I' for Inactive)
REMARK    1  A    between atoms: C_3  and  N_4 
REMARK       I    between atoms: N_4  and  C_5 
REMARK       I    between atoms: C_5  and  N_6 
REMARK    2  A    between atoms: N_6  and  C_7 
REMARK    3  A    between atoms: C_7  and  C_8 
REMARK    4  A    between atoms: C_8  and  C_9 
REMARK    5  A    between atoms: C_21  and  O_22 
REMARK    6  A    between atoms: O_22  and  C_23 
ROOT
HETATM    1  N   UNL     1      -5.021   1.708 -32.741  1.00  0.00    -0.308 N 
HETATM    2  C   UNL     1      -5.935   2.539 -32.167  1.00  0.00     0.322 C 
HETATM    3  N   UNL     1      -6.751   2.061 -31.163  1.00  0.00    -0.338 N 
HETATM    4  C   UNL     1      -6.410   0.927 -30.308  1.00  0.00     0.154 C 
HETATM    5  O   UNL     1      -5.940   3.723 -32.509  1.00  0.00    -0.247 OA
HETATM    6  H   UNL     1      -4.271   2.227 -33.180  1.00  0.00     0.170 HD
ENDROOT
BRANCH   1   7
HETATM    7  C   UNL     1      -5.166   0.376 -33.186  1.00  0.00     0.042 A 
HETATM    8  C   UNL     1      -4.239  -0.592 -32.747  1.00  0.00    -0.033 A 
HETATM    9  C   UNL     1      -3.135  -0.255 -31.779  1.00  0.00     0.050 C 
HETATM   10  C   UNL     1      -4.341  -1.911 -33.222  1.00  0.00     0.045 A 
HETATM   11  C   UNL     1      -5.363  -2.268 -34.102  1.00  0.00     0.075 A 
HETATM   12  C   UNL     1      -6.253  -1.304 -34.564  1.00  0.00     0.039 A 
HETATM   13  C   UNL     1      -6.158   0.011 -34.104  1.00  0.00     0.033 A 
BRANCH  11  14
HETATM   14  O   UNL     1      -5.481  -3.527 -34.618  1.00  0.00    -0.290 OA
BRANCH  14  15
HETATM   15  C   UNL     1      -6.806  -3.802 -35.055  1.00  0.00     0.505 C 
HETATM   16  F   UNL     1      -6.788  -4.872 -35.889  1.00  0.00    -0.184 F 
HETATM   17  F   UNL     1      -7.521  -4.174 -33.962  1.00  0.00    -0.184 F 
ENDBRANCH  14  15
ENDBRANCH  11  14
ENDBRANCH   1   7
BRANCH   3  18
HETATM   18  C   UNL     1      -7.781   2.961 -30.635  1.00  0.00     0.132 C 
BRANCH  18  19
HETATM   19  C   UNL     1      -9.210   2.488 -30.951  1.00  0.00     0.062 C 
BRANCH  19  20
HETATM   20  C   UNL     1      -9.486   2.412 -32.418  1.00  0.00    -0.007 A 
HETATM   21  C   UNL     1      -9.597   3.494 -33.338  1.00  0.00     0.059 A 
HETATM   22  C   UNL     1      -9.453   4.948 -33.076  1.00  0.00     0.073 C 
HETATM   23  N   UNL     1      -9.850   3.066 -34.579  1.00  0.00    -0.179 NA
HETATM   24  N   UNL     1      -9.884   1.732 -34.466  1.00  0.00    -0.282 N 
HETATM   25  H   UNL     1     -10.054   1.186 -35.304  1.00  0.00     0.189 HD
HETATM   26  C   UNL     1      -9.673   1.282 -33.193  1.00  0.00     0.032 A 
HETATM   27  C   UNL     1      -9.670  -0.160 -32.857  1.00  0.00     0.070 C 
ENDBRANCH  19  20
ENDBRANCH  18  19
ENDBRANCH   3  18
TORSDOF 6
ENDMDL
MODEL 6
REMARK VINA RESULT:      -7.8      4.985      7.215
REMARK  6 active torsions:
REMARK  status: ('A' for Active; 'I' for Inactive)
REMARK    1  A    between atoms: C_3  and  N_4 
REMARK       I    between atoms: N_4  and  C_5 
REMARK       I    between atoms: C_5  and  N_6 
REMARK    2  A    between atoms: N_6  and  C_7 
REMARK    3  A    between atoms: C_7  and  C_8 
REMARK    4  A    between atoms: C_8  and  C_9 
REMARK    5  A    between atoms: C_21  and  O_22 
REMARK    6  A    between atoms: O_22  and  C_23 
ROOT
HETATM    1  N   UNL     1      -7.683   1.177 -30.844  1.00  0.00    -0.308 N 
HETATM    2  C   UNL     1      -6.593   0.361 -30.879  1.00  0.00     0.322 C 
HETATM    3  N   UNL     1      -5.871   0.242 -32.049  1.00  0.00    -0.338 N 
HETATM    4  C   UNL     1      -5.842   1.261 -33.094  1.00  0.00     0.154 C 
HETATM    5  O   UNL     1      -6.235  -0.179 -29.830  1.00  0.00    -0.247 OA
HETATM    6  H   UNL     1      -7.905   1.459 -29.897  1.00  0.00     0.170 HD
ENDROOT
BRANCH   1   7
HETATM    7  C   UNL     1      -8.738   1.314 -31.772  1.00  0.00     0.042 A 
HETATM    8  C   UNL     1      -9.195   2.609 -32.094  1.00  0.00    -0.033 A 
HETATM    9  C   UNL     1      -8.556   3.845 -31.516  1.00  0.00     0.050 C 
HETATM   10  C   UNL     1     -10.278   2.759 -32.977  1.00  0.00     0.045 A 
HETATM   11  C   UNL     1     -10.882   1.640 -33.550  1.00  0.00     0.075 A 
HETATM   12  C   UNL     1     -10.455   0.363 -33.203  1.00  0.00     0.039 A 
HETATM   13  C   UNL     1      -9.385   0.201 -32.321  1.00  0.00     0.033 A 
BRANCH  11  14
HETATM   14  O   UNL     1     -11.959   1.734 -34.386  1.00  0.00    -0.290 OA
BRANCH  14  15
HETATM   15  C   UNL     1     -13.082   1.015 -33.892  1.00  0.00     0.505 C 
HETATM   16  F   UNL     1     -13.584   1.659 -32.808  1.00  0.00    -0.184 F 
HETATM   17  F   UNL     1     -14.042   1.060 -34.850  1.00  0.00    -0.184 F 
ENDBRANCH  14  15
ENDBRANCH  11  14
ENDBRANCH   1   7
BRANCH   3  18
HETATM   18  C   UNL     1      -4.759  -0.714 -32.069  1.00  0.00     0.132 C 
BRANCH  18  19
HETATM   19  C   UNL     1      -4.324  -1.097 -33.494  1.00  0.00     0.062 C 
BRANCH  19  20
HETATM   20  C   UNL     1      -5.051  -2.290 -34.023  1.00  0.00    -0.007 A 
HETATM   21  C   UNL     1      -6.312  -2.316 -34.685  1.00  0.00     0.059 A 
HETATM   22  C   UNL     1      -7.198  -1.176 -35.028  1.00  0.00     0.073 C 
HETATM   23  N   UNL     1      -6.669  -3.559 -35.026  1.00  0.00    -0.179 NA
HETATM   24  N   UNL     1      -5.650  -4.320 -34.605  1.00  0.00    -0.282 N 
HETATM   25  H   UNL     1      -5.701  -5.320 -34.771  1.00  0.00     0.189 HD
HETATM   26  C   UNL     1      -4.652  -3.615 -33.995  1.00  0.00     0.032 A 
HETATM   27  C   UNL     1      -3.436  -4.269 -33.460  1.00  0.00     0.070 C 
ENDBRANCH  19  20
ENDBRANCH  18  19
ENDBRANCH   3  18
TORSDOF 6
ENDMDL
MODEL 7
REMARK VINA RESULT:      -7.8      3.817      6.619
REMARK  6 active torsions:
REMARK  status: ('A' for Active; 'I' for Inactive)
REMARK    1  A    between atoms: C_3  and  N_4 
REMARK       I    between atoms: N_4  and  C_5 
REMARK       I    between atoms: C_5  and  N_6 
REMARK    2  A    between atoms: N_6  and  C_7 
REMARK    3  A    between atoms: C_7  and  C_8 
REMARK    4  A    between atoms: C_8  and  C_9 
REMARK    5  A    between atoms: C_21  and  O_22 
REMARK    6  A    between atoms: O_22  and  C_23 
ROOT
HETATM    1  N   UNL     1      -6.679   2.823 -33.780  1.00  0.00    -0.308 N 
HETATM    2  C   UNL     1      -7.685   3.738 -33.700  1.00  0.00     0.322 C 
HETATM    3  N   UNL     1      -8.765   3.489 -32.879  1.00  0.00    -0.338 N 
HETATM    4  C   UNL     1      -8.718   2.605 -31.717  1.00  0.00     0.154 C 
HETATM    5  O   UNL     1      -7.551   4.805 -34.302  1.00  0.00    -0.247 OA
HETATM    6  H   UNL     1      -5.817   3.246 -34.103  1.00  0.00     0.170 HD
ENDROOT
BRANCH   1   7
HETATM    7  C   UNL     1      -6.744   1.419 -33.916  1.00  0.00     0.042 A 
HETATM    8  C   UNL     1      -5.960   0.617 -33.061  1.00  0.00    -0.033 A 
HETATM    9  C   UNL     1      -5.100   1.213 -31.978  1.00  0.00     0.050 C 
HETATM   10  C   UNL     1      -5.976  -0.780 -33.219  1.00  0.00     0.045 A 
HETATM   11  C   UNL     1      -6.777  -1.371 -34.196  1.00  0.00     0.075 A 
HETATM   12  C   UNL     1      -7.519  -0.577 -35.063  1.00  0.00     0.039 A 
HETATM   13  C   UNL     1      -7.507   0.812 -34.920  1.00  0.00     0.033 A 
BRANCH  11  14
HETATM   14  O   UNL     1      -6.798  -2.720 -34.410  1.00  0.00    -0.290 OA
BRANCH  14  15
HETATM   15  C   UNL     1      -5.625  -3.174 -35.073  1.00  0.00     0.505 C 
HETATM   16  F   UNL     1      -4.736  -3.625 -34.153  1.00  0.00    -0.184 F 
HETATM   17  F   UNL     1      -5.978  -4.244 -35.829  1.00  0.00    -0.184 F 
ENDBRANCH  14  15
ENDBRANCH  11  14
ENDBRANCH   1   7
BRANCH   3  18
HETATM   18  C   UNL     1      -9.867   4.456 -32.889  1.00  0.00     0.132 C 
BRANCH  18  19
HETATM   19  C   UNL     1     -11.249   3.793 -32.762  1.00  0.00     0.062 C 
BRANCH  19  20
HETATM   20  C   UNL     1     -11.668   3.081 -34.007  1.00  0.00    -0.007 A 
HETATM   21  C   UNL     1     -12.266   3.645 -35.171  1.00  0.00     0.059 A 
HETATM   22  C   UNL     1     -12.601   5.065 -35.441  1.00  0.00     0.073 C 
HETATM   23  N   UNL     1     -12.513   2.717 -36.101  1.00  0.00    -0.179 NA
HETATM   24  N   UNL     1     -12.068   1.577 -35.555  1.00  0.00    -0.282 N 
HETATM   25  H   UNL     1     -12.146   0.724 -36.099  1.00  0.00     0.189 HD
HETATM   26  C   UNL     1     -11.552   1.734 -34.300  1.00  0.00     0.032 A 
HETATM   27  C   UNL     1     -11.006   0.597 -33.524  1.00  0.00     0.070 C 
ENDBRANCH  19  20
ENDBRANCH  18  19
ENDBRANCH   3  18
TORSDOF 6
ENDMDL
MODEL 8
REMARK VINA RESULT:      -7.5      3.932      7.151
REMARK  6 active torsions:
REMARK  status: ('A' for Active; 'I' for Inactive)
REMARK    1  A    between atoms: C_3  and  N_4 
REMARK       I    between atoms: N_4  and  C_5 
REMARK       I    between atoms: C_5  and  N_6 
REMARK    2  A    between atoms: N_6  and  C_7 
REMARK    3  A    between atoms: C_7  and  C_8 
REMARK    4  A    between atoms: C_8  and  C_9 
REMARK    5  A    between atoms: C_21  and  O_22 
REMARK    6  A    between atoms: O_22  and  C_23 
ROOT
HETATM    1  N   UNL     1      -6.470   1.511 -32.599  1.00  0.00    -0.308 N 
HETATM    2  C   UNL     1      -7.601   2.269 -32.587  1.00  0.00     0.322 C 
HETATM    3  N   UNL     1      -8.823   1.662 -32.386  1.00  0.00    -0.338 N 
HETATM    4  C   UNL     1      -8.994   0.388 -31.692  1.00  0.00     0.154 C 
HETATM    5  O   UNL     1      -7.483   3.493 -32.669  1.00  0.00    -0.247 OA
HETATM    6  H   UNL     1      -5.648   2.067 -32.397  1.00  0.00     0.170 HD
ENDROOT
BRANCH   1   7
HETATM    7  C   UNL     1      -6.215   0.279 -33.241  1.00  0.00     0.042 A 
HETATM    8  C   UNL     1      -5.220  -0.569 -32.712  1.00  0.00    -0.033 A 
HETATM    9  C   UNL     1      -4.463  -0.222 -31.457  1.00  0.00     0.050 C 
HETATM   10  C   UNL     1      -4.920  -1.775 -33.370  1.00  0.00     0.045 A 
HETATM   11  C   UNL     1      -5.615  -2.142 -34.522  1.00  0.00     0.075 A 
HETATM   12  C   UNL     1      -6.568  -1.287 -35.064  1.00  0.00     0.039 A 
HETATM   13  C   UNL     1      -6.871  -0.084 -34.424  1.00  0.00     0.033 A 
BRANCH  11  14
HETATM   14  O   UNL     1      -5.335  -3.286 -35.215  1.00  0.00    -0.290 OA
BRANCH  14  15
HETATM   15  C   UNL     1      -6.151  -4.374 -34.800  1.00  0.00     0.505 C 
HETATM   16  F   UNL     1      -6.890  -4.806 -35.853  1.00  0.00    -0.184 F 
HETATM   17  F   UNL     1      -5.322  -5.395 -34.463  1.00  0.00    -0.184 F 
ENDBRANCH  14  15
ENDBRANCH  11  14
ENDBRANCH   1   7
BRANCH   3  18
HETATM   18  C   UNL     1     -10.023   2.500 -32.469  1.00  0.00     0.132 C 
BRANCH  18  19
HETATM   19  C   UNL     1     -10.900   2.173 -33.689  1.00  0.00     0.062 C 
BRANCH  19  20
HETATM   20  C   UNL     1     -12.363   2.257 -33.393  1.00  0.00    -0.007 A 
HETATM   21  C   UNL     1     -13.114   3.420 -33.055  1.00  0.00     0.059 A 
HETATM   22  C   UNL     1     -12.643   4.821 -32.933  1.00  0.00     0.073 C 
HETATM   23  N   UNL     1     -14.405   3.134 -32.853  1.00  0.00    -0.179 NA
HETATM   24  N   UNL     1     -14.489   1.816 -33.072  1.00  0.00    -0.282 N 
HETATM   25  H   UNL     1     -15.397   1.373 -32.983  1.00  0.00     0.189 HD
HETATM   26  C   UNL     1     -13.295   1.236 -33.398  1.00  0.00     0.032 A 
HETATM   27  C   UNL     1     -13.173  -0.213 -33.679  1.00  0.00     0.070 C 
ENDBRANCH  19  20
ENDBRANCH  18  19
ENDBRANCH   3  18
TORSDOF 6
ENDMDL
MODEL 9
REMARK VINA RESULT:      -7.4      1.552      1.711
REMARK  6 active torsions:
REMARK  status: ('A' for Active; 'I' for Inactive)
REMARK    1  A    between atoms: C_3  and  N_4 
REMARK       I    between atoms: N_4  and  C_5 
REMARK       I    between atoms: C_5  and  N_6 
REMARK    2  A    between atoms: N_6  and  C_7 
REMARK    3  A    between atoms: C_7  and  C_8 
REMARK    4  A    between atoms: C_8  and  C_9 
REMARK    5  A    between atoms: C_21  and  O_22 
REMARK    6  A    between atoms: O_22  and  C_23 
ROOT
HETATM    1  N   UNL     1      -7.547   2.153 -32.186  1.00  0.00    -0.308 N 
HETATM    2  C   UNL     1      -6.869   3.258 -31.770  1.00  0.00     0.322 C 
HETATM    3  N   UNL     1      -5.846   3.759 -32.548  1.00  0.00    -0.338 N 
HETATM    4  C   UNL     1      -5.739   3.545 -33.988  1.00  0.00     0.154 C 
HETATM    5  O   UNL     1      -7.255   3.827 -30.747  1.00  0.00    -0.247 OA
HETATM    6  H   UNL     1      -8.461   2.093 -31.752  1.00  0.00     0.170 HD
ENDROOT
BRANCH   1   7
HETATM    7  C   UNL     1      -7.058   0.940 -32.719  1.00  0.00     0.042 A 
HETATM    8  C   UNL     1      -7.719   0.369 -33.826  1.00  0.00    -0.033 A 
HETATM    9  C   UNL     1      -8.896   1.042 -34.484  1.00  0.00     0.050 C 
HETATM   10  C   UNL     1      -7.274  -0.863 -34.335  1.00  0.00     0.045 A 
HETATM   11  C   UNL     1      -6.174  -1.506 -33.768  1.00  0.00     0.075 A 
HETATM   12  C   UNL     1      -5.547  -0.961 -32.653  1.00  0.00     0.039 A 
HETATM   13  C   UNL     1      -5.984   0.259 -32.133  1.00  0.00     0.033 A 
BRANCH  11  14
HETATM   14  O   UNL     1      -5.728  -2.721 -34.206  1.00  0.00    -0.290 OA
BRANCH  14  15
HETATM   15  C   UNL     1      -6.716  -3.412 -34.959  1.00  0.00     0.505 C 
HETATM   16  F   UNL     1      -6.106  -4.248 -35.836  1.00  0.00    -0.184 F 
HETATM   17  F   UNL     1      -7.408  -4.196 -34.094  1.00  0.00    -0.184 F 
ENDBRANCH  14  15
ENDBRANCH  11  14
ENDBRANCH   1   7
BRANCH   3  18
HETATM   18  C   UNL     1      -5.083   4.895 -32.022  1.00  0.00     0.132 C 
BRANCH  18  19
HETATM   19  C   UNL     1      -3.562   4.708 -32.152  1.00  0.00     0.062 C 
BRANCH  19  20
HETATM   20  C   UNL     1      -2.862   5.947 -32.611  1.00  0.00    -0.007 A 
HETATM   21  C   UNL     1      -2.174   6.149 -33.842  1.00  0.00     0.059 A 
HETATM   22  C   UNL     1      -1.998   5.199 -34.969  1.00  0.00     0.073 C 
HETATM   23  N   UNL     1      -1.663   7.382 -33.928  1.00  0.00    -0.179 NA
HETATM   24  N   UNL     1      -2.027   7.969 -32.781  1.00  0.00    -0.282 N 
HETATM   25  H   UNL     1      -1.750   8.934 -32.629  1.00  0.00     0.189 HD
HETATM   26  C   UNL     1      -2.747   7.157 -31.951  1.00  0.00     0.032 A 
HETATM   27  C   UNL     1      -3.246   7.616 -30.635  1.00  0.00     0.070 C 
ENDBRANCH  19  20
ENDBRANCH  18  19
ENDBRANCH   3  18
TORSDOF 6
ENDMDL
MODEL 10
REMARK VINA RESULT:      -7.2      1.594      2.067
REMARK  6 active torsions:
REMARK  status: ('A' for Active; 'I' for Inactive)
REMARK    1  A    between atoms: C_3  and  N_4 
REMARK       I    between atoms: N_4  and  C_5 
REMARK       I    between atoms: C_5  and  N_6 
REMARK    2  A    between atoms: N_6  and  C_7 
REMARK    3  A    between atoms: C_7  and  C_8 
REMARK    4  A    between atoms: C_8  and  C_9 
REMARK    5  A    between atoms: C_21  and  O_22 
REMARK    6  A    between atoms: O_22  and  C_23 
ROOT
HETATM    1  N   UNL     1      -7.160   2.135 -31.921  1.00  0.00    -0.308 N 
HETATM    2  C   UNL     1      -6.263   3.111 -31.607  1.00  0.00     0.322 C 
HETATM    3  N   UNL     1      -5.455   3.634 -32.596  1.00  0.00    -0.338 N 
HETATM    4  C   UNL     1      -5.795   3.620 -34.016  1.00  0.00     0.154 C 
HETATM    5  O   UNL     1      -6.267   3.557 -30.458  1.00  0.00    -0.247 OA
HETATM    6  H   UNL     1      -7.911   2.088 -31.242  1.00  0.00     0.170 HD
ENDROOT
BRANCH   1   7
HETATM    7  C   UNL     1      -6.995   0.976 -32.710  1.00  0.00     0.042 A 
HETATM    8  C   UNL     1      -7.887   0.750 -33.780  1.00  0.00    -0.033 A 
HETATM    9  C   UNL     1      -8.972   1.733 -34.132  1.00  0.00     0.050 C 
HETATM   10  C   UNL     1      -7.765  -0.426 -34.542  1.00  0.00     0.045 A 
HETATM   11  C   UNL     1      -6.759  -1.349 -34.260  1.00  0.00     0.075 A 
HETATM   12  C   UNL     1      -5.905  -1.143 -33.182  1.00  0.00     0.039 A 
HETATM   13  C   UNL     1      -6.020   0.017 -32.413  1.00  0.00     0.033 A 
BRANCH  11  14
HETATM   14  O   UNL     1      -6.624  -2.520 -34.950  1.00  0.00    -0.290 OA
BRANCH  14  15
HETATM   15  C   UNL     1      -5.481  -3.257 -34.532  1.00  0.00     0.505 C 
HETATM   16  F   UNL     1      -5.743  -4.584 -34.634  1.00  0.00    -0.184 F 
HETATM   17  F   UNL     1      -4.485  -2.989 -35.414  1.00  0.00    -0.184 F 
ENDBRANCH  14  15
ENDBRANCH  11  14
ENDBRANCH   1   7
BRANCH   3  18
HETATM   18  C   UNL     1      -4.443   4.617 -32.199  1.00  0.00     0.132 C 
BRANCH  18  19
HETATM   19  C   UNL     1      -4.405   5.845 -33.124  1.00  0.00     0.062 C 
BRANCH  19  20
HETATM   20  C   UNL     1      -3.078   6.532 -33.123  1.00  0.00    -0.007 A 
HETATM   21  C   UNL     1      -2.683   7.657 -32.343  1.00  0.00     0.059 A 
HETATM   22  C   UNL     1      -3.475   8.407 -31.337  1.00  0.00     0.073 C 
HETATM   23  N   UNL     1      -1.418   8.015 -32.592  1.00  0.00    -0.179 NA
HETATM   24  N   UNL     1      -1.000   7.128 -33.504  1.00  0.00    -0.282 N 
HETATM   25  H   UNL     1      -0.045   7.202 -33.840  1.00  0.00     0.189 HD
HETATM   26  C   UNL     1      -1.952   6.215 -33.861  1.00  0.00     0.032 A 
HETATM   27  C   UNL     1      -1.689   5.149 -34.855  1.00  0.00     0.070 C 
ENDBRANCH  19  20
ENDBRANCH  18  19
ENDBRANCH   3  18
TORSDOF 6
ENDMDL
