MODEL 1
REMARK VINA RESULT:      -8.2      0.000      0.000
REMARK  8 active torsions:
REMARK  status: ('A' for Active; 'I' for Inactive)
REMARK    1  A    between atoms: C_7  and  C_8 
REMARK    2  A    between atoms: C_8  and  C_9 
REMARK    3  A    between atoms: C_9  and  N_10 
REMARK       I    between atoms: N_10  and  C_11 
REMARK    4  A    between atoms: C_11  and  C_12 
REMARK    5  A    between atoms: C_12  and  S_13 
REMARK    6  A    between atoms: S_13  and  C_14 
REMARK    7  A    between atoms: C_23  and  O_24 
REMARK    8  A    between atoms: O_24  and  C_25 
ROOT
HETATM    1  C   UNL     1      -7.382   3.057 -30.947  1.00  0.00     0.068 C 
HETATM    2  C   UNL     1      -7.083   1.925 -31.863  1.00  0.00     0.013 A 
HETATM    3  N   UNL     1      -7.855   1.667 -32.967  1.00  0.00    -0.359 N 
HETATM    4  H   UNL     1      -8.663   2.204 -33.250  1.00  0.00     0.166 HD
HETATM    5  C   UNL     1      -7.383   0.564 -33.638  1.00  0.00     0.043 A 
HETATM    6  C   UNL     1      -6.265   0.108 -32.946  1.00  0.00     0.002 A 
HETATM    7  C   UNL     1      -6.074   0.974 -31.821  1.00  0.00    -0.022 A 
HETATM    8  C   UNL     1      -7.858  -0.059 -34.798  1.00  0.00     0.033 A 
HETATM    9  C   UNL     1      -7.171  -1.188 -35.262  1.00  0.00     0.039 A 
HETATM   10  C   UNL     1      -6.049  -1.676 -34.595  1.00  0.00     0.077 A 
HETATM   11  C   UNL     1      -5.590  -1.027 -33.438  1.00  0.00     0.051 A 
ENDROOT
BRANCH   7  12
HETATM   12  C   UNL     1      -4.997   0.866 -30.784  1.00  0.00     0.061 C 
BRANCH  12  13
HETATM   13  C   UNL     1      -3.681   1.484 -31.261  1.00  0.00     0.127 C 
BRANCH  13  14
HETATM   14  N   UNL     1      -3.561   2.888 -30.911  1.00  0.00    -0.360 N 
HETATM   15  C   UNL     1      -2.933   3.787 -31.747  1.00  0.00     0.227 C 
HETATM   16  O   UNL     1      -2.336   3.454 -32.768  1.00  0.00    -0.273 OA
HETATM   17  H   UNL     1      -4.256   3.285 -30.278  1.00  0.00     0.162 HD
BRANCH  15  18
HETATM   18  C   UNL     1      -3.022   5.232 -31.290  1.00  0.00     0.183 C 
BRANCH  18  19
HETATM   19  S   UNL     1      -1.486   6.118 -31.661  1.00  0.00    -0.098 SA
BRANCH  19  20
HETATM   20  C   UNL     1      -0.406   5.561 -30.419  1.00  0.00     0.134 A 
HETATM   21  N   UNL     1       0.349   4.458 -30.505  1.00  0.00    -0.149 NA
HETATM   22  N   UNL     1       0.995   4.494 -29.321  1.00  0.00    -0.196 N 
HETATM   23  H   UNL     1       1.675   3.780 -29.069  1.00  0.00     0.213 HD
HETATM   24  N   UNL     1       0.711   5.499 -28.475  1.00  0.00    -0.167 NA
HETATM   25  C   UNL     1      -0.191   6.189 -29.182  1.00  0.00     0.180 A 
ENDBRANCH  19  20
ENDBRANCH  18  19
ENDBRANCH  15  18
ENDBRANCH  13  14
ENDBRANCH  12  13
ENDBRANCH   7  12
BRANCH  10  26
HETATM   26  O   UNL     1      -5.304  -2.767 -34.952  1.00  0.00    -0.270 OA
BRANCH  26  27
HETATM   27  C   UNL     1      -5.910  -4.051 -34.886  1.00  0.00     0.447 C 
HETATM   28 CL   UNL     1      -4.762  -5.206 -34.199  1.00  0.00    -0.014 Cl
HETATM   29  F   UNL     1      -7.022  -4.000 -34.112  1.00  0.00    -0.159 F 
HETATM   30  F   UNL     1      -6.277  -4.455 -36.128  1.00  0.00    -0.159 F 
ENDBRANCH  26  27
ENDBRANCH  10  26
TORSDOF 8
ENDMDL
MODEL 2
REMARK VINA RESULT:      -8.2      2.440      3.481
REMARK  8 active torsions:
REMARK  status: ('A' for Active; 'I' for Inactive)
REMARK    1  A    between atoms: C_7  and  C_8 
REMARK    2  A    between atoms: C_8  and  C_9 
REMARK    3  A    between atoms: C_9  and  N_10 
REMARK       I    between atoms: N_10  and  C_11 
REMARK    4  A    between atoms: C_11  and  C_12 
REMARK    5  A    between atoms: C_12  and  S_13 
REMARK    6  A    between atoms: S_13  and  C_14 
REMARK    7  A    between atoms: C_23  and  O_24 
REMARK    8  A    between atoms: O_24  and  C_25 
ROOT
HETATM    1  C   UNL     1      -6.319   1.925 -29.710  1.00  0.00     0.068 C 
HETATM    2  C   UNL     1      -6.114   0.915 -30.783  1.00  0.00     0.013 A 
HETATM    3  N   UNL     1      -4.884   0.362 -31.028  1.00  0.00    -0.359 N 
HETATM    4  H   UNL     1      -4.037   0.579 -30.519  1.00  0.00     0.166 HD
HETATM    5  C   UNL     1      -4.955  -0.528 -32.073  1.00  0.00     0.043 A 
HETATM    6  C   UNL     1      -6.278  -0.553 -32.503  1.00  0.00     0.002 A 
HETATM    7  C   UNL     1      -7.013   0.362 -31.681  1.00  0.00    -0.022 A 
HETATM    8  C   UNL     1      -3.955  -1.307 -32.664  1.00  0.00     0.033 A 
HETATM    9  C   UNL     1      -4.317  -2.136 -33.734  1.00  0.00     0.039 A 
HETATM   10  C   UNL     1      -5.631  -2.186 -34.196  1.00  0.00     0.077 A 
HETATM   11  C   UNL     1      -6.616  -1.399 -33.578  1.00  0.00     0.051 A 
ENDROOT
BRANCH   7  12
HETATM   12  C   UNL     1      -8.476   0.675 -31.783  1.00  0.00     0.061 C 
BRANCH  12  13
HETATM   13  C   UNL     1      -8.787   1.567 -32.986  1.00  0.00     0.127 C 
BRANCH  13  14
HETATM   14  N   UNL     1      -8.142   2.865 -32.904  1.00  0.00    -0.360 N 
HETATM   15  C   UNL     1      -7.068   3.188 -33.707  1.00  0.00     0.227 C 
HETATM   16  O   UNL     1      -6.515   2.380 -34.448  1.00  0.00    -0.273 OA
HETATM   17  H   UNL     1      -8.695   3.655 -32.568  1.00  0.00     0.162 HD
BRANCH  15  18
HETATM   18  C   UNL     1      -6.610   4.630 -33.588  1.00  0.00     0.183 C 
BRANCH  18  19
HETATM   19  S   UNL     1      -4.939   4.829 -34.257  1.00  0.00    -0.098 SA
BRANCH  19  20
HETATM   20  C   UNL     1      -3.927   4.396 -32.913  1.00  0.00     0.134 A 
HETATM   21  N   UNL     1      -4.376   4.101 -31.686  1.00  0.00    -0.149 NA
HETATM   22  N   UNL     1      -3.219   3.826 -31.046  1.00  0.00    -0.196 N 
HETATM   23  H   UNL     1      -3.210   3.545 -30.068  1.00  0.00     0.213 HD
HETATM   24  N   UNL     1      -2.072   3.937 -31.737  1.00  0.00    -0.167 NA
HETATM   25  C   UNL     1      -2.526   4.304 -32.941  1.00  0.00     0.180 A 
ENDBRANCH  19  20
ENDBRANCH  18  19
ENDBRANCH  15  18
ENDBRANCH  13  14
ENDBRANCH  12  13
ENDBRANCH   7  12
BRANCH  10  26
HETATM   26  O   UNL     1      -6.099  -2.950 -35.229  1.00  0.00    -0.270 OA
BRANCH  26  27
HETATM   27  C   UNL     1      -6.473  -4.295 -34.962  1.00  0.00     0.447 C 
HETATM   28 CL   UNL     1      -5.064  -5.190 -34.383  1.00  0.00    -0.014 Cl
HETATM   29  F   UNL     1      -7.450  -4.327 -34.023  1.00  0.00    -0.159 F 
HETATM   30  F   UNL     1      -6.951  -4.876 -36.091  1.00  0.00    -0.159 F 
ENDBRANCH  26  27
ENDBRANCH  10  26
TORSDOF 8
ENDMDL
MODEL 3
REMARK VINA RESULT:      -8.1      4.470      7.937
REMARK  8 active torsions:
REMARK  status: ('A' for Active; 'I' for Inactive)
REMARK    1  A    between atoms: C_7  and  C_8 
REMARK    2  A    between atoms: C_8  and  C_9 
REMARK    3  A    between atoms: C_9  and  N_10 
REMARK       I    between atoms: N_10  and  C_11 
REMARK    4  A    between atoms: C_11  and  C_12 
REMARK    5  A    between atoms: C_12  and  S_13 
REMARK    6  A    between atoms: S_13  and  C_14 
REMARK    7  A    between atoms: C_23  and  O_24 
REMARK    8  A    between atoms: O_24  and  C_25 
ROOT
HETATM    1  C   UNL     1      -6.148   1.909 -29.739  1.00  0.00     0.068 C 
HETATM    2  C   UNL     1      -5.942   0.887 -30.799  1.00  0.00     0.013 A 
HETATM    3  N   UNL     1      -4.730   0.274 -30.985  1.00  0.00    -0.359 N 
HETATM    4  H   UNL     1      -3.898   0.451 -30.437  1.00  0.00     0.166 HD
HETATM    5  C   UNL     1      -4.794  -0.615 -32.032  1.00  0.00     0.043 A 
HETATM    6  C   UNL     1      -6.095  -0.577 -32.524  1.00  0.00     0.002 A 
HETATM    7  C   UNL     1      -6.823   0.375 -31.739  1.00  0.00    -0.022 A 
HETATM    8  C   UNL     1      -3.806  -1.444 -32.574  1.00  0.00     0.033 A 
HETATM    9  C   UNL     1      -4.157  -2.257 -33.660  1.00  0.00     0.039 A 
HETATM   10  C   UNL     1      -5.449  -2.245 -34.183  1.00  0.00     0.077 A 
HETATM   11  C   UNL     1      -6.422  -1.409 -33.613  1.00  0.00     0.051 A 
ENDROOT
BRANCH   7  12
HETATM   12  C   UNL     1      -8.263   0.758 -31.910  1.00  0.00     0.061 C 
BRANCH  12  13
HETATM   13  C   UNL     1      -8.429   1.946 -32.860  1.00  0.00     0.127 C 
BRANCH  13  14
HETATM   14  N   UNL     1      -9.818   2.215 -33.184  1.00  0.00    -0.360 N 
HETATM   15  C   UNL     1     -10.520   3.227 -32.563  1.00  0.00     0.227 C 
HETATM   16  O   UNL     1     -10.070   3.880 -31.624  1.00  0.00    -0.273 OA
HETATM   17  H   UNL     1     -10.153   1.951 -34.111  1.00  0.00     0.162 HD
BRANCH  15  18
HETATM   18  C   UNL     1     -11.911   3.457 -33.122  1.00  0.00     0.183 C 
BRANCH  18  19
HETATM   19  S   UNL     1     -12.104   2.631 -34.723  1.00  0.00    -0.098 SA
BRANCH  19  20
HETATM   20  C   UNL     1     -13.047   1.227 -34.326  1.00  0.00     0.134 A 
HETATM   21  N   UNL     1     -14.318   1.034 -34.701  1.00  0.00    -0.149 NA
HETATM   22  N   UNL     1     -14.563  -0.181 -34.167  1.00  0.00    -0.196 N 
HETATM   23  H   UNL     1     -15.466  -0.637 -34.283  1.00  0.00     0.213 HD
HETATM   24  N   UNL     1     -13.582  -0.775 -33.468  1.00  0.00    -0.167 NA
HETATM   25  C   UNL     1     -12.603   0.131 -33.570  1.00  0.00     0.180 A 
ENDBRANCH  19  20
ENDBRANCH  18  19
ENDBRANCH  15  18
ENDBRANCH  13  14
ENDBRANCH  12  13
ENDBRANCH   7  12
BRANCH  10  26
HETATM   26  O   UNL     1      -5.904  -2.989 -35.237  1.00  0.00    -0.270 OA
BRANCH  26  27
HETATM   27  C   UNL     1      -6.318  -4.327 -34.993  1.00  0.00     0.447 C 
HETATM   28 CL   UNL     1      -4.970  -5.241 -34.307  1.00  0.00    -0.014 Cl
HETATM   29  F   UNL     1      -7.363  -4.339 -34.128  1.00  0.00    -0.159 F 
HETATM   30  F   UNL     1      -6.721  -4.905 -36.151  1.00  0.00    -0.159 F 
ENDBRANCH  26  27
ENDBRANCH  10  26
TORSDOF 8
ENDMDL
MODEL 4
REMARK VINA RESULT:      -7.9      2.206      2.408
REMARK  8 active torsions:
REMARK  status: ('A' for Active; 'I' for Inactive)
REMARK    1  A    between atoms: C_7  and  C_8 
REMARK    2  A    between atoms: C_8  and  C_9 
REMARK    3  A    between atoms: C_9  and  N_10 
REMARK       I    between atoms: N_10  and  C_11 
REMARK    4  A    between atoms: C_11  and  C_12 
REMARK    5  A    between atoms: C_12  and  S_13 
REMARK    6  A    between atoms: S_13  and  C_14 
REMARK    7  A    between atoms: C_23  and  O_24 
REMARK    8  A    between atoms: O_24  and  C_25 
ROOT
HETATM    1  C   UNL     1      -7.021   2.406 -30.150  1.00  0.00     0.068 C 
HETATM    2  C   UNL     1      -6.859   1.415 -31.247  1.00  0.00     0.013 A 
HETATM    3  N   UNL     1      -7.810   1.256 -32.222  1.00  0.00    -0.359 N 
HETATM    4  H   UNL     1      -8.672   1.781 -32.284  1.00  0.00     0.166 HD
HETATM    5  C   UNL     1      -7.435   0.273 -33.106  1.00  0.00     0.043 A 
HETATM    6  C   UNL     1      -6.196  -0.204 -32.688  1.00  0.00     0.002 A 
HETATM    7  C   UNL     1      -5.831   0.523 -31.509  1.00  0.00    -0.022 A 
HETATM    8  C   UNL     1      -8.093  -0.224 -34.236  1.00  0.00     0.033 A 
HETATM    9  C   UNL     1      -7.468  -1.248 -34.960  1.00  0.00     0.039 A 
HETATM   10  C   UNL     1      -6.229  -1.755 -34.572  1.00  0.00     0.077 A 
HETATM   11  C   UNL     1      -5.588  -1.231 -33.438  1.00  0.00     0.051 A 
ENDROOT
BRANCH   7  12
HETATM   12  C   UNL     1      -4.581   0.344 -30.702  1.00  0.00     0.061 C 
BRANCH  12  13
HETATM   13  C   UNL     1      -3.421   1.176 -31.253  1.00  0.00     0.127 C 
BRANCH  13  14
HETATM   14  N   UNL     1      -3.500   2.573 -30.866  1.00  0.00    -0.360 N 
HETATM   15  C   UNL     1      -3.956   3.538 -31.740  1.00  0.00     0.227 C 
HETATM   16  O   UNL     1      -4.210   3.311 -32.920  1.00  0.00    -0.273 OA
HETATM   17  H   UNL     1      -3.605   2.791 -29.874  1.00  0.00     0.162 HD
BRANCH  15  18
HETATM   18  C   UNL     1      -4.104   4.918 -31.126  1.00  0.00     0.183 C 
BRANCH  18  19
HETATM   19  S   UNL     1      -4.582   6.131 -32.383  1.00  0.00    -0.098 SA
BRANCH  19  20
HETATM   20  C   UNL     1      -3.052   6.693 -32.984  1.00  0.00     0.134 A 
HETATM   21  N   UNL     1      -2.353   7.707 -32.457  1.00  0.00    -0.149 NA
HETATM   22  N   UNL     1      -1.269   7.718 -33.260  1.00  0.00    -0.196 N 
HETATM   23  H   UNL     1      -0.512   8.384 -33.116  1.00  0.00     0.213 HD
HETATM   24  N   UNL     1      -1.214   6.827 -34.263  1.00  0.00    -0.167 NA
HETATM   25  C   UNL     1      -2.363   6.164 -34.087  1.00  0.00     0.180 A 
ENDBRANCH  19  20
ENDBRANCH  18  19
ENDBRANCH  15  18
ENDBRANCH  13  14
ENDBRANCH  12  13
ENDBRANCH   7  12
BRANCH  10  26
HETATM   26  O   UNL     1      -5.529  -2.750 -35.196  1.00  0.00    -0.270 OA
BRANCH  26  27
HETATM   27  C   UNL     1      -5.937  -4.096 -34.991  1.00  0.00     0.447 C 
HETATM   28 CL   UNL     1      -4.628  -4.995 -34.216  1.00  0.00    -0.014 Cl
HETATM   29  F   UNL     1      -7.041  -4.131 -34.204  1.00  0.00    -0.159 F 
HETATM   30  F   UNL     1      -6.247  -4.672 -36.179  1.00  0.00    -0.159 F 
ENDBRANCH  26  27
ENDBRANCH  10  26
TORSDOF 8
ENDMDL
MODEL 5
REMARK VINA RESULT:      -7.8      2.510      3.639
REMARK  8 active torsions:
REMARK  status: ('A' for Active; 'I' for Inactive)
REMARK    1  A    between atoms: C_7  and  C_8 
REMARK    2  A    between atoms: C_8  and  C_9 
REMARK    3  A    between atoms: C_9  and  N_10 
REMARK       I    between atoms: N_10  and  C_11 
REMARK    4  A    between atoms: C_11  and  C_12 
REMARK    5  A    between atoms: C_12  and  S_13 
REMARK    6  A    between atoms: S_13  and  C_14 
REMARK    7  A    between atoms: C_23  and  O_24 
REMARK    8  A    between atoms: O_24  and  C_25 
ROOT
HETATM    1  C   UNL     1      -7.035   3.585 -30.519  1.00  0.00     0.068 C 
HETATM    2  C   UNL     1      -6.945   2.528 -31.561  1.00  0.00     0.013 A 
HETATM    3  N   UNL     1      -7.851   2.448 -32.588  1.00  0.00    -0.359 N 
HETATM    4  H   UNL     1      -8.630   3.077 -32.726  1.00  0.00     0.166 HD
HETATM    5  C   UNL     1      -7.561   1.381 -33.405  1.00  0.00     0.043 A 
HETATM    6  C   UNL     1      -6.424   0.766 -32.890  1.00  0.00     0.002 A 
HETATM    7  C   UNL     1      -6.033   1.496 -31.721  1.00  0.00    -0.022 A 
HETATM    8  C   UNL     1      -8.214   0.920 -34.553  1.00  0.00     0.033 A 
HETATM    9  C   UNL     1      -7.691  -0.212 -35.193  1.00  0.00     0.039 A 
HETATM   10  C   UNL     1      -6.556  -0.857 -34.706  1.00  0.00     0.077 A 
HETATM   11  C   UNL     1      -5.917  -0.368 -33.557  1.00  0.00     0.051 A 
ENDROOT
BRANCH   7  12
HETATM   12  C   UNL     1      -4.867   1.194 -30.829  1.00  0.00     0.061 C 
BRANCH  12  13
HETATM   13  C   UNL     1      -3.531   1.361 -31.558  1.00  0.00     0.127 C 
BRANCH  13  14
HETATM   14  N   UNL     1      -3.517   2.508 -32.447  1.00  0.00    -0.360 N 
HETATM   15  C   UNL     1      -2.738   3.615 -32.181  1.00  0.00     0.227 C 
HETATM   16  O   UNL     1      -2.108   3.760 -31.137  1.00  0.00    -0.273 OA
HETATM   17  H   UNL     1      -3.746   2.356 -33.430  1.00  0.00     0.162 HD
BRANCH  15  18
HETATM   18  C   UNL     1      -2.737   4.658 -33.284  1.00  0.00     0.183 C 
BRANCH  18  19
HETATM   19  S   UNL     1      -3.533   6.185 -32.723  1.00  0.00    -0.098 SA
BRANCH  19  20
HETATM   20  C   UNL     1      -5.202   5.927 -33.129  1.00  0.00     0.134 A 
HETATM   21  N   UNL     1      -6.228   6.605 -32.598  1.00  0.00    -0.149 NA
HETATM   22  N   UNL     1      -7.271   6.047 -33.249  1.00  0.00    -0.196 N 
HETATM   23  H   UNL     1      -8.226   6.356 -33.080  1.00  0.00     0.213 HD
HETATM   24  N   UNL     1      -7.016   5.063 -34.127  1.00  0.00    -0.167 NA
HETATM   25  C   UNL     1      -5.682   4.984 -34.052  1.00  0.00     0.180 A 
ENDBRANCH  19  20
ENDBRANCH  18  19
ENDBRANCH  15  18
ENDBRANCH  13  14
ENDBRANCH  12  13
ENDBRANCH   7  12
BRANCH  10  26
HETATM   26  O   UNL     1      -5.961  -1.966 -35.243  1.00  0.00    -0.270 OA
BRANCH  26  27
HETATM   27  C   UNL     1      -6.228  -3.231 -34.652  1.00  0.00     0.447 C 
HETATM   28 CL   UNL     1      -6.294  -4.465 -35.914  1.00  0.00    -0.014 Cl
HETATM   29  F   UNL     1      -5.254  -3.542 -33.761  1.00  0.00    -0.159 F 
HETATM   30  F   UNL     1      -7.411  -3.191 -33.989  1.00  0.00    -0.159 F 
ENDBRANCH  26  27
ENDBRANCH  10  26
TORSDOF 8
ENDMDL
MODEL 6
REMARK VINA RESULT:      -7.7      5.542      9.027
REMARK  8 active torsions:
REMARK  status: ('A' for Active; 'I' for Inactive)
REMARK    1  A    between atoms: C_7  and  C_8 
REMARK    2  A    between atoms: C_8  and  C_9 
REMARK    3  A    between atoms: C_9  and  N_10 
REMARK       I    between atoms: N_10  and  C_11 
REMARK    4  A    between atoms: C_11  and  C_12 
REMARK    5  A    between atoms: C_12  and  S_13 
REMARK    6  A    between atoms: S_13  and  C_14 
REMARK    7  A    between atoms: C_23  and  O_24 
REMARK    8  A    between atoms: O_24  and  C_25 
ROOT
HETATM    1  C   UNL     1      -5.625  -3.542 -35.036  1.00  0.00     0.068 C 
HETATM    2  C   UNL     1      -5.372  -2.286 -34.281  1.00  0.00     0.013 A 
HETATM    3  N   UNL     1      -4.148  -2.009 -33.730  1.00  0.00    -0.359 N 
HETATM    4  H   UNL     1      -3.335  -2.608 -33.788  1.00  0.00     0.166 HD
HETATM    5  C   UNL     1      -4.176  -0.801 -33.074  1.00  0.00     0.043 A 
HETATM    6  C   UNL     1      -5.459  -0.284 -33.221  1.00  0.00     0.002 A 
HETATM    7  C   UNL     1      -6.217  -1.226 -33.989  1.00  0.00    -0.022 A 
HETATM    8  C   UNL     1      -3.169  -0.133 -32.368  1.00  0.00     0.033 A 
HETATM    9  C   UNL     1      -3.485   1.102 -31.789  1.00  0.00     0.039 A 
HETATM   10  C   UNL     1      -4.760   1.652 -31.911  1.00  0.00     0.077 A 
HETATM   11  C   UNL     1      -5.748   0.964 -32.631  1.00  0.00     0.051 A 
ENDROOT
BRANCH   7  12
HETATM   12  C   UNL     1      -7.656  -1.099 -34.390  1.00  0.00     0.061 C 
BRANCH  12  13
HETATM   13  C   UNL     1      -7.964   0.278 -34.983  1.00  0.00     0.127 C 
BRANCH  13  14
HETATM   14  N   UNL     1      -9.209   0.836 -34.489  1.00  0.00    -0.360 N 
HETATM   15  C   UNL     1      -9.304   2.155 -34.099  1.00  0.00     0.227 C 
HETATM   16  O   UNL     1      -8.335   2.907 -34.028  1.00  0.00    -0.273 OA
HETATM   17  H   UNL     1     -10.082   0.402 -34.792  1.00  0.00     0.162 HD
BRANCH  15  18
HETATM   18  C   UNL     1     -10.710   2.603 -33.744  1.00  0.00     0.183 C 
BRANCH  18  19
HETATM   19  S   UNL     1     -11.839   2.331 -35.133  1.00  0.00    -0.098 SA
BRANCH  19  20
HETATM   20  C   UNL     1     -12.943   1.142 -34.512  1.00  0.00     0.134 A 
HETATM   21  N   UNL     1     -14.258   1.118 -34.766  1.00  0.00    -0.149 NA
HETATM   22  N   UNL     1     -14.633   0.017 -34.081  1.00  0.00    -0.196 N 
HETATM   23  H   UNL     1     -15.601  -0.299 -34.078  1.00  0.00     0.213 HD
HETATM   24  N   UNL     1     -13.692  -0.654 -33.396  1.00  0.00    -0.167 NA
HETATM   25  C   UNL     1     -12.601   0.070 -33.672  1.00  0.00     0.180 A 
ENDBRANCH  19  20
ENDBRANCH  18  19
ENDBRANCH  15  18
ENDBRANCH  13  14
ENDBRANCH  12  13
ENDBRANCH   7  12
BRANCH  10  26
HETATM   26  O   UNL     1      -5.183   2.843 -31.388  1.00  0.00    -0.270 OA
BRANCH  26  27
HETATM   27  C   UNL     1      -5.929   2.824 -30.178  1.00  0.00     0.447 C 
HETATM   28 CL   UNL     1      -7.630   3.143 -30.534  1.00  0.00    -0.014 Cl
HETATM   29  F   UNL     1      -5.808   1.614 -29.578  1.00  0.00    -0.159 F 
HETATM   30  F   UNL     1      -5.455   3.768 -29.327  1.00  0.00    -0.159 F 
ENDBRANCH  26  27
ENDBRANCH  10  26
TORSDOF 8
ENDMDL
MODEL 7
REMARK VINA RESULT:      -7.6      3.741      5.359
REMARK  8 active torsions:
REMARK  status: ('A' for Active; 'I' for Inactive)
REMARK    1  A    between atoms: C_7  and  C_8 
REMARK    2  A    between atoms: C_8  and  C_9 
REMARK    3  A    between atoms: C_9  and  N_10 
REMARK       I    between atoms: N_10  and  C_11 
REMARK    4  A    between atoms: C_11  and  C_12 
REMARK    5  A    between atoms: C_12  and  S_13 
REMARK    6  A    between atoms: S_13  and  C_14 
REMARK    7  A    between atoms: C_23  and  O_24 
REMARK    8  A    between atoms: O_24  and  C_25 
ROOT
HETATM    1  C   UNL     1      -3.062  -2.363 -31.964  1.00  0.00     0.068 C 
HETATM    2  C   UNL     1      -4.201  -1.595 -32.535  1.00  0.00     0.013 A 
HETATM    3  N   UNL     1      -4.833  -1.990 -33.686  1.00  0.00    -0.359 N 
HETATM    4  H   UNL     1      -4.594  -2.808 -34.229  1.00  0.00     0.166 HD
HETATM    5  C   UNL     1      -5.837  -1.109 -34.011  1.00  0.00     0.043 A 
HETATM    6  C   UNL     1      -5.855  -0.125 -33.027  1.00  0.00     0.002 A 
HETATM    7  C   UNL     1      -4.818  -0.436 -32.090  1.00  0.00    -0.022 A 
HETATM    8  C   UNL     1      -6.724  -1.112 -35.092  1.00  0.00     0.033 A 
HETATM    9  C   UNL     1      -7.658  -0.071 -35.175  1.00  0.00     0.039 A 
HETATM   10  C   UNL     1      -7.706   0.935 -34.212  1.00  0.00     0.077 A 
HETATM   11  C   UNL     1      -6.808   0.908 -33.133  1.00  0.00     0.051 A 
ENDROOT
BRANCH   7  12
HETATM   12  C   UNL     1      -4.456   0.351 -30.866  1.00  0.00     0.061 C 
BRANCH  12  13
HETATM   13  C   UNL     1      -3.386   1.405 -31.160  1.00  0.00     0.127 C 
BRANCH  13  14
HETATM   14  N   UNL     1      -3.855   2.759 -30.928  1.00  0.00    -0.360 N 
HETATM   15  C   UNL     1      -3.237   3.845 -31.511  1.00  0.00     0.227 C 
HETATM   16  O   UNL     1      -2.197   3.760 -32.159  1.00  0.00    -0.273 OA
HETATM   17  H   UNL     1      -4.836   2.891 -30.678  1.00  0.00     0.162 HD
BRANCH  15  18
HETATM   18  C   UNL     1      -3.942   5.168 -31.273  1.00  0.00     0.183 C 
BRANCH  18  19
HETATM   19  S   UNL     1      -4.328   5.982 -32.844  1.00  0.00    -0.098 SA
BRANCH  19  20
HETATM   20  C   UNL     1      -5.996   5.567 -33.099  1.00  0.00     0.134 A 
HETATM   21  N   UNL     1      -6.467   4.940 -34.184  1.00  0.00    -0.149 NA
HETATM   22  N   UNL     1      -7.778   4.846 -33.880  1.00  0.00    -0.196 N 
HETATM   23  H   UNL     1      -8.436   4.394 -34.512  1.00  0.00     0.213 HD
HETATM   24  N   UNL     1      -8.197   5.371 -32.717  1.00  0.00    -0.167 NA
HETATM   25  C   UNL     1      -7.049   5.837 -32.211  1.00  0.00     0.180 A 
ENDBRANCH  19  20
ENDBRANCH  18  19
ENDBRANCH  15  18
ENDBRANCH  13  14
ENDBRANCH  12  13
ENDBRANCH   7  12
BRANCH  10  26
HETATM   26  O   UNL     1      -8.567   1.998 -34.190  1.00  0.00    -0.270 OA
BRANCH  26  27
HETATM   27  C   UNL     1      -9.797   1.859 -33.492  1.00  0.00     0.447 C 
HETATM   28 CL   UNL     1     -11.092   2.610 -34.430  1.00  0.00    -0.014 Cl
HETATM   29  F   UNL     1     -10.076   0.546 -33.300  1.00  0.00    -0.159 F 
HETATM   30  F   UNL     1      -9.708   2.454 -32.276  1.00  0.00    -0.159 F 
ENDBRANCH  26  27
ENDBRANCH  10  26
TORSDOF 8
ENDMDL
MODEL 8
REMARK VINA RESULT:      -7.6      5.383      8.477
REMARK  8 active torsions:
REMARK  status: ('A' for Active; 'I' for Inactive)
REMARK    1  A    between atoms: C_7  and  C_8 
REMARK    2  A    between atoms: C_8  and  C_9 
REMARK    3  A    between atoms: C_9  and  N_10 
REMARK       I    between atoms: N_10  and  C_11 
REMARK    4  A    between atoms: C_11  and  C_12 
REMARK    5  A    between atoms: C_12  and  S_13 
REMARK    6  A    between atoms: S_13  and  C_14 
REMARK    7  A    between atoms: C_23  and  O_24 
REMARK    8  A    between atoms: O_24  and  C_25 
ROOT
HETATM    1  C   UNL     1      -5.917  -3.415 -35.128  1.00  0.00     0.068 C 
HETATM    2  C   UNL     1      -5.391  -2.317 -34.274  1.00  0.00     0.013 A 
HETATM    3  N   UNL     1      -4.309  -2.498 -33.451  1.00  0.00    -0.359 N 
HETATM    4  H   UNL     1      -3.788  -3.359 -33.357  1.00  0.00     0.166 HD
HETATM    5  C   UNL     1      -4.032  -1.343 -32.759  1.00  0.00     0.043 A 
HETATM    6  C   UNL     1      -4.961  -0.389 -33.162  1.00  0.00     0.002 A 
HETATM    7  C   UNL     1      -5.822  -1.008 -34.125  1.00  0.00    -0.022 A 
HETATM    8  C   UNL     1      -3.035  -1.074 -31.815  1.00  0.00     0.033 A 
HETATM    9  C   UNL     1      -2.989   0.211 -31.259  1.00  0.00     0.039 A 
HETATM   10  C   UNL     1      -3.904   1.193 -31.635  1.00  0.00     0.077 A 
HETATM   11  C   UNL     1      -4.889   0.897 -32.590  1.00  0.00     0.051 A 
ENDROOT
BRANCH   7  12
HETATM   12  C   UNL     1      -6.980  -0.367 -34.829  1.00  0.00     0.061 C 
BRANCH  12  13
HETATM   13  C   UNL     1      -8.202  -0.236 -33.917  1.00  0.00     0.127 C 
BRANCH  13  14
HETATM   14  N   UNL     1      -8.674   1.132 -33.805  1.00  0.00    -0.360 N 
HETATM   15  C   UNL     1      -8.975   1.692 -32.581  1.00  0.00     0.227 C 
HETATM   16  O   UNL     1      -8.982   1.053 -31.531  1.00  0.00    -0.273 OA
HETATM   17  H   UNL     1      -8.413   1.791 -34.539  1.00  0.00     0.162 HD
BRANCH  15  18
HETATM   18  C   UNL     1      -9.318   3.169 -32.637  1.00  0.00     0.183 C 
BRANCH  18  19
HETATM   19  S   UNL     1     -11.098   3.423 -32.416  1.00  0.00    -0.098 SA
BRANCH  19  20
HETATM   20  C   UNL     1     -11.763   2.843 -33.912  1.00  0.00     0.134 A 
HETATM   21  N   UNL     1     -11.166   2.955 -35.105  1.00  0.00    -0.149 NA
HETATM   22  N   UNL     1     -12.066   2.345 -35.904  1.00  0.00    -0.196 N 
HETATM   23  H   UNL     1     -11.904   2.246 -36.904  1.00  0.00     0.213 HD
HETATM   24  N   UNL     1     -13.192   1.872 -35.344  1.00  0.00    -0.167 NA
HETATM   25  C   UNL     1     -12.999   2.192 -34.059  1.00  0.00     0.180 A 
ENDBRANCH  19  20
ENDBRANCH  18  19
ENDBRANCH  15  18
ENDBRANCH  13  14
ENDBRANCH  12  13
ENDBRANCH   7  12
BRANCH  10  26
HETATM   26  O   UNL     1      -3.959   2.475 -31.160  1.00  0.00    -0.270 OA
BRANCH  26  27
HETATM   27  C   UNL     1      -3.336   3.504 -31.916  1.00  0.00     0.447 C 
HETATM   28 CL   UNL     1      -4.571   4.599 -32.545  1.00  0.00    -0.014 Cl
HETATM   29  F   UNL     1      -2.470   4.196 -31.134  1.00  0.00    -0.159 F 
HETATM   30  F   UNL     1      -2.637   2.964 -32.945  1.00  0.00    -0.159 F 
ENDBRANCH  26  27
ENDBRANCH  10  26
TORSDOF 8
ENDMDL
MODEL 9
REMARK VINA RESULT:      -7.6      2.763      3.593
REMARK  8 active torsions:
REMARK  status: ('A' for Active; 'I' for Inactive)
REMARK    1  A    between atoms: C_7  and  C_8 
REMARK    2  A    between atoms: C_8  and  C_9 
REMARK    3  A    between atoms: C_9  and  N_10 
REMARK       I    between atoms: N_10  and  C_11 
REMARK    4  A    between atoms: C_11  and  C_12 
REMARK    5  A    between atoms: C_12  and  S_13 
REMARK    6  A    between atoms: S_13  and  C_14 
REMARK    7  A    between atoms: C_23  and  O_24 
REMARK    8  A    between atoms: O_24  and  C_25 
ROOT
HETATM    1  C   UNL     1      -7.302   4.962 -29.011  1.00  0.00     0.068 C 
HETATM    2  C   UNL     1      -6.957   3.796 -29.867  1.00  0.00     0.013 A 
HETATM    3  N   UNL     1      -6.841   2.531 -29.351  1.00  0.00    -0.359 N 
HETATM    4  H   UNL     1      -6.978   2.284 -28.380  1.00  0.00     0.166 HD
HETATM    5  C   UNL     1      -6.502   1.636 -30.338  1.00  0.00     0.043 A 
HETATM    6  C   UNL     1      -6.409   2.353 -31.527  1.00  0.00     0.002 A 
HETATM    7  C   UNL     1      -6.700   3.723 -31.227  1.00  0.00    -0.022 A 
HETATM    8  C   UNL     1      -6.273   0.258 -30.268  1.00  0.00     0.033 A 
HETATM    9  C   UNL     1      -5.932  -0.410 -31.451  1.00  0.00     0.039 A 
HETATM   10  C   UNL     1      -5.826   0.273 -32.661  1.00  0.00     0.077 A 
HETATM   11  C   UNL     1      -6.069   1.654 -32.704  1.00  0.00     0.051 A 
ENDROOT
BRANCH   7  12
HETATM   12  C   UNL     1      -6.712   4.866 -32.197  1.00  0.00     0.061 C 
BRANCH  12  13
HETATM   13  C   UNL     1      -5.500   5.783 -32.014  1.00  0.00     0.127 C 
BRANCH  13  14
HETATM   14  N   UNL     1      -4.710   5.917 -33.225  1.00  0.00    -0.360 N 
HETATM   15  C   UNL     1      -3.808   4.947 -33.608  1.00  0.00     0.227 C 
HETATM   16  O   UNL     1      -3.524   3.978 -32.908  1.00  0.00    -0.273 OA
HETATM   17  H   UNL     1      -5.084   6.495 -33.979  1.00  0.00     0.162 HD
BRANCH  15  18
HETATM   18  C   UNL     1      -3.175   5.184 -34.967  1.00  0.00     0.183 C 
BRANCH  18  19
HETATM   19  S   UNL     1      -1.402   5.514 -34.799  1.00  0.00    -0.098 SA
BRANCH  19  20
HETATM   20  C   UNL     1      -1.338   6.641 -33.478  1.00  0.00     0.134 A 
HETATM   21  N   UNL     1      -1.802   7.897 -33.526  1.00  0.00    -0.149 NA
HETATM   22  N   UNL     1      -1.533   8.319 -32.272  1.00  0.00    -0.196 N 
HETATM   23  H   UNL     1      -1.781   9.258 -31.967  1.00  0.00     0.213 HD
HETATM   24  N   UNL     1      -0.923   7.466 -31.434  1.00  0.00    -0.167 NA
HETATM   25  C   UNL     1      -0.796   6.383 -32.209  1.00  0.00     0.180 A 
ENDBRANCH  19  20
ENDBRANCH  18  19
ENDBRANCH  15  18
ENDBRANCH  13  14
ENDBRANCH  12  13
ENDBRANCH   7  12
BRANCH  10  26
HETATM   26  O   UNL     1      -5.498  -0.271 -33.873  1.00  0.00    -0.270 OA
BRANCH  26  27
HETATM   27  C   UNL     1      -6.508  -0.954 -34.604  1.00  0.00     0.447 C 
HETATM   28 CL   UNL     1      -5.945  -2.581 -35.000  1.00  0.00    -0.014 Cl
HETATM   29  F   UNL     1      -7.643  -1.032 -33.866  1.00  0.00    -0.159 F 
HETATM   30  F   UNL     1      -6.791  -0.278 -35.745  1.00  0.00    -0.159 F 
ENDBRANCH  26  27
ENDBRANCH  10  26
TORSDOF 8
ENDMDL
MODEL 10
REMARK VINA RESULT:      -7.6      4.185      8.134
REMARK  8 active torsions:
REMARK  status: ('A' for Active; 'I' for Inactive)
REMARK    1  A    between atoms: C_7  and  C_8 
REMARK    2  A    between atoms: C_8  and  C_9 
REMARK    3  A    between atoms: C_9  and  N_10 
REMARK       I    between atoms: N_10  and  C_11 
REMARK    4  A    between atoms: C_11  and  C_12 
REMARK    5  A    between atoms: C_12  and  S_13 
REMARK    6  A    between atoms: S_13  and  C_14 
REMARK    7  A    between atoms: C_23  and  O_24 
REMARK    8  A    between atoms: O_24  and  C_25 
ROOT
HETATM    1  C   UNL     1      -4.091   4.041 -32.281  1.00  0.00     0.068 C 
HETATM    2  C   UNL     1      -4.409   2.614 -32.554  1.00  0.00     0.013 A 
HETATM    3  N   UNL     1      -3.550   1.603 -32.206  1.00  0.00    -0.359 N 
HETATM    4  H   UNL     1      -2.659   1.730 -31.745  1.00  0.00     0.166 HD
HETATM    5  C   UNL     1      -4.064   0.384 -32.578  1.00  0.00     0.043 A 
HETATM    6  C   UNL     1      -5.298   0.622 -33.174  1.00  0.00     0.002 A 
HETATM    7  C   UNL     1      -5.517   2.038 -33.157  1.00  0.00    -0.022 A 
HETATM    8  C   UNL     1      -3.533  -0.902 -32.431  1.00  0.00     0.033 A 
HETATM    9  C   UNL     1      -4.285  -1.980 -32.915  1.00  0.00     0.039 A 
HETATM   10  C   UNL     1      -5.524  -1.782 -33.521  1.00  0.00     0.077 A 
HETATM   11  C   UNL     1      -6.036  -0.481 -33.648  1.00  0.00     0.051 A 
ENDROOT
BRANCH   7  12
HETATM   12  C   UNL     1      -6.711   2.763 -33.700  1.00  0.00     0.061 C 
BRANCH  12  13
HETATM   13  C   UNL     1      -7.860   2.808 -32.691  1.00  0.00     0.127 C 
BRANCH  13  14
HETATM   14  N   UNL     1      -9.098   2.269 -33.225  1.00  0.00    -0.360 N 
HETATM   15  C   UNL     1      -9.663   1.120 -32.715  1.00  0.00     0.227 C 
HETATM   16  O   UNL     1      -9.113   0.416 -31.871  1.00  0.00    -0.273 OA
HETATM   17  H   UNL     1      -9.745   2.915 -33.680  1.00  0.00     0.162 HD
BRANCH  15  18
HETATM   18  C   UNL     1     -11.023   0.780 -33.296  1.00  0.00     0.183 C 
BRANCH  18  19
HETATM   19  S   UNL     1     -11.848   2.271 -33.911  1.00  0.00    -0.098 SA
BRANCH  19  20
HETATM   20  C   UNL     1     -13.527   1.826 -33.887  1.00  0.00     0.134 A 
HETATM   21  N   UNL     1     -14.133   1.091 -34.828  1.00  0.00    -0.149 NA
HETATM   22  N   UNL     1     -15.388   1.023 -34.334  1.00  0.00    -0.196 N 
HETATM   23  H   UNL     1     -16.119   0.507 -34.820  1.00  0.00     0.213 HD
HETATM   24  N   UNL     1     -15.650   1.660 -33.181  1.00  0.00    -0.167 NA
HETATM   25  C   UNL     1     -14.451   2.179 -32.890  1.00  0.00     0.180 A 
ENDBRANCH  19  20
ENDBRANCH  18  19
ENDBRANCH  15  18
ENDBRANCH  13  14
ENDBRANCH  12  13
ENDBRANCH   7  12
BRANCH  10  26
HETATM   26  O   UNL     1      -6.342  -2.752 -34.032  1.00  0.00    -0.270 OA
BRANCH  26  27
HETATM   27  C   UNL     1      -5.829  -3.606 -35.046  1.00  0.00     0.447 C 
HETATM   28 CL   UNL     1      -4.880  -4.896 -34.301  1.00  0.00    -0.014 Cl
HETATM   29  F   UNL     1      -6.849  -4.144 -35.759  1.00  0.00    -0.159 F 
HETATM   30  F   UNL     1      -5.047  -2.895 -35.897  1.00  0.00    -0.159 F 
ENDBRANCH  26  27
ENDBRANCH  10  26
TORSDOF 8
ENDMDL
