MODEL 1
REMARK VINA RESULT:      -9.0      0.000      0.000
REMARK  3 active torsions:
REMARK  status: ('A' for Active; 'I' for Inactive)
REMARK    1  A    between atoms: O_2  and  C_3 
REMARK    2  A    between atoms: C_4  and  N_5 
REMARK       I    between atoms: N_5  and  C_6 
REMARK       I    between atoms: C_6  and  N_7 
REMARK    3  A    between atoms: C_10  and  C_11 
ROOT
HETATM    1  N   UNL     1     -12.237   2.600 -32.234  1.00  0.00    -0.306 N 
HETATM    2  C   UNL     1     -11.494   2.689 -33.389  1.00  0.00     0.323 C 
HETATM    3  N   UNL     1     -10.254   2.038 -33.319  1.00  0.00    -0.330 N 
HETATM    4  C   UNL     1      -9.414   2.265 -34.483  1.00  0.00     0.155 C 
HETATM    5  C   UNL     1      -8.135   1.494 -34.450  1.00  0.00     0.001 C 
HETATM    6  C   UNL     1      -7.806   0.538 -33.561  1.00  0.00    -0.046 C 
HETATM    7  C   UNL     1      -8.769   0.220 -32.446  1.00  0.00     0.059 C 
HETATM    8  C   UNL     1     -10.197   0.698 -32.733  1.00  0.00     0.132 C 
HETATM    9  O   UNL     1     -11.855   3.314 -34.382  1.00  0.00    -0.247 OA
HETATM   10  H   UNL     1     -11.706   2.751 -31.385  1.00  0.00     0.171 HD
ENDROOT
BRANCH   1  11
HETATM   11  C   UNL     1     -13.606   2.940 -32.166  1.00  0.00     0.071 A 
HETATM   12  C   UNL     1     -14.561   2.025 -32.630  1.00  0.00     0.095 A 
HETATM   13  C   UNL     1     -15.917   2.360 -32.649  1.00  0.00     0.041 A 
HETATM   14  C   UNL     1     -16.326   3.609 -32.180  1.00  0.00     0.026 A 
HETATM   15  C   UNL     1     -15.378   4.514 -31.700  1.00  0.00     0.036 A 
HETATM   16  C   UNL     1     -14.023   4.186 -31.689  1.00  0.00     0.056 A 
HETATM   17 CL   UNL     1     -15.888   6.061 -31.143  1.00  0.00    -0.084 Cl
BRANCH  12  18
HETATM   18  O   UNL     1     -14.137   0.792 -33.061  1.00  0.00    -0.354 OA
HETATM   19  C   UNL     1     -14.382   0.644 -34.463  1.00  0.00     0.210 C 
ENDBRANCH  12  18
ENDBRANCH   1  11
BRANCH   6  20
HETATM   20  C   UNL     1      -6.613  -0.270 -33.656  1.00  0.00    -0.002 A 
HETATM   21  C   UNL     1      -6.434  -1.646 -34.045  1.00  0.00     0.003 A 
HETATM   22  C   UNL     1      -5.059  -1.908 -34.024  1.00  0.00     0.043 A 
HETATM   23  C   UNL     1      -7.285  -2.712 -34.421  1.00  0.00     0.014 A 
HETATM   24  C   UNL     1      -4.502  -3.144 -34.374  1.00  0.00     0.030 A 
HETATM   25  N   UNL     1      -4.430  -0.758 -33.615  1.00  0.00    -0.364 N 
HETATM   26  C   UNL     1      -5.371  -4.164 -34.760  1.00  0.00     0.002 A 
HETATM   27  C   UNL     1      -6.745  -3.955 -34.781  1.00  0.00     0.001 A 
HETATM   28  H   UNL     1      -3.431  -0.659 -33.507  1.00  0.00     0.165 HD
HETATM   29  C   UNL     1      -5.348   0.230 -33.402  1.00  0.00     0.101 A 
ENDBRANCH   6  20
TORSDOF 3
ENDMDL
MODEL 2
REMARK VINA RESULT:      -9.0      6.416      8.740
REMARK  3 active torsions:
REMARK  status: ('A' for Active; 'I' for Inactive)
REMARK    1  A    between atoms: O_2  and  C_3 
REMARK    2  A    between atoms: C_4  and  N_5 
REMARK       I    between atoms: N_5  and  C_6 
REMARK       I    between atoms: C_6  and  N_7 
REMARK    3  A    between atoms: C_10  and  C_11 
ROOT
HETATM    1  N   UNL     1      -3.912   5.047 -31.404  1.00  0.00    -0.306 N 
HETATM    2  C   UNL     1      -3.240   3.851 -31.510  1.00  0.00     0.323 C 
HETATM    3  N   UNL     1      -4.044   2.783 -31.934  1.00  0.00    -0.330 N 
HETATM    4  C   UNL     1      -3.366   1.498 -31.897  1.00  0.00     0.155 C 
HETATM    5  C   UNL     1      -4.191   0.376 -32.438  1.00  0.00     0.001 C 
HETATM    6  C   UNL     1      -5.373   0.495 -33.073  1.00  0.00    -0.046 C 
HETATM    7  C   UNL     1      -5.982   1.864 -33.226  1.00  0.00     0.059 C 
HETATM    8  C   UNL     1      -4.963   2.996 -33.051  1.00  0.00     0.132 C 
HETATM    9  O   UNL     1      -2.054   3.711 -31.225  1.00  0.00    -0.247 OA
HETATM   10  H   UNL     1      -4.821   4.975 -30.961  1.00  0.00     0.171 HD
ENDROOT
BRANCH   1  11
HETATM   11  C   UNL     1      -3.260   6.292 -31.260  1.00  0.00     0.071 A 
HETATM   12  C   UNL     1      -2.815   6.965 -32.405  1.00  0.00     0.095 A 
HETATM   13  C   UNL     1      -2.099   8.160 -32.296  1.00  0.00     0.041 A 
HETATM   14  C   UNL     1      -1.845   8.698 -31.034  1.00  0.00     0.026 A 
HETATM   15  C   UNL     1      -2.304   8.038 -29.893  1.00  0.00     0.036 A 
HETATM   16  C   UNL     1      -3.010   6.841 -29.999  1.00  0.00     0.056 A 
HETATM   17 CL   UNL     1      -1.968   8.697 -28.338  1.00  0.00    -0.084 Cl
BRANCH  12  18
HETATM   18  O   UNL     1      -3.102   6.430 -33.638  1.00  0.00    -0.354 OA
HETATM   19  C   UNL     1      -1.899   6.007 -34.287  1.00  0.00     0.210 C 
ENDBRANCH  12  18
ENDBRANCH   1  11
BRANCH   6  20
HETATM   20  C   UNL     1      -6.063  -0.611 -33.695  1.00  0.00    -0.002 A 
HETATM   21  C   UNL     1      -5.622  -1.951 -33.991  1.00  0.00     0.003 A 
HETATM   22  C   UNL     1      -6.713  -2.634 -34.540  1.00  0.00     0.043 A 
HETATM   23  C   UNL     1      -4.414  -2.675 -33.850  1.00  0.00     0.014 A 
HETATM   24  C   UNL     1      -6.667  -3.979 -34.928  1.00  0.00     0.030 A 
HETATM   25  N   UNL     1      -7.760  -1.749 -34.605  1.00  0.00    -0.364 N 
HETATM   26  C   UNL     1      -5.465  -4.667 -34.755  1.00  0.00     0.002 A 
HETATM   27  C   UNL     1      -4.351  -4.024 -34.227  1.00  0.00     0.001 A 
HETATM   28  H   UNL     1      -8.678  -1.972 -34.964  1.00  0.00     0.165 HD
HETATM   29  C   UNL     1      -7.386  -0.539 -34.094  1.00  0.00     0.101 A 
ENDBRANCH   6  20
TORSDOF 3
ENDMDL
MODEL 3
REMARK VINA RESULT:      -8.9      1.457      2.248
REMARK  3 active torsions:
REMARK  status: ('A' for Active; 'I' for Inactive)
REMARK    1  A    between atoms: O_2  and  C_3 
REMARK    2  A    between atoms: C_4  and  N_5 
REMARK       I    between atoms: N_5  and  C_6 
REMARK       I    between atoms: C_6  and  N_7 
REMARK    3  A    between atoms: C_10  and  C_11 
ROOT
HETATM    1  N   UNL     1     -11.349   3.031 -32.205  1.00  0.00    -0.306 N 
HETATM    2  C   UNL     1     -10.710   2.865 -33.413  1.00  0.00     0.323 C 
HETATM    3  N   UNL     1      -9.539   2.098 -33.335  1.00  0.00    -0.330 N 
HETATM    4  C   UNL     1      -8.791   2.056 -34.581  1.00  0.00     0.155 C 
HETATM    5  C   UNL     1      -7.596   1.162 -34.526  1.00  0.00     0.001 C 
HETATM    6  C   UNL     1      -7.282   0.317 -33.525  1.00  0.00    -0.046 C 
HETATM    7  C   UNL     1      -8.164   0.277 -32.304  1.00  0.00     0.059 C 
HETATM    8  C   UNL     1      -9.559   0.862 -32.553  1.00  0.00     0.132 C 
HETATM    9  O   UNL     1     -11.098   3.372 -34.461  1.00  0.00    -0.247 OA
HETATM   10  H   UNL     1     -10.729   3.246 -31.433  1.00  0.00     0.171 HD
ENDROOT
BRANCH   1  11
HETATM   11  C   UNL     1     -12.666   3.527 -32.087  1.00  0.00     0.071 A 
HETATM   12  C   UNL     1     -12.862   4.843 -31.646  1.00  0.00     0.095 A 
HETATM   13  C   UNL     1     -14.151   5.341 -31.444  1.00  0.00     0.041 A 
HETATM   14  C   UNL     1     -15.254   4.528 -31.705  1.00  0.00     0.026 A 
HETATM   15  C   UNL     1     -15.061   3.223 -32.162  1.00  0.00     0.036 A 
HETATM   16  C   UNL     1     -13.774   2.720 -32.356  1.00  0.00     0.056 A 
HETATM   17 CL   UNL     1     -16.426   2.218 -32.463  1.00  0.00    -0.084 Cl
BRANCH  12  18
HETATM   18  O   UNL     1     -11.761   5.634 -31.422  1.00  0.00    -0.354 OA
HETATM   19  C   UNL     1     -11.637   6.617 -32.455  1.00  0.00     0.210 C 
ENDBRANCH  12  18
ENDBRANCH   1  11
BRANCH   6  20
HETATM   20  C   UNL     1      -6.187  -0.623 -33.583  1.00  0.00    -0.002 A 
HETATM   21  C   UNL     1      -6.142  -1.991 -34.035  1.00  0.00     0.003 A 
HETATM   22  C   UNL     1      -4.812  -2.417 -33.934  1.00  0.00     0.043 A 
HETATM   23  C   UNL     1      -7.081  -2.927 -34.528  1.00  0.00     0.014 A 
HETATM   24  C   UNL     1      -4.379  -3.693 -34.313  1.00  0.00     0.030 A 
HETATM   25  N   UNL     1      -4.086  -1.372 -33.419  1.00  0.00    -0.364 N 
HETATM   26  C   UNL     1      -5.330  -4.582 -34.815  1.00  0.00     0.002 A 
HETATM   27  C   UNL     1      -6.664  -4.208 -34.919  1.00  0.00     0.001 A 
HETATM   28  H   UNL     1      -3.093  -1.399 -33.236  1.00  0.00     0.165 HD
HETATM   29  C   UNL     1      -4.896  -0.292 -33.214  1.00  0.00     0.101 A 
ENDBRANCH   6  20
TORSDOF 3
ENDMDL
MODEL 4
REMARK VINA RESULT:      -8.7      2.550      3.305
REMARK  3 active torsions:
REMARK  status: ('A' for Active; 'I' for Inactive)
REMARK    1  A    between atoms: O_2  and  C_3 
REMARK    2  A    between atoms: C_4  and  N_5 
REMARK       I    between atoms: N_5  and  C_6 
REMARK       I    between atoms: C_6  and  N_7 
REMARK    3  A    between atoms: C_10  and  C_11 
ROOT
HETATM    1  N   UNL     1     -10.525   3.334 -34.533  1.00  0.00    -0.306 N 
HETATM    2  C   UNL     1      -9.819   3.098 -33.375  1.00  0.00     0.323 C 
HETATM    3  N   UNL     1      -8.976   1.980 -33.441  1.00  0.00    -0.330 N 
HETATM    4  C   UNL     1      -8.352   1.650 -32.170  1.00  0.00     0.155 C 
HETATM    5  C   UNL     1      -7.382   0.518 -32.262  1.00  0.00     0.001 C 
HETATM    6  C   UNL     1      -6.947  -0.065 -33.396  1.00  0.00    -0.046 C 
HETATM    7  C   UNL     1      -7.506   0.403 -34.715  1.00  0.00     0.059 C 
HETATM    8  C   UNL     1      -8.150   1.791 -34.633  1.00  0.00     0.132 C 
HETATM    9  O   UNL     1      -9.938   3.776 -32.358  1.00  0.00    -0.247 OA
HETATM   10  H   UNL     1     -10.925   2.503 -34.952  1.00  0.00     0.171 HD
ENDROOT
BRANCH   1  11
HETATM   11  C   UNL     1     -11.216   4.538 -34.787  1.00  0.00     0.071 A 
HETATM   12  C   UNL     1     -12.599   4.591 -34.566  1.00  0.00     0.095 A 
HETATM   13  C   UNL     1     -13.327   5.741 -34.881  1.00  0.00     0.041 A 
HETATM   14  C   UNL     1     -12.666   6.856 -35.398  1.00  0.00     0.026 A 
HETATM   15  C   UNL     1     -11.286   6.812 -35.601  1.00  0.00     0.036 A 
HETATM   16  C   UNL     1     -10.559   5.661 -35.297  1.00  0.00     0.056 A 
HETATM   17 CL   UNL     1     -10.480   8.183 -36.259  1.00  0.00    -0.084 Cl
BRANCH  12  18
HETATM   18  O   UNL     1     -13.223   3.491 -34.030  1.00  0.00    -0.354 OA
HETATM   19  C   UNL     1     -13.710   3.786 -32.718  1.00  0.00     0.210 C 
ENDBRANCH  12  18
ENDBRANCH   1  11
BRANCH   6  20
HETATM   20  C   UNL     1      -5.906  -1.066 -33.435  1.00  0.00    -0.002 A 
HETATM   21  C   UNL     1      -5.891  -2.388 -34.008  1.00  0.00     0.003 A 
HETATM   22  C   UNL     1      -4.605  -2.907 -33.817  1.00  0.00     0.043 A 
HETATM   23  C   UNL     1      -6.824  -3.213 -34.680  1.00  0.00     0.014 A 
HETATM   24  C   UNL     1      -4.206  -4.171 -34.271  1.00  0.00     0.030 A 
HETATM   25  N   UNL     1      -3.879  -1.962 -33.135  1.00  0.00    -0.364 N 
HETATM   26  C   UNL     1      -5.147  -4.947 -34.948  1.00  0.00     0.002 A 
HETATM   27  C   UNL     1      -6.441  -4.478 -35.148  1.00  0.00     0.001 A 
HETATM   28  H   UNL     1      -2.914  -2.071 -32.858  1.00  0.00     0.165 HD
HETATM   29  C   UNL     1      -4.644  -0.854 -32.909  1.00  0.00     0.101 A 
ENDBRANCH   6  20
TORSDOF 3
ENDMDL
MODEL 5
REMARK VINA RESULT:      -8.5      2.943      3.743
REMARK  3 active torsions:
REMARK  status: ('A' for Active; 'I' for Inactive)
REMARK    1  A    between atoms: O_2  and  C_3 
REMARK    2  A    between atoms: C_4  and  N_5 
REMARK       I    between atoms: N_5  and  C_6 
REMARK       I    between atoms: C_6  and  N_7 
REMARK    3  A    between atoms: C_10  and  C_11 
ROOT
HETATM    1  N   UNL     1     -10.095   3.982 -34.874  1.00  0.00    -0.306 N 
HETATM    2  C   UNL     1     -10.251   2.898 -34.040  1.00  0.00     0.323 C 
HETATM    3  N   UNL     1      -9.221   1.952 -34.138  1.00  0.00    -0.330 N 
HETATM    4  C   UNL     1      -9.471   0.743 -33.370  1.00  0.00     0.155 C 
HETATM    5  C   UNL     1      -8.331  -0.223 -33.399  1.00  0.00     0.001 C 
HETATM    6  C   UNL     1      -7.107   0.008 -33.910  1.00  0.00    -0.046 C 
HETATM    7  C   UNL     1      -6.834   1.334 -34.573  1.00  0.00     0.059 C 
HETATM    8  C   UNL     1      -7.836   2.421 -34.171  1.00  0.00     0.132 C 
HETATM    9  O   UNL     1     -11.220   2.744 -33.302  1.00  0.00    -0.247 OA
HETATM   10  H   UNL     1      -9.801   3.744 -35.814  1.00  0.00     0.171 HD
ENDROOT
BRANCH   1  11
HETATM   11  C   UNL     1     -10.851   5.168 -34.753  1.00  0.00     0.071 A 
HETATM   12  C   UNL     1     -10.418   6.166 -33.870  1.00  0.00     0.095 A 
HETATM   13  C   UNL     1     -11.183   7.318 -33.668  1.00  0.00     0.041 A 
HETATM   14  C   UNL     1     -12.377   7.485 -34.369  1.00  0.00     0.026 A 
HETATM   15  C   UNL     1     -12.800   6.501 -35.264  1.00  0.00     0.036 A 
HETATM   16  C   UNL     1     -12.043   5.346 -35.460  1.00  0.00     0.056 A 
HETATM   17 CL   UNL     1     -14.285   6.704 -36.111  1.00  0.00    -0.084 Cl
BRANCH  12  18
HETATM   18  O   UNL     1      -9.226   5.992 -33.211  1.00  0.00    -0.354 OA
HETATM   19  C   UNL     1      -9.396   6.218 -31.808  1.00  0.00     0.210 C 
ENDBRANCH  12  18
ENDBRANCH   1  11
BRANCH   6  20
HETATM   20  C   UNL     1      -6.002  -0.914 -33.791  1.00  0.00    -0.002 A 
HETATM   21  C   UNL     1      -5.889  -2.303 -34.158  1.00  0.00     0.003 A 
HETATM   22  C   UNL     1      -4.575  -2.699 -33.882  1.00  0.00     0.043 A 
HETATM   23  C   UNL     1      -6.754  -3.281 -34.703  1.00  0.00     0.014 A 
HETATM   24  C   UNL     1      -4.086  -3.986 -34.138  1.00  0.00     0.030 A 
HETATM   25  N   UNL     1      -3.925  -1.615 -33.346  1.00  0.00    -0.364 N 
HETATM   26  C   UNL     1      -4.962  -4.917 -34.695  1.00  0.00     0.002 A 
HETATM   27  C   UNL     1      -6.280  -4.573 -34.971  1.00  0.00     0.001 A 
HETATM   28  H   UNL     1      -2.959  -1.615 -33.050  1.00  0.00     0.165 HD
HETATM   29  C   UNL     1      -4.765  -0.540 -33.295  1.00  0.00     0.101 A 
ENDBRANCH   6  20
TORSDOF 3
ENDMDL
MODEL 6
REMARK VINA RESULT:      -8.5      1.793      2.601
REMARK  3 active torsions:
REMARK  status: ('A' for Active; 'I' for Inactive)
REMARK    1  A    between atoms: O_2  and  C_3 
REMARK    2  A    between atoms: C_4  and  N_5 
REMARK       I    between atoms: N_5  and  C_6 
REMARK       I    between atoms: C_6  and  N_7 
REMARK    3  A    between atoms: C_10  and  C_11 
ROOT
HETATM    1  N   UNL     1     -11.562   2.916 -33.444  1.00  0.00    -0.306 N 
HETATM    2  C   UNL     1     -10.528   2.894 -32.536  1.00  0.00     0.323 C 
HETATM    3  N   UNL     1      -9.586   1.883 -32.773  1.00  0.00    -0.330 N 
HETATM    4  C   UNL     1      -8.583   1.769 -31.726  1.00  0.00     0.155 C 
HETATM    5  C   UNL     1      -7.526   0.758 -32.025  1.00  0.00     0.001 C 
HETATM    6  C   UNL     1      -7.353   0.111 -33.194  1.00  0.00    -0.046 C 
HETATM    7  C   UNL     1      -8.328   0.363 -34.315  1.00  0.00     0.059 C 
HETATM    8  C   UNL     1      -9.118   1.665 -34.141  1.00  0.00     0.132 C 
HETATM    9  O   UNL     1     -10.449   3.659 -31.579  1.00  0.00    -0.247 OA
HETATM   10  H   UNL     1     -11.940   2.002 -33.666  1.00  0.00     0.171 HD
ENDROOT
BRANCH   1  11
HETATM   11  C   UNL     1     -12.465   3.995 -33.563  1.00  0.00     0.071 A 
HETATM   12  C   UNL     1     -12.246   4.963 -34.552  1.00  0.00     0.095 A 
HETATM   13  C   UNL     1     -13.074   6.083 -34.648  1.00  0.00     0.041 A 
HETATM   14  C   UNL     1     -14.144   6.228 -33.765  1.00  0.00     0.026 A 
HETATM   15  C   UNL     1     -14.376   5.255 -32.792  1.00  0.00     0.036 A 
HETATM   16  C   UNL     1     -13.545   4.140 -32.687  1.00  0.00     0.056 A 
HETATM   17 CL   UNL     1     -15.686   5.450 -31.691  1.00  0.00    -0.084 Cl
BRANCH  12  18
HETATM   18  O   UNL     1     -11.202   4.785 -35.428  1.00  0.00    -0.354 OA
HETATM   19  C   UNL     1     -10.216   5.804 -35.238  1.00  0.00     0.210 C 
ENDBRANCH  12  18
ENDBRANCH   1  11
BRANCH   6  20
HETATM   20  C   UNL     1      -6.233  -0.757 -33.472  1.00  0.00    -0.002 A 
HETATM   21  C   UNL     1      -6.188  -2.104 -33.984  1.00  0.00     0.003 A 
HETATM   22  C   UNL     1      -4.839  -2.450 -34.122  1.00  0.00     0.043 A 
HETATM   23  C   UNL     1      -7.143  -3.079 -34.358  1.00  0.00     0.014 A 
HETATM   24  C   UNL     1      -4.404  -3.683 -34.622  1.00  0.00     0.030 A 
HETATM   25  N   UNL     1      -4.096  -1.380 -33.687  1.00  0.00    -0.364 N 
HETATM   26  C   UNL     1      -5.375  -4.611 -35.000  1.00  0.00     0.002 A 
HETATM   27  C   UNL     1      -6.727  -4.317 -34.867  1.00  0.00     0.001 A 
HETATM   28  H   UNL     1      -3.086  -1.352 -33.671  1.00  0.00     0.165 HD
HETATM   29  C   UNL     1      -4.919  -0.359 -33.305  1.00  0.00     0.101 A 
ENDBRANCH   6  20
TORSDOF 3
ENDMDL
MODEL 7
REMARK VINA RESULT:      -8.4      5.441      6.665
REMARK  3 active torsions:
REMARK  status: ('A' for Active; 'I' for Inactive)
REMARK    1  A    between atoms: O_2  and  C_3 
REMARK    2  A    between atoms: C_4  and  N_5 
REMARK       I    between atoms: N_5  and  C_6 
REMARK       I    between atoms: C_6  and  N_7 
REMARK    3  A    between atoms: C_10  and  C_11 
ROOT
HETATM    1  N   UNL     1      -5.551   3.941 -29.175  1.00  0.00    -0.306 N 
HETATM    2  C   UNL     1      -4.906   3.796 -30.383  1.00  0.00     0.323 C 
HETATM    3  N   UNL     1      -4.653   2.462 -30.734  1.00  0.00    -0.330 N 
HETATM    4  C   UNL     1      -3.839   2.324 -31.932  1.00  0.00     0.155 C 
HETATM    5  C   UNL     1      -3.650   0.905 -32.359  1.00  0.00     0.001 C 
HETATM    6  C   UNL     1      -4.280  -0.169 -31.846  1.00  0.00    -0.046 C 
HETATM    7  C   UNL     1      -5.233   0.027 -30.697  1.00  0.00     0.059 C 
HETATM    8  C   UNL     1      -5.717   1.475 -30.560  1.00  0.00     0.132 C 
HETATM    9  O   UNL     1      -4.546   4.741 -31.078  1.00  0.00    -0.247 OA
HETATM   10  H   UNL     1      -5.188   3.350 -28.437  1.00  0.00     0.171 HD
ENDROOT
BRANCH   1  11
HETATM   11  C   UNL     1      -6.141   5.153 -28.753  1.00  0.00     0.071 A 
HETATM   12  C   UNL     1      -7.489   5.395 -29.049  1.00  0.00     0.095 A 
HETATM   13  C   UNL     1      -8.083   6.614 -28.715  1.00  0.00     0.041 A 
HETATM   14  C   UNL     1      -7.333   7.591 -28.060  1.00  0.00     0.026 A 
HETATM   15  C   UNL     1      -5.995   7.344 -27.747  1.00  0.00     0.036 A 
HETATM   16  C   UNL     1      -5.397   6.131 -28.088  1.00  0.00     0.056 A 
HETATM   17 CL   UNL     1      -5.069   8.561 -26.957  1.00  0.00    -0.084 Cl
BRANCH  12  18
HETATM   18  O   UNL     1      -8.215   4.408 -29.671  1.00  0.00    -0.354 OA
HETATM   19  C   UNL     1      -8.487   4.771 -31.028  1.00  0.00     0.210 C 
ENDBRANCH  12  18
ENDBRANCH   1  11
BRANCH   6  20
HETATM   20  C   UNL     1      -4.159  -1.503 -32.388  1.00  0.00    -0.002 A 
HETATM   21  C   UNL     1      -4.961  -2.201 -33.361  1.00  0.00     0.003 A 
HETATM   22  C   UNL     1      -4.364  -3.449 -33.571  1.00  0.00     0.043 A 
HETATM   23  C   UNL     1      -6.133  -1.917 -34.101  1.00  0.00     0.014 A 
HETATM   24  C   UNL     1      -4.853  -4.397 -34.478  1.00  0.00     0.030 A 
HETATM   25  N   UNL     1      -3.268  -3.522 -32.747  1.00  0.00    -0.364 N 
HETATM   26  C   UNL     1      -5.999  -4.073 -35.205  1.00  0.00     0.002 A 
HETATM   27  C   UNL     1      -6.634  -2.851 -35.018  1.00  0.00     0.001 A 
HETATM   28  H   UNL     1      -2.648  -4.318 -32.688  1.00  0.00     0.165 HD
HETATM   29  C   UNL     1      -3.131  -2.361 -32.042  1.00  0.00     0.101 A 
ENDBRANCH   6  20
TORSDOF 3
ENDMDL
MODEL 8
REMARK VINA RESULT:      -8.3      6.703      9.687
REMARK  3 active torsions:
REMARK  status: ('A' for Active; 'I' for Inactive)
REMARK    1  A    between atoms: O_2  and  C_3 
REMARK    2  A    between atoms: C_4  and  N_5 
REMARK       I    between atoms: N_5  and  C_6 
REMARK       I    between atoms: C_6  and  N_7 
REMARK    3  A    between atoms: C_10  and  C_11 
ROOT
HETATM    1  N   UNL     1      -2.185   5.200 -30.902  1.00  0.00    -0.306 N 
HETATM    2  C   UNL     1      -3.242   5.390 -31.762  1.00  0.00     0.323 C 
HETATM    3  N   UNL     1      -3.841   4.199 -32.198  1.00  0.00    -0.330 N 
HETATM    4  C   UNL     1      -4.854   4.402 -33.220  1.00  0.00     0.155 C 
HETATM    5  C   UNL     1      -5.558   3.144 -33.615  1.00  0.00     0.001 C 
HETATM    6  C   UNL     1      -5.445   1.947 -33.008  1.00  0.00    -0.046 C 
HETATM    7  C   UNL     1      -4.491   1.806 -31.851  1.00  0.00     0.059 C 
HETATM    8  C   UNL     1      -4.115   3.150 -31.216  1.00  0.00     0.132 C 
HETATM    9  O   UNL     1      -3.612   6.494 -32.150  1.00  0.00    -0.247 OA
HETATM   10  H   UNL     1      -1.549   4.462 -31.181  1.00  0.00     0.171 HD
ENDROOT
BRANCH   1  11
HETATM   11  C   UNL     1      -1.614   6.239 -30.135  1.00  0.00     0.071 A 
HETATM   12  C   UNL     1      -0.236   6.478 -30.229  1.00  0.00     0.095 A 
HETATM   13  C   UNL     1       0.375   7.445 -29.428  1.00  0.00     0.041 A 
HETATM   14  C   UNL     1      -0.398   8.197 -28.543  1.00  0.00     0.026 A 
HETATM   15  C   UNL     1      -1.773   7.974 -28.462  1.00  0.00     0.036 A 
HETATM   16  C   UNL     1      -2.384   7.002 -29.254  1.00  0.00     0.056 A 
HETATM   17 CL   UNL     1      -2.719   8.890 -27.353  1.00  0.00    -0.084 Cl
BRANCH  12  18
HETATM   18  O   UNL     1       0.501   5.744 -31.127  1.00  0.00    -0.354 OA
HETATM   19  C   UNL     1       1.319   4.793 -30.439  1.00  0.00     0.210 C 
ENDBRANCH  12  18
ENDBRANCH   1  11
BRANCH   6  20
HETATM   20  C   UNL     1      -6.250   0.797 -33.348  1.00  0.00    -0.002 A 
HETATM   21  C   UNL     1      -5.871  -0.530 -33.761  1.00  0.00     0.003 A 
HETATM   22  C   UNL     1      -7.050  -1.273 -33.901  1.00  0.00     0.043 A 
HETATM   23  C   UNL     1      -4.654  -1.200 -34.029  1.00  0.00     0.014 A 
HETATM   24  C   UNL     1      -7.073  -2.625 -34.266  1.00  0.00     0.030 A 
HETATM   25  N   UNL     1      -8.098  -0.433 -33.617  1.00  0.00    -0.364 N 
HETATM   26  C   UNL     1      -5.851  -3.257 -34.502  1.00  0.00     0.002 A 
HETATM   27  C   UNL     1      -4.657  -2.555 -34.389  1.00  0.00     0.001 A 
HETATM   28  H   UNL     1      -9.072  -0.703 -33.643  1.00  0.00     0.165 HD
HETATM   29  C   UNL     1      -7.632   0.804 -33.276  1.00  0.00     0.101 A 
ENDBRANCH   6  20
TORSDOF 3
ENDMDL
MODEL 9
REMARK VINA RESULT:      -8.1      7.676     10.219
REMARK  3 active torsions:
REMARK  status: ('A' for Active; 'I' for Inactive)
REMARK    1  A    between atoms: O_2  and  C_3 
REMARK    2  A    between atoms: C_4  and  N_5 
REMARK       I    between atoms: N_5  and  C_6 
REMARK       I    between atoms: C_6  and  N_7 
REMARK    3  A    between atoms: C_10  and  C_11 
ROOT
HETATM    1  N   UNL     1      -2.388   6.339 -29.545  1.00  0.00    -0.306 N 
HETATM    2  C   UNL     1      -2.068   5.853 -30.792  1.00  0.00     0.323 C 
HETATM    3  N   UNL     1      -2.897   4.809 -31.225  1.00  0.00    -0.330 N 
HETATM    4  C   UNL     1      -2.460   4.202 -32.472  1.00  0.00     0.155 C 
HETATM    5  C   UNL     1      -3.396   3.155 -32.982  1.00  0.00     0.001 C 
HETATM    6  C   UNL     1      -4.618   2.876 -32.491  1.00  0.00    -0.046 C 
HETATM    7  C   UNL     1      -5.105   3.630 -31.280  1.00  0.00     0.059 C 
HETATM    8  C   UNL     1      -4.343   4.938 -31.043  1.00  0.00     0.132 C 
HETATM    9  O   UNL     1      -1.120   6.262 -31.457  1.00  0.00    -0.247 OA
HETATM   10  H   UNL     1      -2.590   5.621 -28.859  1.00  0.00     0.171 HD
ENDROOT
BRANCH   1  11
HETATM   11  C   UNL     1      -1.873   7.547 -29.028  1.00  0.00     0.071 A 
HETATM   12  C   UNL     1      -0.882   7.499 -28.038  1.00  0.00     0.095 A 
HETATM   13  C   UNL     1      -0.405   8.673 -27.450  1.00  0.00     0.041 A 
HETATM   14  C   UNL     1      -0.905   9.906 -27.869  1.00  0.00     0.026 A 
HETATM   15  C   UNL     1      -1.878   9.958 -28.868  1.00  0.00     0.036 A 
HETATM   16  C   UNL     1      -2.362   8.786 -29.450  1.00  0.00     0.056 A 
HETATM   17 CL   UNL     1      -2.506  11.482 -29.365  1.00  0.00    -0.084 Cl
BRANCH  12  18
HETATM   18  O   UNL     1      -0.385   6.275 -27.662  1.00  0.00    -0.354 OA
HETATM   19  C   UNL     1      -0.663   6.030 -26.280  1.00  0.00     0.210 C 
ENDBRANCH  12  18
ENDBRANCH   1  11
BRANCH   6  20
HETATM   20  C   UNL     1      -5.536   1.945 -33.106  1.00  0.00    -0.002 A 
HETATM   21  C   UNL     1      -5.398   0.541 -33.400  1.00  0.00     0.003 A 
HETATM   22  C   UNL     1      -6.615   0.111 -33.943  1.00  0.00     0.043 A 
HETATM   23  C   UNL     1      -4.377  -0.428 -33.264  1.00  0.00     0.014 A 
HETATM   24  C   UNL     1      -6.865  -1.213 -34.326  1.00  0.00     0.030 A 
HETATM   25  N   UNL     1      -7.444   1.203 -34.005  1.00  0.00    -0.364 N 
HETATM   26  C   UNL     1      -5.841  -2.145 -34.157  1.00  0.00     0.002 A 
HETATM   27  C   UNL     1      -4.611  -1.760 -33.636  1.00  0.00     0.001 A 
HETATM   28  H   UNL     1      -8.391   1.185 -34.359  1.00  0.00     0.165 HD
HETATM   29  C   UNL     1      -6.813   2.303 -33.499  1.00  0.00     0.101 A 
ENDBRANCH   6  20
TORSDOF 3
ENDMDL
MODEL 10
REMARK VINA RESULT:      -8.0      7.873     10.351
REMARK  3 active torsions:
REMARK  status: ('A' for Active; 'I' for Inactive)
REMARK    1  A    between atoms: O_2  and  C_3 
REMARK    2  A    between atoms: C_4  and  N_5 
REMARK       I    between atoms: N_5  and  C_6 
REMARK       I    between atoms: C_6  and  N_7 
REMARK    3  A    between atoms: C_10  and  C_11 
ROOT
HETATM    1  N   UNL     1      -2.180   6.316 -29.444  1.00  0.00    -0.306 N 
HETATM    2  C   UNL     1      -2.024   6.014 -30.778  1.00  0.00     0.323 C 
HETATM    3  N   UNL     1      -2.892   5.015 -31.240  1.00  0.00    -0.330 N 
HETATM    4  C   UNL     1      -2.619   4.596 -32.605  1.00  0.00     0.155 C 
HETATM    5  C   UNL     1      -3.603   3.602 -33.129  1.00  0.00     0.001 C 
HETATM    6  C   UNL     1      -4.745   3.222 -32.525  1.00  0.00    -0.046 C 
HETATM    7  C   UNL     1      -5.075   3.790 -31.169  1.00  0.00     0.059 C 
HETATM    8  C   UNL     1      -4.302   5.075 -30.853  1.00  0.00     0.132 C 
HETATM    9  O   UNL     1      -1.178   6.538 -31.498  1.00  0.00    -0.247 OA
HETATM   10  H   UNL     1      -2.281   5.506 -28.844  1.00  0.00     0.171 HD
ENDROOT
BRANCH   1  11
HETATM   11  C   UNL     1      -1.613   7.458 -28.837  1.00  0.00     0.071 A 
HETATM   12  C   UNL     1      -2.362   8.641 -28.777  1.00  0.00     0.095 A 
HETATM   13  C   UNL     1      -1.805   9.810 -28.253  1.00  0.00     0.041 A 
HETATM   14  C   UNL     1      -0.499   9.793 -27.765  1.00  0.00     0.026 A 
HETATM   15  C   UNL     1       0.242   8.611 -27.806  1.00  0.00     0.036 A 
HETATM   16  C   UNL     1      -0.309   7.445 -28.337  1.00  0.00     0.056 A 
HETATM   17 CL   UNL     1       1.861   8.602 -27.220  1.00  0.00    -0.084 Cl
BRANCH  12  18
HETATM   18  O   UNL     1      -3.656   8.627 -29.239  1.00  0.00    -0.354 OA
HETATM   19  C   UNL     1      -3.764   9.401 -30.438  1.00  0.00     0.210 C 
ENDBRANCH  12  18
ENDBRANCH   1  11
BRANCH   6  20
HETATM   20  C   UNL     1      -5.726   2.358 -33.138  1.00  0.00    -0.002 A 
HETATM   21  C   UNL     1      -5.721   0.933 -33.360  1.00  0.00     0.003 A 
HETATM   22  C   UNL     1      -6.951   0.599 -33.938  1.00  0.00     0.043 A 
HETATM   23  C   UNL     1      -4.810  -0.125 -33.131  1.00  0.00     0.014 A 
HETATM   24  C   UNL     1      -7.319  -0.711 -34.270  1.00  0.00     0.030 A 
HETATM   25  N   UNL     1      -7.662   1.764 -34.089  1.00  0.00    -0.364 N 
HETATM   26  C   UNL     1      -6.403  -1.730 -34.010  1.00  0.00     0.002 A 
HETATM   27  C   UNL     1      -5.163  -1.444 -33.451  1.00  0.00     0.001 A 
HETATM   28  H   UNL     1      -8.589   1.822 -34.486  1.00  0.00     0.165 HD
HETATM   29  C   UNL     1      -6.943   2.820 -33.607  1.00  0.00     0.101 A 
ENDBRANCH   6  20
TORSDOF 3
ENDMDL
