MODEL 1
REMARK VINA RESULT:      -8.2      0.000      0.000
REMARK  6 active torsions:
REMARK  status: ('A' for Active; 'I' for Inactive)
REMARK    1  A    between atoms: C_2  and  O_3 
REMARK    2  A    between atoms: O_3  and  C_4 
REMARK    3  A    between atoms: C_7  and  C_8 
REMARK    4  A    between atoms: C_8  and  N_9 
REMARK       I    between atoms: N_9  and  C_10 
REMARK    5  A    between atoms: C_10  and  C_11 
REMARK    6  A    between atoms: C_15  and  C_16 
ROOT
HETATM    1  N   UNL     1      -5.337   2.778 -32.455  1.00  0.00    -0.347 N 
HETATM    2  C   UNL     1      -6.279   2.685 -33.456  1.00  0.00     0.272 C 
HETATM    3  O   UNL     1      -6.960   3.633 -33.838  1.00  0.00    -0.266 OA
HETATM    4  H   UNL     1      -4.904   1.902 -32.179  1.00  0.00     0.163 HD
ENDROOT
BRANCH   2   5
HETATM    5  C   UNL     1      -6.433   1.332 -34.007  1.00  0.00     0.146 A 
HETATM    6  N   UNL     1      -7.216   1.059 -35.068  1.00  0.00    -0.169 NA
HETATM    7  N   UNL     1      -7.026  -0.257 -35.276  1.00  0.00    -0.277 N 
HETATM    8  H   UNL     1      -7.506  -0.684 -36.060  1.00  0.00     0.189 HD
HETATM    9  C   UNL     1      -6.167  -0.864 -34.394  1.00  0.00     0.063 A 
HETATM   10  C   UNL     1      -5.774   0.162 -33.554  1.00  0.00     0.071 A 
BRANCH   9  11
HETATM   11  C   UNL     1      -5.788  -2.281 -34.434  1.00  0.00    -0.008 A 
HETATM   12  C   UNL     1      -4.482  -2.670 -34.091  1.00  0.00     0.014 A 
HETATM   13  C   UNL     1      -4.095  -4.012 -34.127  1.00  0.00     0.001 A 
HETATM   14  C   UNL     1      -5.006  -4.991 -34.507  1.00  0.00     0.000 A 
HETATM   15  C   UNL     1      -6.305  -4.627 -34.848  1.00  0.00     0.001 A 
HETATM   16  C   UNL     1      -6.695  -3.282 -34.811  1.00  0.00     0.014 A 
ENDBRANCH   9  11
ENDBRANCH   2   5
BRANCH   1  17
HETATM   17  C   UNL     1      -5.257   3.942 -31.600  1.00  0.00     0.114 C 
HETATM   18  C   UNL     1      -5.452   3.547 -30.133  1.00  0.00     0.037 C 
BRANCH  17  19
HETATM   19  C   UNL     1      -3.965   4.704 -31.820  1.00  0.00    -0.036 A 
HETATM   20  C   UNL     1      -3.999   6.103 -31.919  1.00  0.00     0.012 A 
HETATM   21  C   UNL     1      -2.819   6.839 -32.044  1.00  0.00     0.037 A 
HETATM   22  C   UNL     1      -1.585   6.194 -32.064  1.00  0.00     0.068 A 
HETATM   23  C   UNL     1      -1.536   4.801 -32.026  1.00  0.00     0.037 A 
HETATM   24  C   UNL     1      -2.720   4.061 -31.906  1.00  0.00     0.012 A 
BRANCH  22  25
HETATM   25  O   UNL     1      -0.496   7.020 -32.141  1.00  0.00    -0.352 OA
BRANCH  25  26
HETATM   26  C   UNL     1       0.572   6.717 -31.244  1.00  0.00     0.171 C 
HETATM   27  C   UNL     1       0.173   7.204 -29.862  1.00  0.00     0.034 C 
ENDBRANCH  25  26
ENDBRANCH  22  25
ENDBRANCH  17  19
ENDBRANCH   1  17
TORSDOF 6
ENDMDL
MODEL 2
REMARK VINA RESULT:      -8.1      1.298      1.742
REMARK  6 active torsions:
REMARK  status: ('A' for Active; 'I' for Inactive)
REMARK    1  A    between atoms: C_2  and  O_3 
REMARK    2  A    between atoms: O_3  and  C_4 
REMARK    3  A    between atoms: C_7  and  C_8 
REMARK    4  A    between atoms: C_8  and  N_9 
REMARK       I    between atoms: N_9  and  C_10 
REMARK    5  A    between atoms: C_10  and  C_11 
REMARK    6  A    between atoms: C_15  and  C_16 
ROOT
HETATM    1  N   UNL     1      -6.171   3.716 -34.172  1.00  0.00    -0.347 N 
HETATM    2  C   UNL     1      -6.326   2.690 -33.265  1.00  0.00     0.272 C 
HETATM    3  O   UNL     1      -6.348   2.857 -32.048  1.00  0.00    -0.266 OA
HETATM    4  H   UNL     1      -6.086   3.431 -35.143  1.00  0.00     0.163 HD
ENDROOT
BRANCH   2   5
HETATM    5  C   UNL     1      -6.425   1.360 -33.879  1.00  0.00     0.146 A 
HETATM    6  N   UNL     1      -7.106   1.128 -35.017  1.00  0.00    -0.169 NA
HETATM    7  N   UNL     1      -6.894  -0.180 -35.257  1.00  0.00    -0.277 N 
HETATM    8  H   UNL     1      -7.299  -0.577 -36.097  1.00  0.00     0.189 HD
HETATM    9  C   UNL     1      -6.117  -0.820 -34.323  1.00  0.00     0.063 A 
HETATM   10  C   UNL     1      -5.806   0.172 -33.412  1.00  0.00     0.071 A 
BRANCH   9  11
HETATM   11  C   UNL     1      -5.732  -2.235 -34.383  1.00  0.00    -0.008 A 
HETATM   12  C   UNL     1      -6.658  -3.198 -34.816  1.00  0.00     0.014 A 
HETATM   13  C   UNL     1      -6.318  -4.553 -34.877  1.00  0.00     0.001 A 
HETATM   14  C   UNL     1      -5.044  -4.968 -34.507  1.00  0.00     0.000 A 
HETATM   15  C   UNL     1      -4.111  -4.030 -34.077  1.00  0.00     0.001 A 
HETATM   16  C   UNL     1      -4.451  -2.672 -34.017  1.00  0.00     0.014 A 
ENDBRANCH   9  11
ENDBRANCH   2   5
BRANCH   1  17
HETATM   17  C   UNL     1      -5.764   5.038 -33.753  1.00  0.00     0.114 C 
HETATM   18  C   UNL     1      -6.708   5.575 -32.672  1.00  0.00     0.037 C 
BRANCH  17  19
HETATM   19  C   UNL     1      -4.315   5.057 -33.306  1.00  0.00    -0.036 A 
HETATM   20  C   UNL     1      -4.015   5.264 -31.951  1.00  0.00     0.012 A 
HETATM   21  C   UNL     1      -2.696   5.210 -31.496  1.00  0.00     0.037 A 
HETATM   22  C   UNL     1      -1.655   4.941 -32.381  1.00  0.00     0.068 A 
HETATM   23  C   UNL     1      -1.930   4.792 -33.740  1.00  0.00     0.037 A 
HETATM   24  C   UNL     1      -3.252   4.850 -34.199  1.00  0.00     0.012 A 
BRANCH  22  25
HETATM   25  O   UNL     1      -0.412   4.865 -31.813  1.00  0.00    -0.352 OA
BRANCH  25  26
HETATM   26  C   UNL     1      -0.275   5.498 -30.541  1.00  0.00     0.171 C 
HETATM   27  C   UNL     1       0.535   6.767 -30.736  1.00  0.00     0.034 C 
ENDBRANCH  25  26
ENDBRANCH  22  25
ENDBRANCH  17  19
ENDBRANCH   1  17
TORSDOF 6
ENDMDL
MODEL 3
REMARK VINA RESULT:      -7.8      2.359      8.384
REMARK  6 active torsions:
REMARK  status: ('A' for Active; 'I' for Inactive)
REMARK    1  A    between atoms: C_2  and  O_3 
REMARK    2  A    between atoms: O_3  and  C_4 
REMARK    3  A    between atoms: C_7  and  C_8 
REMARK    4  A    between atoms: C_8  and  N_9 
REMARK       I    between atoms: N_9  and  C_10 
REMARK    5  A    between atoms: C_10  and  C_11 
REMARK    6  A    between atoms: C_15  and  C_16 
ROOT
HETATM    1  N   UNL     1      -6.759   2.020 -32.313  1.00  0.00    -0.347 N 
HETATM    2  C   UNL     1      -6.498   2.495 -33.580  1.00  0.00     0.272 C 
HETATM    3  O   UNL     1      -6.982   2.011 -34.600  1.00  0.00    -0.266 OA
HETATM    4  H   UNL     1      -6.229   2.456 -31.565  1.00  0.00     0.163 HD
ENDROOT
BRANCH   2   5
HETATM    5  C   UNL     1      -5.549   3.615 -33.614  1.00  0.00     0.146 A 
HETATM    6  N   UNL     1      -5.773   4.743 -34.316  1.00  0.00    -0.169 NA
HETATM    7  N   UNL     1      -4.709   5.515 -34.030  1.00  0.00    -0.277 N 
HETATM    8  H   UNL     1      -4.677   6.443 -34.435  1.00  0.00     0.189 HD
HETATM    9  C   UNL     1      -3.789   4.943 -33.185  1.00  0.00     0.063 A 
HETATM   10  C   UNL     1      -4.323   3.697 -32.908  1.00  0.00     0.071 A 
BRANCH   9  11
HETATM   11  C   UNL     1      -2.564   5.598 -32.713  1.00  0.00    -0.008 A 
HETATM   12  C   UNL     1      -1.526   4.832 -32.157  1.00  0.00     0.014 A 
HETATM   13  C   UNL     1      -0.351   5.432 -31.695  1.00  0.00     0.001 A 
HETATM   14  C   UNL     1      -0.193   6.811 -31.782  1.00  0.00     0.000 A 
HETATM   15  C   UNL     1      -1.208   7.588 -32.332  1.00  0.00     0.001 A 
HETATM   16  C   UNL     1      -2.385   6.986 -32.796  1.00  0.00     0.014 A 
ENDBRANCH   9  11
ENDBRANCH   2   5
BRANCH   1  17
HETATM   17  C   UNL     1      -7.423   0.752 -32.105  1.00  0.00     0.114 C 
HETATM   18  C   UNL     1      -8.883   0.826 -32.565  1.00  0.00     0.037 C 
BRANCH  17  19
HETATM   19  C   UNL     1      -6.671  -0.384 -32.771  1.00  0.00    -0.036 A 
HETATM   20  C   UNL     1      -7.335  -1.197 -33.701  1.00  0.00     0.012 A 
HETATM   21  C   UNL     1      -6.651  -2.202 -34.388  1.00  0.00     0.037 A 
HETATM   22  C   UNL     1      -5.292  -2.408 -34.166  1.00  0.00     0.068 A 
HETATM   23  C   UNL     1      -4.630  -1.648 -33.202  1.00  0.00     0.037 A 
HETATM   24  C   UNL     1      -5.316  -0.642 -32.508  1.00  0.00     0.012 A 
BRANCH  22  25
HETATM   25  O   UNL     1      -4.717  -3.386 -34.931  1.00  0.00    -0.352 OA
BRANCH  25  26
HETATM   26  C   UNL     1      -4.857  -4.718 -34.435  1.00  0.00     0.171 C 
HETATM   27  C   UNL     1      -3.636  -5.031 -33.588  1.00  0.00     0.034 C 
ENDBRANCH  25  26
ENDBRANCH  22  25
ENDBRANCH  17  19
ENDBRANCH   1  17
TORSDOF 6
ENDMDL
MODEL 4
REMARK VINA RESULT:      -7.7      2.572      4.503
REMARK  6 active torsions:
REMARK  status: ('A' for Active; 'I' for Inactive)
REMARK    1  A    between atoms: C_2  and  O_3 
REMARK    2  A    between atoms: O_3  and  C_4 
REMARK    3  A    between atoms: C_7  and  C_8 
REMARK    4  A    between atoms: C_8  and  N_9 
REMARK       I    between atoms: N_9  and  C_10 
REMARK    5  A    between atoms: C_10  and  C_11 
REMARK    6  A    between atoms: C_15  and  C_16 
ROOT
HETATM    1  N   UNL     1      -2.525   5.680 -32.202  1.00  0.00    -0.347 N 
HETATM    2  C   UNL     1      -2.421   4.412 -31.672  1.00  0.00     0.272 C 
HETATM    3  O   UNL     1      -1.414   3.993 -31.107  1.00  0.00    -0.266 OA
HETATM    4  H   UNL     1      -3.380   5.870 -32.716  1.00  0.00     0.163 HD
ENDROOT
BRANCH   2   5
HETATM    5  C   UNL     1      -3.614   3.580 -31.877  1.00  0.00     0.146 A 
HETATM    6  N   UNL     1      -4.783   3.811 -31.250  1.00  0.00    -0.169 NA
HETATM    7  N   UNL     1      -5.608   2.876 -31.757  1.00  0.00    -0.277 N 
HETATM    8  H   UNL     1      -6.572   2.877 -31.444  1.00  0.00     0.189 HD
HETATM    9  C   UNL     1      -5.032   2.033 -32.676  1.00  0.00     0.063 A 
HETATM   10  C   UNL     1      -3.726   2.477 -32.761  1.00  0.00     0.071 A 
BRANCH   9  11
HETATM   11  C   UNL     1      -5.736   0.954 -33.379  1.00  0.00    -0.008 A 
HETATM   12  C   UNL     1      -6.647   1.260 -34.403  1.00  0.00     0.014 A 
HETATM   13  C   UNL     1      -7.334   0.251 -35.085  1.00  0.00     0.001 A 
HETATM   14  C   UNL     1      -7.122  -1.083 -34.754  1.00  0.00     0.000 A 
HETATM   15  C   UNL     1      -6.222  -1.407 -33.744  1.00  0.00     0.001 A 
HETATM   16  C   UNL     1      -5.532  -0.396 -33.061  1.00  0.00     0.014 A 
ENDBRANCH   9  11
ENDBRANCH   2   5
BRANCH   1  17
HETATM   17  C   UNL     1      -1.365   6.528 -32.361  1.00  0.00     0.114 C 
HETATM   18  C   UNL     1      -1.628   7.609 -33.415  1.00  0.00     0.037 C 
BRANCH  17  19
HETATM   19  C   UNL     1      -0.924   7.118 -31.036  1.00  0.00    -0.036 A 
HETATM   20  C   UNL     1      -1.842   7.853 -30.270  1.00  0.00     0.012 A 
HETATM   21  C   UNL     1      -1.491   8.343 -29.011  1.00  0.00     0.037 A 
HETATM   22  C   UNL     1      -0.222   8.104 -28.490  1.00  0.00     0.068 A 
HETATM   23  C   UNL     1       0.722   7.427 -29.262  1.00  0.00     0.037 A 
HETATM   24  C   UNL     1       0.372   6.938 -30.528  1.00  0.00     0.012 A 
BRANCH  22  25
HETATM   25  O   UNL     1      -0.007   8.590 -27.229  1.00  0.00    -0.352 OA
BRANCH  25  26
HETATM   26  C   UNL     1       0.564   7.668 -26.301  1.00  0.00     0.171 C 
HETATM   27  C   UNL     1       1.952   8.170 -25.939  1.00  0.00     0.034 C 
ENDBRANCH  25  26
ENDBRANCH  22  25
ENDBRANCH  17  19
ENDBRANCH   1  17
TORSDOF 6
ENDMDL
MODEL 5
REMARK VINA RESULT:      -7.6      1.459      2.050
REMARK  6 active torsions:
REMARK  status: ('A' for Active; 'I' for Inactive)
REMARK    1  A    between atoms: C_2  and  O_3 
REMARK    2  A    between atoms: O_3  and  C_4 
REMARK    3  A    between atoms: C_7  and  C_8 
REMARK    4  A    between atoms: C_8  and  N_9 
REMARK       I    between atoms: N_9  and  C_10 
REMARK    5  A    between atoms: C_10  and  C_11 
REMARK    6  A    between atoms: C_15  and  C_16 
ROOT
HETATM    1  N   UNL     1      -5.024   3.540 -32.003  1.00  0.00    -0.347 N 
HETATM    2  C   UNL     1      -5.777   2.993 -33.019  1.00  0.00     0.272 C 
HETATM    3  O   UNL     1      -6.272   3.654 -33.928  1.00  0.00    -0.266 OA
HETATM    4  H   UNL     1      -4.745   2.895 -31.270  1.00  0.00     0.163 HD
ENDROOT
BRANCH   2   5
HETATM    5  C   UNL     1      -5.975   1.542 -32.902  1.00  0.00     0.146 A 
HETATM    6  N   UNL     1      -6.684   0.979 -31.905  1.00  0.00    -0.169 NA
HETATM    7  N   UNL     1      -6.668  -0.334 -32.203  1.00  0.00    -0.277 N 
HETATM    8  H   UNL     1      -7.175  -0.962 -31.591  1.00  0.00     0.189 HD
HETATM    9  C   UNL     1      -5.971  -0.660 -33.340  1.00  0.00     0.063 A 
HETATM   10  C   UNL     1      -5.507   0.556 -33.806  1.00  0.00     0.071 A 
BRANCH   9  11
HETATM   11  C   UNL     1      -5.834  -2.019 -33.876  1.00  0.00    -0.008 A 
HETATM   12  C   UNL     1      -6.952  -2.680 -34.412  1.00  0.00     0.014 A 
HETATM   13  C   UNL     1      -6.849  -3.977 -34.924  1.00  0.00     0.001 A 
HETATM   14  C   UNL     1      -5.625  -4.636 -34.910  1.00  0.00     0.000 A 
HETATM   15  C   UNL     1      -4.505  -3.998 -34.387  1.00  0.00     0.001 A 
HETATM   16  C   UNL     1      -4.607  -2.698 -33.875  1.00  0.00     0.014 A 
ENDBRANCH   9  11
ENDBRANCH   2   5
BRANCH   1  17
HETATM   17  C   UNL     1      -4.973   4.968 -31.787  1.00  0.00     0.114 C 
HETATM   18  C   UNL     1      -6.145   5.423 -30.910  1.00  0.00     0.037 C 
BRANCH  17  19
HETATM   19  C   UNL     1      -3.634   5.396 -31.218  1.00  0.00    -0.036 A 
HETATM   20  C   UNL     1      -2.479   4.677 -31.561  1.00  0.00     0.012 A 
HETATM   21  C   UNL     1      -1.222   5.090 -31.117  1.00  0.00     0.037 A 
HETATM   22  C   UNL     1      -1.093   6.232 -30.329  1.00  0.00     0.068 A 
HETATM   23  C   UNL     1      -2.236   6.923 -29.930  1.00  0.00     0.037 A 
HETATM   24  C   UNL     1      -3.499   6.507 -30.371  1.00  0.00     0.012 A 
BRANCH  22  25
HETATM   25  O   UNL     1       0.190   6.568 -29.994  1.00  0.00    -0.352 OA
BRANCH  25  26
HETATM   26  C   UNL     1       0.455   6.672 -28.595  1.00  0.00     0.171 C 
HETATM   27  C   UNL     1       1.051   8.045 -28.335  1.00  0.00     0.034 C 
ENDBRANCH  25  26
ENDBRANCH  22  25
ENDBRANCH  17  19
ENDBRANCH   1  17
TORSDOF 6
ENDMDL
MODEL 6
REMARK VINA RESULT:      -7.5      2.577      8.904
REMARK  6 active torsions:
REMARK  status: ('A' for Active; 'I' for Inactive)
REMARK    1  A    between atoms: C_2  and  O_3 
REMARK    2  A    between atoms: O_3  and  C_4 
REMARK    3  A    between atoms: C_7  and  C_8 
REMARK    4  A    between atoms: C_8  and  N_9 
REMARK       I    between atoms: N_9  and  C_10 
REMARK    5  A    between atoms: C_10  and  C_11 
REMARK    6  A    between atoms: C_15  and  C_16 
ROOT
HETATM    1  N   UNL     1      -6.437   1.589 -31.951  1.00  0.00    -0.347 N 
HETATM    2  C   UNL     1      -6.013   1.904 -30.678  1.00  0.00     0.272 C 
HETATM    3  O   UNL     1      -6.186   1.175 -29.705  1.00  0.00    -0.266 OA
HETATM    4  H   UNL     1      -6.306   2.315 -32.648  1.00  0.00     0.163 HD
ENDROOT
BRANCH   2   5
HETATM    5  C   UNL     1      -5.365   3.218 -30.574  1.00  0.00     0.146 A 
HETATM    6  N   UNL     1      -5.617   4.080 -29.570  1.00  0.00    -0.169 NA
HETATM    7  N   UNL     1      -4.787   5.110 -29.817  1.00  0.00    -0.277 N 
HETATM    8  H   UNL     1      -4.784   5.882 -29.160  1.00  0.00     0.189 HD
HETATM    9  C   UNL     1      -4.012   4.972 -30.942  1.00  0.00     0.063 A 
HETATM   10  C   UNL     1      -4.382   3.741 -31.451  1.00  0.00     0.071 A 
BRANCH   9  11
HETATM   11  C   UNL     1      -3.019   5.950 -31.401  1.00  0.00    -0.008 A 
HETATM   12  C   UNL     1      -3.285   7.326 -31.289  1.00  0.00     0.014 A 
HETATM   13  C   UNL     1      -2.358   8.279 -31.724  1.00  0.00     0.001 A 
HETATM   14  C   UNL     1      -1.149   7.873 -32.277  1.00  0.00     0.000 A 
HETATM   15  C   UNL     1      -0.866   6.515 -32.394  1.00  0.00     0.001 A 
HETATM   16  C   UNL     1      -1.793   5.560 -31.957  1.00  0.00     0.014 A 
ENDBRANCH   9  11
ENDBRANCH   2   5
BRANCH   1  17
HETATM   17  C   UNL     1      -7.347   0.491 -32.193  1.00  0.00     0.114 C 
HETATM   18  C   UNL     1      -8.653   0.999 -32.812  1.00  0.00     0.037 C 
BRANCH  17  19
HETATM   19  C   UNL     1      -6.699  -0.591 -33.034  1.00  0.00    -0.036 A 
HETATM   20  C   UNL     1      -5.301  -0.712 -33.042  1.00  0.00     0.012 A 
HETATM   21  C   UNL     1      -4.677  -1.745 -33.745  1.00  0.00     0.037 A 
HETATM   22  C   UNL     1      -5.437  -2.680 -34.444  1.00  0.00     0.068 A 
HETATM   23  C   UNL     1      -6.823  -2.540 -34.496  1.00  0.00     0.037 A 
HETATM   24  C   UNL     1      -7.450  -1.501 -33.795  1.00  0.00     0.012 A 
BRANCH  22  25
HETATM   25  O   UNL     1      -4.721  -3.674 -35.054  1.00  0.00    -0.352 OA
BRANCH  25  26
HETATM   26  C   UNL     1      -4.813  -4.963 -34.446  1.00  0.00     0.171 C 
HETATM   27  C   UNL     1      -3.691  -5.080 -33.429  1.00  0.00     0.034 C 
ENDBRANCH  25  26
ENDBRANCH  22  25
ENDBRANCH  17  19
ENDBRANCH   1  17
TORSDOF 6
ENDMDL
MODEL 7
REMARK VINA RESULT:      -7.5      2.459      3.180
REMARK  6 active torsions:
REMARK  status: ('A' for Active; 'I' for Inactive)
REMARK    1  A    between atoms: C_2  and  O_3 
REMARK    2  A    between atoms: O_3  and  C_4 
REMARK    3  A    between atoms: C_7  and  C_8 
REMARK    4  A    between atoms: C_8  and  N_9 
REMARK       I    between atoms: N_9  and  C_10 
REMARK    5  A    between atoms: C_10  and  C_11 
REMARK    6  A    between atoms: C_15  and  C_16 
ROOT
HETATM    1  N   UNL     1      -3.298   3.388 -32.777  1.00  0.00    -0.347 N 
HETATM    2  C   UNL     1      -3.366   2.220 -32.048  1.00  0.00     0.272 C 
HETATM    3  O   UNL     1      -2.712   2.018 -31.028  1.00  0.00    -0.266 OA
HETATM    4  H   UNL     1      -3.825   3.393 -33.644  1.00  0.00     0.163 HD
ENDROOT
BRANCH   2   5
HETATM    5  C   UNL     1      -4.264   1.210 -32.621  1.00  0.00     0.146 A 
HETATM    6  N   UNL     1      -5.508   1.497 -33.051  1.00  0.00    -0.169 NA
HETATM    7  N   UNL     1      -5.953   0.327 -33.546  1.00  0.00    -0.277 N 
HETATM    8  H   UNL     1      -6.879   0.312 -33.959  1.00  0.00     0.189 HD
HETATM    9  C   UNL     1      -5.067  -0.717 -33.449  1.00  0.00     0.063 A 
HETATM   10  C   UNL     1      -3.958  -0.157 -32.842  1.00  0.00     0.071 A 
BRANCH   9  11
HETATM   11  C   UNL     1      -5.318  -2.077 -33.940  1.00  0.00    -0.008 A 
HETATM   12  C   UNL     1      -6.582  -2.418 -34.450  1.00  0.00     0.014 A 
HETATM   13  C   UNL     1      -6.849  -3.708 -34.918  1.00  0.00     0.001 A 
HETATM   14  C   UNL     1      -5.856  -4.681 -34.885  1.00  0.00     0.000 A 
HETATM   15  C   UNL     1      -4.596  -4.362 -34.386  1.00  0.00     0.001 A 
HETATM   16  C   UNL     1      -4.328  -3.070 -33.918  1.00  0.00     0.014 A 
ENDBRANCH   9  11
ENDBRANCH   2   5
BRANCH   1  17
HETATM   17  C   UNL     1      -2.260   4.366 -32.540  1.00  0.00     0.114 C 
HETATM   18  C   UNL     1      -1.836   5.032 -33.853  1.00  0.00     0.037 C 
BRANCH  17  19
HETATM   19  C   UNL     1      -2.681   5.380 -31.494  1.00  0.00    -0.036 A 
HETATM   20  C   UNL     1      -4.047   5.615 -31.276  1.00  0.00     0.012 A 
HETATM   21  C   UNL     1      -4.469   6.485 -30.268  1.00  0.00     0.037 A 
HETATM   22  C   UNL     1      -3.538   7.129 -29.457  1.00  0.00     0.068 A 
HETATM   23  C   UNL     1      -2.177   6.952 -29.700  1.00  0.00     0.037 A 
HETATM   24  C   UNL     1      -1.751   6.083 -30.713  1.00  0.00     0.012 A 
BRANCH  22  25
HETATM   25  O   UNL     1      -4.069   7.918 -28.473  1.00  0.00    -0.352 OA
BRANCH  25  26
HETATM   26  C   UNL     1      -3.167   8.296 -27.432  1.00  0.00     0.171 C 
HETATM   27  C   UNL     1      -3.430   7.395 -26.238  1.00  0.00     0.034 C 
ENDBRANCH  25  26
ENDBRANCH  22  25
ENDBRANCH  17  19
ENDBRANCH   1  17
TORSDOF 6
ENDMDL
MODEL 8
REMARK VINA RESULT:      -7.4      1.588      1.833
REMARK  6 active torsions:
REMARK  status: ('A' for Active; 'I' for Inactive)
REMARK    1  A    between atoms: C_2  and  O_3 
REMARK    2  A    between atoms: O_3  and  C_4 
REMARK    3  A    between atoms: C_7  and  C_8 
REMARK    4  A    between atoms: C_8  and  N_9 
REMARK       I    between atoms: N_9  and  C_10 
REMARK    5  A    between atoms: C_10  and  C_11 
REMARK    6  A    between atoms: C_15  and  C_16 
ROOT
HETATM    1  N   UNL     1      -5.665   3.375 -33.758  1.00  0.00    -0.347 N 
HETATM    2  C   UNL     1      -5.979   2.840 -32.527  1.00  0.00     0.272 C 
HETATM    3  O   UNL     1      -6.249   3.520 -31.540  1.00  0.00    -0.266 OA
HETATM    4  H   UNL     1      -5.380   2.705 -34.465  1.00  0.00     0.163 HD
ENDROOT
BRANCH   2   5
HETATM    5  C   UNL     1      -5.923   1.373 -32.482  1.00  0.00     0.146 A 
HETATM    6  N   UNL     1      -6.057   0.671 -31.340  1.00  0.00    -0.169 NA
HETATM    7  N   UNL     1      -6.007  -0.612 -31.745  1.00  0.00    -0.277 N 
HETATM    8  H   UNL     1      -6.118  -1.333 -31.043  1.00  0.00     0.189 HD
HETATM    9  C   UNL     1      -5.832  -0.785 -33.097  1.00  0.00     0.063 A 
HETATM   10  C   UNL     1      -5.771   0.505 -33.592  1.00  0.00     0.071 A 
BRANCH   9  11
HETATM   11  C   UNL     1      -5.771  -2.086 -33.773  1.00  0.00    -0.008 A 
HETATM   12  C   UNL     1      -4.550  -2.776 -33.860  1.00  0.00     0.014 A 
HETATM   13  C   UNL     1      -4.463  -4.014 -34.504  1.00  0.00     0.001 A 
HETATM   14  C   UNL     1      -5.596  -4.585 -35.072  1.00  0.00     0.000 A 
HETATM   15  C   UNL     1      -6.816  -3.919 -34.994  1.00  0.00     0.001 A 
HETATM   16  C   UNL     1      -6.904  -2.679 -34.348  1.00  0.00     0.014 A 
ENDBRANCH   9  11
ENDBRANCH   2   5
BRANCH   1  17
HETATM   17  C   UNL     1      -5.379   4.783 -33.917  1.00  0.00     0.114 C 
HETATM   18  C   UNL     1      -6.567   5.631 -33.451  1.00  0.00     0.037 C 
BRANCH  17  19
HETATM   19  C   UNL     1      -4.091   5.170 -33.216  1.00  0.00    -0.036 A 
HETATM   20  C   UNL     1      -4.105   6.213 -32.278  1.00  0.00     0.012 A 
HETATM   21  C   UNL     1      -2.954   6.543 -31.560  1.00  0.00     0.037 A 
HETATM   22  C   UNL     1      -1.772   5.833 -31.758  1.00  0.00     0.068 A 
HETATM   23  C   UNL     1      -1.726   4.833 -32.728  1.00  0.00     0.037 A 
HETATM   24  C   UNL     1      -2.879   4.504 -33.453  1.00  0.00     0.012 A 
BRANCH  22  25
HETATM   25  O   UNL     1      -0.724   6.212 -30.964  1.00  0.00    -0.352 OA
BRANCH  25  26
HETATM   26  C   UNL     1       0.451   5.407 -31.067  1.00  0.00     0.171 C 
HETATM   27  C   UNL     1       0.776   4.878 -29.681  1.00  0.00     0.034 C 
ENDBRANCH  25  26
ENDBRANCH  22  25
ENDBRANCH  17  19
ENDBRANCH   1  17
TORSDOF 6
ENDMDL
MODEL 9
REMARK VINA RESULT:      -7.3      2.223      8.905
REMARK  6 active torsions:
REMARK  status: ('A' for Active; 'I' for Inactive)
REMARK    1  A    between atoms: C_2  and  O_3 
REMARK    2  A    between atoms: O_3  and  C_4 
REMARK    3  A    between atoms: C_7  and  C_8 
REMARK    4  A    between atoms: C_8  and  N_9 
REMARK       I    between atoms: N_9  and  C_10 
REMARK    5  A    between atoms: C_10  and  C_11 
REMARK    6  A    between atoms: C_15  and  C_16 
ROOT
HETATM    1  N   UNL     1      -5.526   1.936 -31.487  1.00  0.00    -0.347 N 
HETATM    2  C   UNL     1      -5.276   2.781 -32.547  1.00  0.00     0.272 C 
HETATM    3  O   UNL     1      -6.023   2.895 -33.515  1.00  0.00    -0.266 OA
HETATM    4  H   UNL     1      -4.787   1.875 -30.793  1.00  0.00     0.163 HD
ENDROOT
BRANCH   2   5
HETATM    5  C   UNL     1      -4.007   3.512 -32.441  1.00  0.00     0.146 A 
HETATM    6  N   UNL     1      -3.094   3.540 -33.431  1.00  0.00    -0.169 NA
HETATM    7  N   UNL     1      -2.132   4.353 -32.957  1.00  0.00    -0.277 N 
HETATM    8  H   UNL     1      -1.339   4.547 -33.558  1.00  0.00     0.189 HD
HETATM    9  C   UNL     1      -2.363   4.850 -31.697  1.00  0.00     0.063 A 
HETATM   10  C   UNL     1      -3.584   4.304 -31.344  1.00  0.00     0.071 A 
BRANCH   9  11
HETATM   11  C   UNL     1      -1.472   5.771 -30.984  1.00  0.00    -0.008 A 
HETATM   12  C   UNL     1      -0.129   5.897 -31.378  1.00  0.00     0.014 A 
HETATM   13  C   UNL     1       0.742   6.764 -30.712  1.00  0.00     0.001 A 
HETATM   14  C   UNL     1       0.286   7.521 -29.638  1.00  0.00     0.000 A 
HETATM   15  C   UNL     1      -1.041   7.413 -29.234  1.00  0.00     0.001 A 
HETATM   16  C   UNL     1      -1.915   6.546 -29.902  1.00  0.00     0.014 A 
ENDBRANCH   9  11
ENDBRANCH   2   5
BRANCH   1  17
HETATM   17  C   UNL     1      -6.560   0.928 -31.554  1.00  0.00     0.114 C 
HETATM   18  C   UNL     1      -7.938   1.579 -31.717  1.00  0.00     0.037 C 
BRANCH  17  19
HETATM   19  C   UNL     1      -6.275  -0.087 -32.643  1.00  0.00    -0.036 A 
HETATM   20  C   UNL     1      -5.009  -0.689 -32.710  1.00  0.00     0.012 A 
HETATM   21  C   UNL     1      -4.740  -1.683 -33.652  1.00  0.00     0.037 A 
HETATM   22  C   UNL     1      -5.729  -2.101 -34.539  1.00  0.00     0.068 A 
HETATM   23  C   UNL     1      -6.973  -1.471 -34.526  1.00  0.00     0.037 A 
HETATM   24  C   UNL     1      -7.244  -0.470 -33.584  1.00  0.00     0.012 A 
BRANCH  22  25
HETATM   25  O   UNL     1      -5.366  -3.114 -35.384  1.00  0.00    -0.352 OA
BRANCH  25  26
HETATM   26  C   UNL     1      -5.875  -4.406 -35.054  1.00  0.00     0.171 C 
HETATM   27  C   UNL     1      -4.776  -5.172 -34.339  1.00  0.00     0.034 C 
ENDBRANCH  25  26
ENDBRANCH  22  25
ENDBRANCH  17  19
ENDBRANCH   1  17
TORSDOF 6
ENDMDL
MODEL 10
REMARK VINA RESULT:      -7.1     16.294     18.474
REMARK  6 active torsions:
REMARK  status: ('A' for Active; 'I' for Inactive)
REMARK    1  A    between atoms: C_2  and  O_3 
REMARK    2  A    between atoms: O_3  and  C_4 
REMARK    3  A    between atoms: C_7  and  C_8 
REMARK    4  A    between atoms: C_8  and  N_9 
REMARK       I    between atoms: N_9  and  C_10 
REMARK    5  A    between atoms: C_10  and  C_11 
REMARK    6  A    between atoms: C_15  and  C_16 
ROOT
HETATM    1  N   UNL     1      -2.704 -13.666 -39.421  1.00  0.00    -0.347 N 
HETATM    2  C   UNL     1      -3.052 -13.981 -40.717  1.00  0.00     0.272 C 
HETATM    3  O   UNL     1      -2.250 -14.010 -41.647  1.00  0.00    -0.266 OA
HETATM    4  H   UNL     1      -3.477 -13.596 -38.767  1.00  0.00     0.163 HD
ENDROOT
BRANCH   2   5
HETATM    5  C   UNL     1      -4.485 -14.242 -40.904  1.00  0.00     0.146 A 
HETATM    6  N   UNL     1      -4.955 -15.369 -41.473  1.00  0.00    -0.169 NA
HETATM    7  N   UNL     1      -6.292 -15.234 -41.395  1.00  0.00    -0.277 N 
HETATM    8  H   UNL     1      -6.864 -15.993 -41.745  1.00  0.00     0.189 HD
HETATM    9  C   UNL     1      -6.722 -14.066 -40.814  1.00  0.00     0.063 A 
HETATM   10  C   UNL     1      -5.551 -13.404 -40.492  1.00  0.00     0.071 A 
BRANCH   9  11
HETATM   11  C   UNL     1      -8.128 -13.707 -40.598  1.00  0.00    -0.008 A 
HETATM   12  C   UNL     1      -8.480 -12.374 -40.326  1.00  0.00     0.014 A 
HETATM   13  C   UNL     1      -9.811 -12.006 -40.112  1.00  0.00     0.001 A 
HETATM   14  C   UNL     1     -10.816 -12.966 -40.165  1.00  0.00     0.000 A 
HETATM   15  C   UNL     1     -10.489 -14.291 -40.435  1.00  0.00     0.001 A 
HETATM   16  C   UNL     1      -9.155 -14.660 -40.652  1.00  0.00     0.014 A 
ENDBRANCH   9  11
ENDBRANCH   2   5
BRANCH   1  17
HETATM   17  C   UNL     1      -1.414 -13.096 -39.104  1.00  0.00     0.114 C 
HETATM   18  C   UNL     1      -1.577 -11.849 -38.227  1.00  0.00     0.037 C 
BRANCH  17  19
HETATM   19  C   UNL     1      -0.494 -14.122 -38.474  1.00  0.00    -0.036 A 
HETATM   20  C   UNL     1       0.826 -14.238 -38.935  1.00  0.00     0.012 A 
HETATM   21  C   UNL     1       1.721 -15.119 -38.325  1.00  0.00     0.037 A 
HETATM   22  C   UNL     1       1.319 -15.892 -37.239  1.00  0.00     0.068 A 
HETATM   23  C   UNL     1      -0.005 -15.833 -36.806  1.00  0.00     0.037 A 
HETATM   24  C   UNL     1      -0.906 -14.953 -37.421  1.00  0.00     0.012 A 
BRANCH  22  25
HETATM   25  O   UNL     1       2.294 -16.682 -36.692  1.00  0.00    -0.352 OA
BRANCH  25  26
HETATM   26  C   UNL     1       2.017 -17.188 -35.386  1.00  0.00     0.171 C 
HETATM   27  C   UNL     1       2.866 -16.411 -34.395  1.00  0.00     0.034 C 
ENDBRANCH  25  26
ENDBRANCH  22  25
ENDBRANCH  17  19
ENDBRANCH   1  17
TORSDOF 6
ENDMDL
