MODEL 1
REMARK VINA RESULT:      -9.2      0.000      0.000
REMARK  7 active torsions:
REMARK  status: ('A' for Active; 'I' for Inactive)
REMARK    1  A    between atoms: O_2  and  C_3 
REMARK    2  A    between atoms: C_6  and  C_7 
REMARK       I    between atoms: C_7  and  N_8 
REMARK    3  A    between atoms: N_8  and  C_9 
REMARK    4  A    between atoms: C_9  and  N_10 
REMARK    5  A    between atoms: N_10  and  C_11 
REMARK    6  A    between atoms: C_14  and  N_15 
REMARK       I    between atoms: N_18  and  C_19 
REMARK    7  A    between atoms: C_19  and  C_20 
ROOT
HETATM    1  C   UNL     1      -4.828   6.047 -29.617  1.00  0.00     0.034 C 
HETATM    2  C   UNL     1      -5.314   4.857 -29.082  1.00  0.00     0.032 C 
HETATM    3  C   UNL     1      -5.765   3.838 -29.927  1.00  0.00     0.031 C 
HETATM    4  C   UNL     1      -5.749   3.972 -31.324  1.00  0.00     0.030 C 
HETATM    5  C   UNL     1      -5.434   5.247 -31.822  1.00  0.00     0.031 C 
HETATM    6  C   UNL     1      -4.989   6.285 -30.980  1.00  0.00     0.032 C 
ENDROOT
BRANCH   1   7
HETATM    7  N   UNL     1      -4.067   6.954 -28.823  1.00  0.00    -0.333 N 
HETATM    8  H   UNL     1      -4.629   7.606 -28.293  1.00  0.00     0.168 HD
BRANCH   7   9
HETATM    9  C   UNL     1      -2.894   7.517 -29.289  1.00  0.00     0.179 C 
HETATM   10  S   UNL     1      -2.650   9.065 -29.905  1.00  0.00    -0.040 SA
BRANCH   9  11
HETATM   11  N   UNL     1      -1.727   6.773 -29.191  1.00  0.00    -0.299 N 
HETATM   12  C   UNL     1      -0.866   5.935 -29.890  1.00  0.00     0.257 C 
HETATM   13  O   UNL     1       0.110   5.466 -29.303  1.00  0.00    -0.267 OA
HETATM   14  H   UNL     1      -1.315   6.929 -28.276  1.00  0.00     0.171 HD
BRANCH  12  15
HETATM   15  C   UNL     1      -1.000   5.644 -31.319  1.00  0.00     0.032 A 
HETATM   16  C   UNL     1      -1.756   4.514 -31.663  1.00  0.00     0.020 A 
HETATM   17  C   UNL     1      -2.216   4.350 -32.969  1.00  0.00     0.038 A 
HETATM   18  C   UNL     1      -1.937   5.327 -33.923  1.00  0.00     0.068 A 
HETATM   19  C   UNL     1      -1.132   6.423 -33.595  1.00  0.00     0.038 A 
HETATM   20  C   UNL     1      -0.685   6.603 -32.282  1.00  0.00     0.020 A 
BRANCH  18  21
HETATM   21  O   UNL     1      -2.424   5.284 -35.201  1.00  0.00    -0.356 OA
HETATM   22  C   UNL     1      -3.852   5.211 -35.248  1.00  0.00     0.210 C 
ENDBRANCH  18  21
ENDBRANCH  12  15
ENDBRANCH   9  11
ENDBRANCH   7   9
ENDBRANCH   1   7
BRANCH   4  23
HETATM   23  N   UNL     1      -5.890   2.882 -32.174  1.00  0.00    -0.378 N 
HETATM   24  C   UNL     1      -4.927   1.766 -32.155  1.00  0.00     0.143 C 
HETATM   25  C   UNL     1      -5.605   0.447 -32.610  1.00  0.00     0.146 C 
HETATM   26  N   UNL     1      -6.413   0.583 -33.834  1.00  0.00    -0.345 N 
HETATM   27  C   UNL     1      -6.676  -0.422 -34.762  1.00  0.00     0.253 C 
HETATM   28  C   UNL     1      -7.276   1.765 -33.882  1.00  0.00     0.146 C 
HETATM   29  O   UNL     1      -7.346  -0.235 -35.778  1.00  0.00    -0.267 OA
HETATM   30  C   UNL     1      -6.558   3.058 -33.478  1.00  0.00     0.143 C 
BRANCH  27  31
HETATM   31  C   UNL     1      -6.150  -1.790 -34.560  1.00  0.00     0.032 A 
HETATM   32  C   UNL     1      -6.979  -2.911 -34.670  1.00  0.00     0.017 A 
HETATM   33  C   UNL     1      -6.429  -4.191 -34.569  1.00  0.00     0.001 A 
HETATM   34  C   UNL     1      -5.055  -4.350 -34.384  1.00  0.00     0.000 A 
HETATM   35  C   UNL     1      -4.223  -3.232 -34.306  1.00  0.00     0.001 A 
HETATM   36  C   UNL     1      -4.768  -1.951 -34.400  1.00  0.00     0.017 A 
ENDBRANCH  27  31
ENDBRANCH   4  23
TORSDOF 7
ENDMDL
MODEL 2
REMARK VINA RESULT:      -8.9      2.822      9.010
REMARK  7 active torsions:
REMARK  status: ('A' for Active; 'I' for Inactive)
REMARK    1  A    between atoms: O_2  and  C_3 
REMARK    2  A    between atoms: C_6  and  C_7 
REMARK       I    between atoms: C_7  and  N_8 
REMARK    3  A    between atoms: N_8  and  C_9 
REMARK    4  A    between atoms: C_9  and  N_10 
REMARK    5  A    between atoms: N_10  and  C_11 
REMARK    6  A    between atoms: C_14  and  N_15 
REMARK       I    between atoms: N_18  and  C_19 
REMARK    7  A    between atoms: C_19  and  C_20 
ROOT
HETATM    1  C   UNL     1      -7.809   4.240 -33.422  1.00  0.00     0.034 C 
HETATM    2  C   UNL     1      -6.751   3.400 -33.755  1.00  0.00     0.032 C 
HETATM    3  C   UNL     1      -5.438   3.759 -33.434  1.00  0.00     0.031 C 
HETATM    4  C   UNL     1      -5.139   4.961 -32.776  1.00  0.00     0.030 C 
HETATM    5  C   UNL     1      -6.201   5.868 -32.625  1.00  0.00     0.031 C 
HETATM    6  C   UNL     1      -7.525   5.522 -32.956  1.00  0.00     0.032 C 
ENDROOT
BRANCH   1   7
HETATM    7  N   UNL     1      -9.154   3.769 -33.431  1.00  0.00    -0.333 N 
HETATM    8  H   UNL     1      -9.803   4.389 -33.898  1.00  0.00     0.168 HD
BRANCH   7   9
HETATM    9  C   UNL     1      -9.711   3.144 -32.332  1.00  0.00     0.179 C 
HETATM   10  S   UNL     1     -10.095   3.811 -30.833  1.00  0.00    -0.040 SA
BRANCH   9  11
HETATM   11  N   UNL     1     -10.083   1.813 -32.453  1.00  0.00    -0.299 N 
HETATM   12  C   UNL     1      -9.623   0.542 -32.773  1.00  0.00     0.257 C 
HETATM   13  O   UNL     1     -10.418  -0.399 -32.756  1.00  0.00    -0.267 OA
HETATM   14  H   UNL     1     -11.049   1.715 -32.155  1.00  0.00     0.171 HD
BRANCH  12  15
HETATM   15  C   UNL     1      -8.218   0.232 -33.045  1.00  0.00     0.032 A 
HETATM   16  C   UNL     1      -7.359   0.181 -31.937  1.00  0.00     0.020 A 
HETATM   17  C   UNL     1      -6.108  -0.425 -32.046  1.00  0.00     0.038 A 
HETATM   18  C   UNL     1      -5.727  -0.998 -33.258  1.00  0.00     0.068 A 
HETATM   19  C   UNL     1      -6.558  -0.894 -34.379  1.00  0.00     0.038 A 
HETATM   20  C   UNL     1      -7.822  -0.305 -34.270  1.00  0.00     0.020 A 
BRANCH  18  21
HETATM   21  O   UNL     1      -4.556  -1.687 -33.424  1.00  0.00    -0.356 OA
HETATM   22  C   UNL     1      -4.666  -2.744 -34.381  1.00  0.00     0.210 C 
ENDBRANCH  18  21
ENDBRANCH  12  15
ENDBRANCH   9  11
ENDBRANCH   7   9
ENDBRANCH   1   7
BRANCH   4  23
HETATM   23  N   UNL     1      -3.907   5.190 -32.175  1.00  0.00    -0.378 N 
HETATM   24  C   UNL     1      -3.644   6.422 -31.412  1.00  0.00     0.143 C 
HETATM   25  C   UNL     1      -2.572   6.173 -30.317  1.00  0.00     0.146 C 
HETATM   26  N   UNL     1      -1.385   5.446 -30.799  1.00  0.00    -0.345 N 
HETATM   27  C   UNL     1      -0.096   5.540 -30.280  1.00  0.00     0.253 C 
HETATM   28  C   UNL     1      -1.668   4.292 -31.656  1.00  0.00     0.146 C 
HETATM   29  O   UNL     1       0.858   4.916 -30.745  1.00  0.00    -0.267 OA
HETATM   30  C   UNL     1      -2.690   4.591 -32.759  1.00  0.00     0.143 C 
BRANCH  27  31
HETATM   31  C   UNL     1       0.186   6.412 -29.119  1.00  0.00     0.032 A 
HETATM   32  C   UNL     1      -0.008   5.963 -27.809  1.00  0.00     0.017 A 
HETATM   33  C   UNL     1       0.361   6.777 -26.736  1.00  0.00     0.001 A 
HETATM   34  C   UNL     1       0.943   8.024 -26.972  1.00  0.00     0.000 A 
HETATM   35  C   UNL     1       1.166   8.459 -28.278  1.00  0.00     0.001 A 
HETATM   36  C   UNL     1       0.794   7.651 -29.354  1.00  0.00     0.017 A 
ENDBRANCH  27  31
ENDBRANCH   4  23
TORSDOF 7
ENDMDL
MODEL 3
REMARK VINA RESULT:      -8.9      1.842      2.617
REMARK  7 active torsions:
REMARK  status: ('A' for Active; 'I' for Inactive)
REMARK    1  A    between atoms: O_2  and  C_3 
REMARK    2  A    between atoms: C_6  and  C_7 
REMARK       I    between atoms: C_7  and  N_8 
REMARK    3  A    between atoms: N_8  and  C_9 
REMARK    4  A    between atoms: C_9  and  N_10 
REMARK    5  A    between atoms: N_10  and  C_11 
REMARK    6  A    between atoms: C_14  and  N_15 
REMARK       I    between atoms: N_18  and  C_19 
REMARK    7  A    between atoms: C_19  and  C_20 
ROOT
HETATM    1  C   UNL     1      -3.390   8.030 -30.441  1.00  0.00     0.034 C 
HETATM    2  C   UNL     1      -3.825   7.286 -29.348  1.00  0.00     0.032 C 
HETATM    3  C   UNL     1      -4.510   6.082 -29.544  1.00  0.00     0.031 C 
HETATM    4  C   UNL     1      -4.782   5.585 -30.827  1.00  0.00     0.030 C 
HETATM    5  C   UNL     1      -4.501   6.447 -31.900  1.00  0.00     0.031 C 
HETATM    6  C   UNL     1      -3.823   7.667 -31.714  1.00  0.00     0.032 C 
ENDROOT
BRANCH   1   7
HETATM    7  N   UNL     1      -2.422   9.066 -30.288  1.00  0.00    -0.333 N 
HETATM    8  H   UNL     1      -1.744   9.106 -31.035  1.00  0.00     0.168 HD
BRANCH   7   9
HETATM    9  C   UNL     1      -1.877   9.371 -29.055  1.00  0.00     0.179 C 
HETATM   10  S   UNL     1      -2.494  10.388 -27.863  1.00  0.00    -0.040 SA
BRANCH   9  11
HETATM   11  N   UNL     1      -0.707   8.728 -28.679  1.00  0.00    -0.299 N 
HETATM   12  C   UNL     1       0.135   7.663 -28.973  1.00  0.00     0.257 C 
HETATM   13  O   UNL     1       1.128   7.479 -28.267  1.00  0.00    -0.267 OA
HETATM   14  H   UNL     1      -0.270   9.256 -27.930  1.00  0.00     0.171 HD
BRANCH  12  15
HETATM   15  C   UNL     1      -0.037   6.790 -30.136  1.00  0.00     0.032 A 
HETATM   16  C   UNL     1      -0.671   5.559 -29.910  1.00  0.00     0.020 A 
HETATM   17  C   UNL     1      -1.176   4.824 -30.982  1.00  0.00     0.038 A 
HETATM   18  C   UNL     1      -1.065   5.331 -32.276  1.00  0.00     0.068 A 
HETATM   19  C   UNL     1      -0.380   6.529 -32.506  1.00  0.00     0.038 A 
HETATM   20  C   UNL     1       0.111   7.280 -31.433  1.00  0.00     0.020 A 
BRANCH  18  21
HETATM   21  O   UNL     1      -1.610   4.715 -33.369  1.00  0.00    -0.356 OA
HETATM   22  C   UNL     1      -1.476   5.489 -34.565  1.00  0.00     0.210 C 
ENDBRANCH  18  21
ENDBRANCH  12  15
ENDBRANCH   9  11
ENDBRANCH   7   9
ENDBRANCH   1   7
BRANCH   4  23
HETATM   23  N   UNL     1      -5.169   4.268 -31.044  1.00  0.00    -0.378 N 
HETATM   24  C   UNL     1      -5.378   3.746 -32.406  1.00  0.00     0.143 C 
HETATM   25  C   UNL     1      -5.113   2.218 -32.456  1.00  0.00     0.146 C 
HETATM   26  N   UNL     1      -5.760   1.464 -31.368  1.00  0.00    -0.345 N 
HETATM   27  C   UNL     1      -6.171   0.134 -31.420  1.00  0.00     0.253 C 
HETATM   28  C   UNL     1      -5.641   2.065 -30.038  1.00  0.00     0.146 C 
HETATM   29  O   UNL     1      -6.726  -0.431 -30.478  1.00  0.00    -0.267 OA
HETATM   30  C   UNL     1      -5.963   3.564 -30.018  1.00  0.00     0.143 C 
BRANCH  27  31
HETATM   31  C   UNL     1      -5.949  -0.675 -32.639  1.00  0.00     0.032 A 
HETATM   32  C   UNL     1      -4.733  -1.326 -32.868  1.00  0.00     0.017 A 
HETATM   33  C   UNL     1      -4.592  -2.160 -33.979  1.00  0.00     0.001 A 
HETATM   34  C   UNL     1      -5.669  -2.361 -34.843  1.00  0.00     0.000 A 
HETATM   35  C   UNL     1      -6.893  -1.738 -34.598  1.00  0.00     0.001 A 
HETATM   36  C   UNL     1      -7.036  -0.899 -33.492  1.00  0.00     0.017 A 
ENDBRANCH  27  31
ENDBRANCH   4  23
TORSDOF 7
ENDMDL
MODEL 4
REMARK VINA RESULT:      -8.7      4.514      9.148
REMARK  7 active torsions:
REMARK  status: ('A' for Active; 'I' for Inactive)
REMARK    1  A    between atoms: O_2  and  C_3 
REMARK    2  A    between atoms: C_6  and  C_7 
REMARK       I    between atoms: C_7  and  N_8 
REMARK    3  A    between atoms: N_8  and  C_9 
REMARK    4  A    between atoms: C_9  and  N_10 
REMARK    5  A    between atoms: N_10  and  C_11 
REMARK    6  A    between atoms: C_14  and  N_15 
REMARK       I    between atoms: N_18  and  C_19 
REMARK    7  A    between atoms: C_19  and  C_20 
ROOT
HETATM    1  C   UNL     1     -11.649   4.074 -31.227  1.00  0.00     0.034 C 
HETATM    2  C   UNL     1     -11.440   5.223 -31.984  1.00  0.00     0.032 C 
HETATM    3  C   UNL     1     -10.140   5.682 -32.224  1.00  0.00     0.031 C 
HETATM    4  C   UNL     1      -9.015   5.014 -31.719  1.00  0.00     0.030 C 
HETATM    5  C   UNL     1      -9.265   3.975 -30.807  1.00  0.00     0.031 C 
HETATM    6  C   UNL     1     -10.570   3.513 -30.549  1.00  0.00     0.032 C 
ENDROOT
BRANCH   1   7
HETATM    7  N   UNL     1     -12.907   3.403 -31.240  1.00  0.00    -0.333 N 
HETATM    8  H   UNL     1     -12.844   2.410 -31.062  1.00  0.00     0.168 HD
BRANCH   7   9
HETATM    9  C   UNL     1     -13.887   3.719 -32.162  1.00  0.00     0.179 C 
HETATM   10  S   UNL     1     -14.821   5.118 -32.257  1.00  0.00    -0.040 SA
BRANCH   9  11
HETATM   11  N   UNL     1     -14.119   2.830 -33.201  1.00  0.00    -0.299 N 
HETATM   12  C   UNL     1     -13.503   2.001 -34.131  1.00  0.00     0.257 C 
HETATM   13  O   UNL     1     -14.206   1.380 -34.929  1.00  0.00    -0.267 OA
HETATM   14  H   UNL     1     -15.121   2.696 -33.299  1.00  0.00     0.171 HD
BRANCH  12  15
HETATM   15  C   UNL     1     -12.061   1.749 -34.162  1.00  0.00     0.032 A 
HETATM   16  C   UNL     1     -11.257   2.761 -34.706  1.00  0.00     0.020 A 
HETATM   17  C   UNL     1      -9.882   2.763 -34.476  1.00  0.00     0.038 A 
HETATM   18  C   UNL     1      -9.316   1.765 -33.684  1.00  0.00     0.068 A 
HETATM   19  C   UNL     1     -10.109   0.723 -33.192  1.00  0.00     0.038 A 
HETATM   20  C   UNL     1     -11.492   0.726 -33.403  1.00  0.00     0.020 A 
BRANCH  18  21
HETATM   21  O   UNL     1      -7.993   1.745 -33.339  1.00  0.00    -0.356 OA
HETATM   22  C   UNL     1      -7.723   0.891 -32.224  1.00  0.00     0.210 C 
ENDBRANCH  18  21
ENDBRANCH  12  15
ENDBRANCH   9  11
ENDBRANCH   7   9
ENDBRANCH   1   7
BRANCH   4  23
HETATM   23  N   UNL     1      -7.733   5.260 -32.196  1.00  0.00    -0.378 N 
HETATM   24  C   UNL     1      -6.755   6.028 -31.405  1.00  0.00     0.143 C 
HETATM   25  C   UNL     1      -5.305   5.600 -31.755  1.00  0.00     0.146 C 
HETATM   26  N   UNL     1      -5.042   5.514 -33.203  1.00  0.00    -0.345 N 
HETATM   27  C   UNL     1      -3.810   5.697 -33.827  1.00  0.00     0.253 C 
HETATM   28  C   UNL     1      -6.086   4.850 -33.987  1.00  0.00     0.146 C 
HETATM   29  O   UNL     1      -3.664   5.630 -35.047  1.00  0.00    -0.267 OA
HETATM   30  C   UNL     1      -7.500   5.337 -33.651  1.00  0.00     0.143 C 
BRANCH  27  31
HETATM   31  C   UNL     1      -2.598   5.983 -33.029  1.00  0.00     0.032 A 
HETATM   32  C   UNL     1      -1.759   4.955 -32.587  1.00  0.00     0.017 A 
HETATM   33  C   UNL     1      -0.572   5.267 -31.921  1.00  0.00     0.001 A 
HETATM   34  C   UNL     1      -0.213   6.601 -31.720  1.00  0.00     0.000 A 
HETATM   35  C   UNL     1      -1.034   7.627 -32.189  1.00  0.00     0.001 A 
HETATM   36  C   UNL     1      -2.223   7.320 -32.850  1.00  0.00     0.017 A 
ENDBRANCH  27  31
ENDBRANCH   4  23
TORSDOF 7
ENDMDL
MODEL 5
REMARK VINA RESULT:      -8.6      3.563      9.119
REMARK  7 active torsions:
REMARK  status: ('A' for Active; 'I' for Inactive)
REMARK    1  A    between atoms: O_2  and  C_3 
REMARK    2  A    between atoms: C_6  and  C_7 
REMARK       I    between atoms: C_7  and  N_8 
REMARK    3  A    between atoms: N_8  and  C_9 
REMARK    4  A    between atoms: C_9  and  N_10 
REMARK    5  A    between atoms: N_10  and  C_11 
REMARK    6  A    between atoms: C_14  and  N_15 
REMARK       I    between atoms: N_18  and  C_19 
REMARK    7  A    between atoms: C_19  and  C_20 
ROOT
HETATM    1  C   UNL     1      -9.436   3.511 -32.213  1.00  0.00     0.034 C 
HETATM    2  C   UNL     1      -8.874   3.583 -30.942  1.00  0.00     0.032 C 
HETATM    3  C   UNL     1      -7.599   4.129 -30.765  1.00  0.00     0.031 C 
HETATM    4  C   UNL     1      -6.846   4.617 -31.844  1.00  0.00     0.030 C 
HETATM    5  C   UNL     1      -7.358   4.358 -33.126  1.00  0.00     0.031 C 
HETATM    6  C   UNL     1      -8.636   3.798 -33.317  1.00  0.00     0.032 C 
ENDROOT
BRANCH   1   7
HETATM    7  N   UNL     1     -10.831   3.276 -32.389  1.00  0.00    -0.333 N 
HETATM    8  H   UNL     1     -11.347   3.205 -31.523  1.00  0.00     0.168 HD
BRANCH   7   9
HETATM    9  C   UNL     1     -11.304   2.417 -33.363  1.00  0.00     0.179 C 
HETATM   10  S   UNL     1     -11.832   2.789 -34.919  1.00  0.00    -0.040 SA
BRANCH   9  11
HETATM   11  N   UNL     1     -11.296   1.056 -33.096  1.00  0.00    -0.299 N 
HETATM   12  C   UNL     1     -10.477  -0.058 -32.957  1.00  0.00     0.257 C 
HETATM   13  O   UNL     1     -10.995  -1.150 -32.721  1.00  0.00    -0.267 OA
HETATM   14  H   UNL     1     -12.242   0.760 -32.874  1.00  0.00     0.171 HD
BRANCH  12  15
HETATM   15  C   UNL     1      -9.014   0.002 -32.985  1.00  0.00     0.032 A 
HETATM   16  C   UNL     1      -8.418   0.259 -34.229  1.00  0.00     0.020 A 
HETATM   17  C   UNL     1      -7.086   0.664 -34.298  1.00  0.00     0.038 A 
HETATM   18  C   UNL     1      -6.358   0.834 -33.121  1.00  0.00     0.068 A 
HETATM   19  C   UNL     1      -6.933   0.520 -31.885  1.00  0.00     0.038 A 
HETATM   20  C   UNL     1      -8.275   0.132 -31.809  1.00  0.00     0.020 A 
BRANCH  18  21
HETATM   21  O   UNL     1      -5.076   1.311 -33.098  1.00  0.00    -0.356 OA
HETATM   22  C   UNL     1      -4.652   1.697 -31.787  1.00  0.00     0.210 C 
ENDBRANCH  18  21
ENDBRANCH  12  15
ENDBRANCH   9  11
ENDBRANCH   7   9
ENDBRANCH   1   7
BRANCH   4  23
HETATM   23  N   UNL     1      -5.738   5.435 -31.663  1.00  0.00    -0.378 N 
HETATM   24  C   UNL     1      -5.231   5.753 -30.317  1.00  0.00     0.143 C 
HETATM   25  C   UNL     1      -3.707   6.044 -30.357  1.00  0.00     0.146 C 
HETATM   26  N   UNL     1      -3.305   6.967 -31.433  1.00  0.00    -0.345 N 
HETATM   27  C   UNL     1      -2.203   7.819 -31.417  1.00  0.00     0.253 C 
HETATM   28  C   UNL     1      -3.915   6.704 -32.739  1.00  0.00     0.146 C 
HETATM   29  O   UNL     1      -1.935   8.581 -32.346  1.00  0.00    -0.267 OA
HETATM   30  C   UNL     1      -5.429   6.473 -32.666  1.00  0.00     0.143 C 
BRANCH  27  31
HETATM   31  C   UNL     1      -1.287   7.843 -30.256  1.00  0.00     0.032 A 
HETATM   32  C   UNL     1      -0.134   7.053 -30.224  1.00  0.00     0.017 A 
HETATM   33  C   UNL     1       0.759   7.173 -29.157  1.00  0.00     0.001 A 
HETATM   34  C   UNL     1       0.512   8.096 -28.139  1.00  0.00     0.000 A 
HETATM   35  C   UNL     1      -0.623   8.907 -28.186  1.00  0.00     0.001 A 
HETATM   36  C   UNL     1      -1.520   8.786 -29.248  1.00  0.00     0.017 A 
ENDBRANCH  27  31
ENDBRANCH   4  23
TORSDOF 7
ENDMDL
MODEL 6
REMARK VINA RESULT:      -8.5      3.303      8.446
REMARK  7 active torsions:
REMARK  status: ('A' for Active; 'I' for Inactive)
REMARK    1  A    between atoms: O_2  and  C_3 
REMARK    2  A    between atoms: C_6  and  C_7 
REMARK       I    between atoms: C_7  and  N_8 
REMARK    3  A    between atoms: N_8  and  C_9 
REMARK    4  A    between atoms: C_9  and  N_10 
REMARK    5  A    between atoms: N_10  and  C_11 
REMARK    6  A    between atoms: C_14  and  N_15 
REMARK       I    between atoms: N_18  and  C_19 
REMARK    7  A    between atoms: C_19  and  C_20 
ROOT
HETATM    1  C   UNL     1      -8.851   3.070 -31.098  1.00  0.00     0.034 C 
HETATM    2  C   UNL     1      -8.816   4.159 -31.964  1.00  0.00     0.032 C 
HETATM    3  C   UNL     1      -7.874   5.177 -31.779  1.00  0.00     0.031 C 
HETATM    4  C   UNL     1      -6.943   5.142 -30.730  1.00  0.00     0.030 C 
HETATM    5  C   UNL     1      -7.127   4.134 -29.768  1.00  0.00     0.031 C 
HETATM    6  C   UNL     1      -8.080   3.111 -29.938  1.00  0.00     0.032 C 
ENDROOT
BRANCH   1   7
HETATM    7  N   UNL     1      -9.556   1.880 -31.441  1.00  0.00    -0.333 N 
HETATM    8  H   UNL     1      -9.773   1.289 -30.650  1.00  0.00     0.168 HD
BRANCH   7   9
HETATM    9  C   UNL     1      -9.248   1.156 -32.577  1.00  0.00     0.179 C 
HETATM   10  S   UNL     1      -9.968   1.242 -34.098  1.00  0.00    -0.040 SA
BRANCH   9  11
HETATM   11  N   UNL     1      -8.169   0.285 -32.527  1.00  0.00    -0.299 N 
HETATM   12  C   UNL     1      -6.786   0.214 -32.422  1.00  0.00     0.257 C 
HETATM   13  O   UNL     1      -6.245  -0.892 -32.452  1.00  0.00    -0.267 OA
HETATM   14  H   UNL     1      -8.519  -0.668 -32.523  1.00  0.00     0.171 HD
BRANCH  12  15
HETATM   15  C   UNL     1      -5.930   1.378 -32.182  1.00  0.00     0.032 A 
HETATM   16  C   UNL     1      -5.023   1.283 -31.116  1.00  0.00     0.020 A 
HETATM   17  C   UNL     1      -3.957   2.177 -31.021  1.00  0.00     0.038 A 
HETATM   18  C   UNL     1      -3.786   3.149 -32.005  1.00  0.00     0.068 A 
HETATM   19  C   UNL     1      -4.724   3.282 -33.035  1.00  0.00     0.038 A 
HETATM   20  C   UNL     1      -5.784   2.376 -33.146  1.00  0.00     0.020 A 
BRANCH  18  21
HETATM   21  O   UNL     1      -2.720   4.006 -32.032  1.00  0.00    -0.356 OA
HETATM   22  C   UNL     1      -2.283   4.304 -33.361  1.00  0.00     0.210 C 
ENDBRANCH  18  21
ENDBRANCH  12  15
ENDBRANCH   9  11
ENDBRANCH   7   9
ENDBRANCH   1   7
BRANCH   4  23
HETATM   23  N   UNL     1      -5.818   5.958 -30.711  1.00  0.00    -0.378 N 
HETATM   24  C   UNL     1      -5.173   6.344 -29.444  1.00  0.00     0.143 C 
HETATM   25  C   UNL     1      -3.661   6.617 -29.657  1.00  0.00     0.146 C 
HETATM   26  N   UNL     1      -3.368   7.475 -30.819  1.00  0.00    -0.345 N 
HETATM   27  C   UNL     1      -2.267   8.316 -30.964  1.00  0.00     0.253 C 
HETATM   28  C   UNL     1      -4.111   7.146 -32.038  1.00  0.00     0.146 C 
HETATM   29  O   UNL     1      -2.093   9.022 -31.957  1.00  0.00    -0.267 OA
HETATM   30  C   UNL     1      -5.610   6.936 -31.797  1.00  0.00     0.143 C 
BRANCH  27  31
HETATM   31  C   UNL     1      -1.236   8.394 -29.907  1.00  0.00     0.032 A 
HETATM   32  C   UNL     1      -1.395   9.230 -28.797  1.00  0.00     0.017 A 
HETATM   33  C   UNL     1      -0.449   9.206 -27.770  1.00  0.00     0.001 A 
HETATM   34  C   UNL     1       0.638   8.335 -27.841  1.00  0.00     0.000 A 
HETATM   35  C   UNL     1       0.781   7.478 -28.933  1.00  0.00     0.001 A 
HETATM   36  C   UNL     1      -0.159   7.502 -29.964  1.00  0.00     0.017 A 
ENDBRANCH  27  31
ENDBRANCH   4  23
TORSDOF 7
ENDMDL
MODEL 7
REMARK VINA RESULT:      -8.4      2.329      3.413
REMARK  7 active torsions:
REMARK  status: ('A' for Active; 'I' for Inactive)
REMARK    1  A    between atoms: O_2  and  C_3 
REMARK    2  A    between atoms: C_6  and  C_7 
REMARK       I    between atoms: C_7  and  N_8 
REMARK    3  A    between atoms: N_8  and  C_9 
REMARK    4  A    between atoms: C_9  and  N_10 
REMARK    5  A    between atoms: N_10  and  C_11 
REMARK    6  A    between atoms: C_14  and  N_15 
REMARK       I    between atoms: N_18  and  C_19 
REMARK    7  A    between atoms: C_19  and  C_20 
ROOT
HETATM    1  C   UNL     1      -3.678   7.292 -27.576  1.00  0.00     0.034 C 
HETATM    2  C   UNL     1      -4.834   6.708 -27.067  1.00  0.00     0.032 C 
HETATM    3  C   UNL     1      -5.615   5.873 -27.873  1.00  0.00     0.031 C 
HETATM    4  C   UNL     1      -5.272   5.597 -29.204  1.00  0.00     0.030 C 
HETATM    5  C   UNL     1      -4.213   6.347 -29.742  1.00  0.00     0.031 C 
HETATM    6  C   UNL     1      -3.427   7.200 -28.943  1.00  0.00     0.032 C 
ENDROOT
BRANCH   1   7
HETATM    7  N   UNL     1      -2.700   7.865 -26.711  1.00  0.00    -0.333 N 
HETATM    8  H   UNL     1      -2.469   8.824 -26.931  1.00  0.00     0.168 HD
BRANCH   7   9
HETATM    9  C   UNL     1      -1.609   7.141 -26.271  1.00  0.00     0.179 C 
HETATM   10  S   UNL     1      -1.586   5.623 -25.541  1.00  0.00    -0.040 SA
BRANCH   9  11
HETATM   11  N   UNL     1      -0.343   7.660 -26.501  1.00  0.00    -0.299 N 
HETATM   12  C   UNL     1       0.733   7.652 -27.380  1.00  0.00     0.257 C 
HETATM   13  O   UNL     1       1.729   8.322 -27.105  1.00  0.00    -0.267 OA
HETATM   14  H   UNL     1      -0.130   8.339 -25.775  1.00  0.00     0.171 HD
BRANCH  12  15
HETATM   15  C   UNL     1       0.720   6.962 -28.671  1.00  0.00     0.032 A 
HETATM   16  C   UNL     1       0.782   5.561 -28.637  1.00  0.00     0.020 A 
HETATM   17  C   UNL     1       0.440   4.816 -29.765  1.00  0.00     0.038 A 
HETATM   18  C   UNL     1       0.015   5.473 -30.919  1.00  0.00     0.068 A 
HETATM   19  C   UNL     1       0.012   6.871 -30.973  1.00  0.00     0.038 A 
HETATM   20  C   UNL     1       0.335   7.623 -29.838  1.00  0.00     0.020 A 
BRANCH  18  21
HETATM   21  O   UNL     1      -0.420   4.814 -32.036  1.00  0.00    -0.356 OA
HETATM   22  C   UNL     1      -1.830   4.940 -32.239  1.00  0.00     0.210 C 
ENDBRANCH  18  21
ENDBRANCH  12  15
ENDBRANCH   9  11
ENDBRANCH   7   9
ENDBRANCH   1   7
BRANCH   4  23
HETATM   23  N   UNL     1      -5.840   4.545 -29.913  1.00  0.00    -0.378 N 
HETATM   24  C   UNL     1      -5.247   4.059 -31.171  1.00  0.00     0.143 C 
HETATM   25  C   UNL     1      -5.574   2.559 -31.391  1.00  0.00     0.146 C 
HETATM   26  N   UNL     1      -6.992   2.220 -31.172  1.00  0.00    -0.345 N 
HETATM   27  C   UNL     1      -7.691   1.178 -31.776  1.00  0.00     0.253 C 
HETATM   28  C   UNL     1      -7.595   2.812 -29.976  1.00  0.00     0.146 C 
HETATM   29  O   UNL     1      -8.884   0.962 -31.562  1.00  0.00    -0.267 OA
HETATM   30  C   UNL     1      -7.294   4.307 -29.820  1.00  0.00     0.143 C 
BRANCH  27  31
HETATM   31  C   UNL     1      -7.012   0.264 -32.721  1.00  0.00     0.032 A 
HETATM   32  C   UNL     1      -6.012  -0.613 -32.292  1.00  0.00     0.017 A 
HETATM   33  C   UNL     1      -5.462  -1.529 -33.191  1.00  0.00     0.001 A 
HETATM   34  C   UNL     1      -5.926  -1.584 -34.506  1.00  0.00     0.000 A 
HETATM   35  C   UNL     1      -6.946  -0.730 -34.926  1.00  0.00     0.001 A 
HETATM   36  C   UNL     1      -7.495   0.190 -34.033  1.00  0.00     0.017 A 
ENDBRANCH  27  31
ENDBRANCH   4  23
TORSDOF 7
ENDMDL
MODEL 8
REMARK VINA RESULT:      -8.4      4.264      8.696
REMARK  7 active torsions:
REMARK  status: ('A' for Active; 'I' for Inactive)
REMARK    1  A    between atoms: O_2  and  C_3 
REMARK    2  A    between atoms: C_6  and  C_7 
REMARK       I    between atoms: C_7  and  N_8 
REMARK    3  A    between atoms: N_8  and  C_9 
REMARK    4  A    between atoms: C_9  and  N_10 
REMARK    5  A    between atoms: N_10  and  C_11 
REMARK    6  A    between atoms: C_14  and  N_15 
REMARK       I    between atoms: N_18  and  C_19 
REMARK    7  A    between atoms: C_19  and  C_20 
ROOT
HETATM    1  C   UNL     1      -9.508   1.191 -33.028  1.00  0.00     0.034 C 
HETATM    2  C   UNL     1      -8.662   1.143 -31.923  1.00  0.00     0.032 C 
HETATM    3  C   UNL     1      -7.439   1.822 -31.943  1.00  0.00     0.031 C 
HETATM    4  C   UNL     1      -7.022   2.564 -33.057  1.00  0.00     0.030 C 
HETATM    5  C   UNL     1      -7.804   2.437 -34.218  1.00  0.00     0.031 C 
HETATM    6  C   UNL     1      -9.031   1.746 -34.213  1.00  0.00     0.032 C 
ENDROOT
BRANCH   1   7
HETATM    7  N   UNL     1     -10.875   0.800 -32.925  1.00  0.00    -0.333 N 
HETATM    8  H   UNL     1     -11.028  -0.192 -33.042  1.00  0.00     0.168 HD
BRANCH   7   9
HETATM    9  C   UNL     1     -11.890   1.565 -33.469  1.00  0.00     0.179 C 
HETATM   10  S   UNL     1     -12.663   1.373 -34.953  1.00  0.00    -0.040 SA
BRANCH   9  11
HETATM   11  N   UNL     1     -12.421   2.591 -32.700  1.00  0.00    -0.299 N 
HETATM   12  C   UNL     1     -12.097   3.684 -31.906  1.00  0.00     0.257 C 
HETATM   13  O   UNL     1     -13.007   4.323 -31.376  1.00  0.00    -0.267 OA
HETATM   14  H   UNL     1     -13.433   2.567 -32.777  1.00  0.00     0.171 HD
BRANCH  12  15
HETATM   15  C   UNL     1     -10.731   4.183 -31.731  1.00  0.00     0.032 A 
HETATM   16  C   UNL     1     -10.217   4.983 -32.761  1.00  0.00     0.020 A 
HETATM   17  C   UNL     1      -9.085   5.767 -32.542  1.00  0.00     0.038 A 
HETATM   18  C   UNL     1      -8.483   5.767 -31.284  1.00  0.00     0.068 A 
HETATM   19  C   UNL     1      -8.960   4.924 -30.275  1.00  0.00     0.038 A 
HETATM   20  C   UNL     1     -10.106   4.150 -30.484  1.00  0.00     0.020 A 
BRANCH  18  21
HETATM   21  O   UNL     1      -7.425   6.572 -30.962  1.00  0.00    -0.356 OA
HETATM   22  C   UNL     1      -7.010   7.404 -32.049  1.00  0.00     0.210 C 
ENDBRANCH  18  21
ENDBRANCH  12  15
ENDBRANCH   9  11
ENDBRANCH   7   9
ENDBRANCH   1   7
BRANCH   4  23
HETATM   23  N   UNL     1      -5.984   3.486 -32.987  1.00  0.00    -0.378 N 
HETATM   24  C   UNL     1      -5.383   3.866 -31.697  1.00  0.00     0.143 C 
HETATM   25  C   UNL     1      -3.906   4.301 -31.885  1.00  0.00     0.146 C 
HETATM   26  N   UNL     1      -3.699   5.245 -32.997  1.00  0.00    -0.345 N 
HETATM   27  C   UNL     1      -2.688   6.199 -33.090  1.00  0.00     0.253 C 
HETATM   28  C   UNL     1      -4.403   4.910 -34.237  1.00  0.00     0.146 C 
HETATM   29  O   UNL     1      -2.585   6.972 -34.042  1.00  0.00    -0.267 OA
HETATM   30  C   UNL     1      -5.874   4.537 -34.018  1.00  0.00     0.143 C 
BRANCH  27  31
HETATM   31  C   UNL     1      -1.671   6.324 -32.022  1.00  0.00     0.032 A 
HETATM   32  C   UNL     1      -0.531   5.514 -32.007  1.00  0.00     0.017 A 
HETATM   33  C   UNL     1       0.455   5.726 -31.041  1.00  0.00     0.001 A 
HETATM   34  C   UNL     1       0.314   6.756 -30.111  1.00  0.00     0.000 A 
HETATM   35  C   UNL     1      -0.809   7.584 -30.145  1.00  0.00     0.001 A 
HETATM   36  C   UNL     1      -1.799   7.373 -31.105  1.00  0.00     0.017 A 
ENDBRANCH  27  31
ENDBRANCH   4  23
TORSDOF 7
ENDMDL
MODEL 9
REMARK VINA RESULT:      -8.4      1.533      1.949
REMARK  7 active torsions:
REMARK  status: ('A' for Active; 'I' for Inactive)
REMARK    1  A    between atoms: O_2  and  C_3 
REMARK    2  A    between atoms: C_6  and  C_7 
REMARK       I    between atoms: C_7  and  N_8 
REMARK    3  A    between atoms: N_8  and  C_9 
REMARK    4  A    between atoms: C_9  and  N_10 
REMARK    5  A    between atoms: N_10  and  C_11 
REMARK    6  A    between atoms: C_14  and  N_15 
REMARK       I    between atoms: N_18  and  C_19 
REMARK    7  A    between atoms: C_19  and  C_20 
ROOT
HETATM    1  C   UNL     1      -5.239   7.209 -30.070  1.00  0.00     0.034 C 
HETATM    2  C   UNL     1      -5.542   6.184 -29.178  1.00  0.00     0.032 C 
HETATM    3  C   UNL     1      -5.604   4.859 -29.623  1.00  0.00     0.031 C 
HETATM    4  C   UNL     1      -5.369   4.516 -30.962  1.00  0.00     0.030 C 
HETATM    5  C   UNL     1      -5.256   5.585 -31.867  1.00  0.00     0.031 C 
HETATM    6  C   UNL     1      -5.204   6.923 -31.433  1.00  0.00     0.032 C 
ENDROOT
BRANCH   1   7
HETATM    7  N   UNL     1      -4.847   8.498 -29.603  1.00  0.00    -0.333 N 
HETATM    8  H   UNL     1      -5.532   9.222 -29.775  1.00  0.00     0.168 HD
BRANCH   7   9
HETATM    9  C   UNL     1      -3.548   8.951 -29.732  1.00  0.00     0.179 C 
HETATM   10  S   UNL     1      -3.015  10.473 -30.219  1.00  0.00    -0.040 SA
BRANCH   9  11
HETATM   11  N   UNL     1      -2.518   8.101 -29.356  1.00  0.00    -0.299 N 
HETATM   12  C   UNL     1      -1.633   7.135 -29.818  1.00  0.00     0.257 C 
HETATM   13  O   UNL     1      -0.857   6.610 -29.018  1.00  0.00    -0.267 OA
HETATM   14  H   UNL     1      -2.288   8.275 -28.383  1.00  0.00     0.171 HD
BRANCH  12  15
HETATM   15  C   UNL     1      -1.500   6.763 -31.228  1.00  0.00     0.032 A 
HETATM   16  C   UNL     1      -1.499   5.391 -31.520  1.00  0.00     0.020 A 
HETATM   17  C   UNL     1      -1.716   4.952 -32.826  1.00  0.00     0.038 A 
HETATM   18  C   UNL     1      -1.957   5.885 -33.833  1.00  0.00     0.068 A 
HETATM   19  C   UNL     1      -1.899   7.254 -33.553  1.00  0.00     0.038 A 
HETATM   20  C   UNL     1      -1.701   7.700 -32.242  1.00  0.00     0.020 A 
BRANCH  18  21
HETATM   21  O   UNL     1      -2.265   5.533 -35.119  1.00  0.00    -0.356 OA
HETATM   22  C   UNL     1      -3.654   5.239 -35.295  1.00  0.00     0.210 C 
ENDBRANCH  18  21
ENDBRANCH  12  15
ENDBRANCH   9  11
ENDBRANCH   7   9
ENDBRANCH   1   7
BRANCH   4  23
HETATM   23  N   UNL     1      -5.116   3.208 -31.358  1.00  0.00    -0.378 N 
HETATM   24  C   UNL     1      -6.205   2.227 -31.503  1.00  0.00     0.143 C 
HETATM   25  C   UNL     1      -5.839   1.148 -32.556  1.00  0.00     0.146 C 
HETATM   26  N   UNL     1      -4.484   0.591 -32.393  1.00  0.00    -0.345 N 
HETATM   27  C   UNL     1      -4.067  -0.683 -32.772  1.00  0.00     0.253 C 
HETATM   28  C   UNL     1      -3.433   1.577 -32.132  1.00  0.00     0.146 C 
HETATM   29  O   UNL     1      -2.921  -1.093 -32.588  1.00  0.00    -0.267 OA
HETATM   30  C   UNL     1      -3.810   2.593 -31.047  1.00  0.00     0.143 C 
BRANCH  27  31
HETATM   31  C   UNL     1      -5.007  -1.617 -33.430  1.00  0.00     0.032 A 
HETATM   32  C   UNL     1      -6.358  -1.294 -33.593  1.00  0.00     0.017 A 
HETATM   33  C   UNL     1      -7.195  -2.156 -34.304  1.00  0.00     0.001 A 
HETATM   34  C   UNL     1      -6.680  -3.323 -34.870  1.00  0.00     0.000 A 
HETATM   35  C   UNL     1      -5.326  -3.630 -34.734  1.00  0.00     0.001 A 
HETATM   36  C   UNL     1      -4.486  -2.775 -34.020  1.00  0.00     0.017 A 
ENDBRANCH  27  31
ENDBRANCH   4  23
TORSDOF 7
ENDMDL
MODEL 10
REMARK VINA RESULT:      -8.4      3.700      8.386
REMARK  7 active torsions:
REMARK  status: ('A' for Active; 'I' for Inactive)
REMARK    1  A    between atoms: O_2  and  C_3 
REMARK    2  A    between atoms: C_6  and  C_7 
REMARK       I    between atoms: C_7  and  N_8 
REMARK    3  A    between atoms: N_8  and  C_9 
REMARK    4  A    between atoms: C_9  and  N_10 
REMARK    5  A    between atoms: N_10  and  C_11 
REMARK    6  A    between atoms: C_14  and  N_15 
REMARK       I    between atoms: N_18  and  C_19 
REMARK    7  A    between atoms: C_19  and  C_20 
ROOT
HETATM    1  C   UNL     1     -10.606   4.132 -32.423  1.00  0.00     0.034 C 
HETATM    2  C   UNL     1     -10.155   4.975 -33.434  1.00  0.00     0.032 C 
HETATM    3  C   UNL     1      -8.823   5.401 -33.455  1.00  0.00     0.031 C 
HETATM    4  C   UNL     1      -7.904   5.005 -32.472  1.00  0.00     0.030 C 
HETATM    5  C   UNL     1      -8.433   4.315 -31.368  1.00  0.00     0.031 C 
HETATM    6  C   UNL     1      -9.775   3.890 -31.331  1.00  0.00     0.032 C 
ENDROOT
BRANCH   1   7
HETATM    7  N   UNL     1     -11.838   3.425 -32.549  1.00  0.00    -0.333 N 
HETATM    8  H   UNL     1     -12.266   3.187 -31.665  1.00  0.00     0.168 HD
BRANCH   7   9
HETATM    9  C   UNL     1     -12.017   2.447 -33.508  1.00  0.00     0.179 C 
HETATM   10  S   UNL     1     -12.591   2.619 -35.082  1.00  0.00    -0.040 SA
BRANCH   9  11
HETATM   11  N   UNL     1     -11.621   1.152 -33.206  1.00  0.00    -0.299 N 
HETATM   12  C   UNL     1     -10.520   0.338 -32.972  1.00  0.00     0.257 C 
HETATM   13  O   UNL     1     -10.703  -0.859 -32.750  1.00  0.00    -0.267 OA
HETATM   14  H   UNL     1     -12.450   0.584 -33.053  1.00  0.00     0.171 HD
BRANCH  12  15
HETATM   15  C   UNL     1      -9.146   0.838 -32.883  1.00  0.00     0.032 A 
HETATM   16  C   UNL     1      -8.412   0.463 -31.748  1.00  0.00     0.020 A 
HETATM   17  C   UNL     1      -7.025   0.600 -31.734  1.00  0.00     0.038 A 
HETATM   18  C   UNL     1      -6.371   1.091 -32.863  1.00  0.00     0.068 A 
HETATM   19  C   UNL     1      -7.108   1.521 -33.972  1.00  0.00     0.038 A 
HETATM   20  C   UNL     1      -8.498   1.368 -33.999  1.00  0.00     0.020 A 
BRANCH  18  21
HETATM   21  O   UNL     1      -5.009   1.173 -32.962  1.00  0.00    -0.356 OA
HETATM   22  C   UNL     1      -4.334   0.479 -31.909  1.00  0.00     0.210 C 
ENDBRANCH  18  21
ENDBRANCH  12  15
ENDBRANCH   9  11
ENDBRANCH   7   9
ENDBRANCH   1   7
BRANCH   4  23
HETATM   23  N   UNL     1      -6.532   5.150 -32.639  1.00  0.00    -0.378 N 
HETATM   24  C   UNL     1      -5.740   6.022 -31.754  1.00  0.00     0.143 C 
HETATM   25  C   UNL     1      -4.275   5.521 -31.655  1.00  0.00     0.146 C 
HETATM   26  N   UNL     1      -3.666   5.198 -32.957  1.00  0.00    -0.345 N 
HETATM   27  C   UNL     1      -2.310   5.259 -33.268  1.00  0.00     0.253 C 
HETATM   28  C   UNL     1      -4.517   4.431 -33.869  1.00  0.00     0.146 C 
HETATM   29  O   UNL     1      -1.869   4.993 -34.387  1.00  0.00    -0.267 OA
HETATM   30  C   UNL     1      -5.942   4.987 -33.982  1.00  0.00     0.143 C 
BRANCH  27  31
HETATM   31  C   UNL     1      -1.319   5.653 -32.243  1.00  0.00     0.032 A 
HETATM   32  C   UNL     1      -0.826   6.960 -32.173  1.00  0.00     0.017 A 
HETATM   33  C   UNL     1       0.033   7.321 -31.133  1.00  0.00     0.001 A 
HETATM   34  C   UNL     1       0.377   6.388 -30.154  1.00  0.00     0.000 A 
HETATM   35  C   UNL     1      -0.140   5.093 -30.205  1.00  0.00     0.001 A 
HETATM   36  C   UNL     1      -0.994   4.726 -31.246  1.00  0.00     0.017 A 
ENDBRANCH  27  31
ENDBRANCH   4  23
TORSDOF 7
ENDMDL
