MODEL 1
REMARK VINA RESULT:      -8.4      0.000      0.000
REMARK  5 active torsions:
REMARK  status: ('A' for Active; 'I' for Inactive)
REMARK    1  A    between atoms: C_3  and  N_4 
REMARK       I    between atoms: N_4  and  C_5 
REMARK       I    between atoms: C_5  and  N_6 
REMARK    2  A    between atoms: N_6  and  C_7 
REMARK    3  A    between atoms: C_7  and  C_8 
REMARK    4  A    between atoms: C_10  and  O_11 
REMARK    5  A    between atoms: O_11  and  C_12 
ROOT
HETATM    1  N   UNL     1      -5.677   0.509 -32.421  1.00  0.00    -0.308 N 
HETATM    2  C   UNL     1      -5.657   1.781 -32.953  1.00  0.00     0.321 C 
HETATM    3  N   UNL     1      -5.548   2.725 -31.956  1.00  0.00    -0.339 N 
HETATM    4  O   UNL     1      -5.682   2.072 -34.141  1.00  0.00    -0.247 OA
HETATM    5  H   UNL     1      -5.092   0.436 -31.604  1.00  0.00     0.170 HD
HETATM    6  H   UNL     1      -5.812   2.445 -31.024  1.00  0.00     0.164 HD
ENDROOT
BRANCH   3   7
HETATM    7  C   UNL     1      -5.582   4.140 -32.264  1.00  0.00     0.163 C 
BRANCH   7   8
HETATM    8  C   UNL     1      -4.285   4.664 -32.825  1.00  0.00    -0.035 A 
HETATM    9  C   UNL     1      -3.065   4.503 -32.159  1.00  0.00     0.066 A 
HETATM   10  C   UNL     1      -1.906   4.959 -32.768  1.00  0.00     0.164 A 
HETATM   11  N   UNL     1      -1.869   5.544 -33.982  1.00  0.00    -0.237 NA
HETATM   12  C   UNL     1      -3.049   5.669 -34.620  1.00  0.00     0.120 A 
HETATM   13  C   UNL     1      -4.263   5.252 -34.095  1.00  0.00     0.028 A 
BRANCH  10  14
HETATM   14  O   UNL     1      -0.730   4.795 -32.058  1.00  0.00    -0.329 OA
BRANCH  14  15
HETATM   15  C   UNL     1      -0.682   5.414 -30.755  1.00  0.00     0.130 C 
HETATM   16  C   UNL     1       0.598   5.187 -29.908  1.00  0.00     0.032 C 
HETATM   17  C   UNL     1       0.496   6.660 -29.473  1.00  0.00     0.005 C 
HETATM   18  C   UNL     1      -0.293   6.916 -30.769  1.00  0.00     0.032 C 
ENDBRANCH  14  15
ENDBRANCH  10  14
ENDBRANCH   7   8
ENDBRANCH   3   7
BRANCH   1  19
HETATM   19  C   UNL     1      -5.884  -0.686 -33.157  1.00  0.00     0.048 A 
HETATM   20  C   UNL     1      -4.765  -1.532 -33.367  1.00  0.00    -0.033 A 
HETATM   21  C   UNL     1      -3.391  -1.201 -32.844  1.00  0.00     0.050 C 
HETATM   22  C   UNL     1      -4.912  -2.711 -34.117  1.00  0.00     0.033 A 
HETATM   23  C   UNL     1      -6.149  -3.061 -34.644  1.00  0.00     0.035 A 
HETATM   24  C   UNL     1      -7.259  -2.263 -34.406  1.00  0.00     0.033 A 
HETATM   25 CL   UNL     1      -6.309  -4.502 -35.572  1.00  0.00    -0.084 Cl
HETATM   26  C   UNL     1      -7.154  -1.088 -33.636  1.00  0.00    -0.033 A 
HETATM   27  C   UNL     1      -8.441  -0.359 -33.354  1.00  0.00     0.050 C 
ENDBRANCH   1  19
TORSDOF 5
ENDMDL
MODEL 2
REMARK VINA RESULT:      -8.0      0.390      1.788
REMARK  5 active torsions:
REMARK  status: ('A' for Active; 'I' for Inactive)
REMARK    1  A    between atoms: C_3  and  N_4 
REMARK       I    between atoms: N_4  and  C_5 
REMARK       I    between atoms: C_5  and  N_6 
REMARK    2  A    between atoms: N_6  and  C_7 
REMARK    3  A    between atoms: C_7  and  C_8 
REMARK    4  A    between atoms: C_10  and  O_11 
REMARK    5  A    between atoms: O_11  and  C_12 
ROOT
HETATM    1  N   UNL     1      -5.820   0.544 -32.468  1.00  0.00    -0.308 N 
HETATM    2  C   UNL     1      -5.774   1.806 -33.024  1.00  0.00     0.321 C 
HETATM    3  N   UNL     1      -5.772   2.771 -32.041  1.00  0.00    -0.339 N 
HETATM    4  O   UNL     1      -5.699   2.072 -34.215  1.00  0.00    -0.247 OA
HETATM    5  H   UNL     1      -5.308   0.499 -31.601  1.00  0.00     0.170 HD
HETATM    6  H   UNL     1      -6.114   2.505 -31.131  1.00  0.00     0.164 HD
ENDROOT
BRANCH   3   7
HETATM    7  C   UNL     1      -5.804   4.178 -32.382  1.00  0.00     0.163 C 
BRANCH   7   8
HETATM    8  C   UNL     1      -4.556   4.656 -33.078  1.00  0.00    -0.035 A 
HETATM    9  C   UNL     1      -3.300   4.621 -32.465  1.00  0.00     0.066 A 
HETATM   10  C   UNL     1      -2.189   5.021 -33.191  1.00  0.00     0.164 A 
HETATM   11  N   UNL     1      -2.234   5.437 -34.474  1.00  0.00    -0.237 NA
HETATM   12  C   UNL     1      -3.448   5.442 -35.057  1.00  0.00     0.120 A 
HETATM   13  C   UNL     1      -4.619   5.067 -34.415  1.00  0.00     0.028 A 
BRANCH  10  14
HETATM   14  O   UNL     1      -0.974   4.987 -32.532  1.00  0.00    -0.329 OA
BRANCH  14  15
HETATM   15  C   UNL     1      -0.919   5.675 -31.264  1.00  0.00     0.130 C 
HETATM   16  C   UNL     1       0.054   5.113 -30.193  1.00  0.00     0.032 C 
HETATM   17  C   UNL     1       0.401   6.569 -29.835  1.00  0.00     0.005 C 
HETATM   18  C   UNL     1      -0.037   6.951 -31.261  1.00  0.00     0.032 C 
ENDBRANCH  14  15
ENDBRANCH  10  14
ENDBRANCH   7   8
ENDBRANCH   3   7
BRANCH   1  19
HETATM   19  C   UNL     1      -5.938  -0.669 -33.195  1.00  0.00     0.048 A 
HETATM   20  C   UNL     1      -7.235  -1.059 -33.616  1.00  0.00    -0.033 A 
HETATM   21  C   UNL     1      -8.464  -0.242 -33.317  1.00  0.00     0.050 C 
HETATM   22  C   UNL     1      -7.408  -2.269 -34.312  1.00  0.00     0.033 A 
HETATM   23  C   UNL     1      -6.317  -3.078 -34.600  1.00  0.00     0.035 A 
HETATM   24  C   UNL     1      -5.039  -2.682 -34.231  1.00  0.00     0.033 A 
HETATM   25 CL   UNL     1      -6.547  -4.562 -35.441  1.00  0.00    -0.084 Cl
HETATM   26  C   UNL     1      -4.824  -1.464 -33.557  1.00  0.00    -0.033 A 
HETATM   27  C   UNL     1      -3.389  -1.087 -33.301  1.00  0.00     0.050 C 
ENDBRANCH   1  19
TORSDOF 5
ENDMDL
MODEL 3
REMARK VINA RESULT:      -8.0      2.198      3.410
REMARK  5 active torsions:
REMARK  status: ('A' for Active; 'I' for Inactive)
REMARK    1  A    between atoms: C_3  and  N_4 
REMARK       I    between atoms: N_4  and  C_5 
REMARK       I    between atoms: C_5  and  N_6 
REMARK    2  A    between atoms: N_6  and  C_7 
REMARK    3  A    between atoms: C_7  and  C_8 
REMARK    4  A    between atoms: C_10  and  O_11 
REMARK    5  A    between atoms: O_11  and  C_12 
ROOT
HETATM    1  N   UNL     1      -5.787   1.138 -33.332  1.00  0.00    -0.308 N 
HETATM    2  C   UNL     1      -6.285   1.568 -32.120  1.00  0.00     0.321 C 
HETATM    3  N   UNL     1      -6.101   2.925 -31.971  1.00  0.00    -0.339 N 
HETATM    4  O   UNL     1      -6.858   0.881 -31.286  1.00  0.00    -0.247 OA
HETATM    5  H   UNL     1      -5.911   1.830 -34.054  1.00  0.00     0.170 HD
HETATM    6  H   UNL     1      -5.395   3.361 -32.543  1.00  0.00     0.164 HD
ENDROOT
BRANCH   3   7
HETATM    7  C   UNL     1      -6.476   3.596 -30.743  1.00  0.00     0.163 C 
BRANCH   7   8
HETATM    8  C   UNL     1      -5.512   4.678 -30.331  1.00  0.00    -0.035 A 
HETATM    9  C   UNL     1      -4.478   5.113 -31.166  1.00  0.00     0.066 A 
HETATM   10  C   UNL     1      -3.668   6.155 -30.741  1.00  0.00     0.164 A 
HETATM   11  N   UNL     1      -3.818   6.798 -29.565  1.00  0.00    -0.237 NA
HETATM   12  C   UNL     1      -4.834   6.383 -28.784  1.00  0.00     0.120 A 
HETATM   13  C   UNL     1      -5.695   5.346 -29.115  1.00  0.00     0.028 A 
BRANCH  10  14
HETATM   14  O   UNL     1      -2.648   6.532 -31.595  1.00  0.00    -0.329 OA
BRANCH  14  15
HETATM   15  C   UNL     1      -2.657   5.925 -32.904  1.00  0.00     0.130 C 
HETATM   16  C   UNL     1      -2.139   6.783 -34.089  1.00  0.00     0.032 C 
HETATM   17  C   UNL     1      -1.459   5.514 -34.630  1.00  0.00     0.005 C 
HETATM   18  C   UNL     1      -1.458   4.982 -33.186  1.00  0.00     0.032 C 
ENDBRANCH  14  15
ENDBRANCH  10  14
ENDBRANCH   7   8
ENDBRANCH   3   7
BRANCH   1  19
HETATM   19  C   UNL     1      -5.719  -0.213 -33.760  1.00  0.00     0.048 A 
HETATM   20  C   UNL     1      -6.767  -0.695 -34.585  1.00  0.00    -0.033 A 
HETATM   21  C   UNL     1      -7.928   0.168 -35.008  1.00  0.00     0.050 C 
HETATM   22  C   UNL     1      -6.761  -2.036 -35.008  1.00  0.00     0.033 A 
HETATM   23  C   UNL     1      -5.731  -2.888 -34.635  1.00  0.00     0.035 A 
HETATM   24  C   UNL     1      -4.678  -2.413 -33.865  1.00  0.00     0.033 A 
HETATM   25 CL   UNL     1      -5.746  -4.530 -35.150  1.00  0.00    -0.084 Cl
HETATM   26  C   UNL     1      -4.637  -1.069 -33.445  1.00  0.00    -0.033 A 
HETATM   27  C   UNL     1      -3.397  -0.639 -32.706  1.00  0.00     0.050 C 
ENDBRANCH   1  19
TORSDOF 5
ENDMDL
MODEL 4
REMARK VINA RESULT:      -7.9      4.566      7.692
REMARK  5 active torsions:
REMARK  status: ('A' for Active; 'I' for Inactive)
REMARK    1  A    between atoms: C_3  and  N_4 
REMARK       I    between atoms: N_4  and  C_5 
REMARK       I    between atoms: C_5  and  N_6 
REMARK    2  A    between atoms: N_6  and  C_7 
REMARK    3  A    between atoms: C_7  and  C_8 
REMARK    4  A    between atoms: C_10  and  O_11 
REMARK    5  A    between atoms: O_11  and  C_12 
ROOT
HETATM    1  N   UNL     1      -5.813   0.728 -32.804  1.00  0.00    -0.308 N 
HETATM    2  C   UNL     1      -6.793   0.987 -31.869  1.00  0.00     0.321 C 
HETATM    3  N   UNL     1      -7.087   2.332 -31.831  1.00  0.00    -0.339 N 
HETATM    4  O   UNL     1      -7.378   0.162 -31.182  1.00  0.00    -0.247 OA
HETATM    5  H   UNL     1      -5.890   1.335 -33.605  1.00  0.00     0.170 HD
HETATM    6  H   UNL     1      -6.396   2.967 -32.200  1.00  0.00     0.164 HD
ENDROOT
BRANCH   3   7
HETATM    7  C   UNL     1      -8.035   2.860 -30.871  1.00  0.00     0.163 C 
BRANCH   7   8
HETATM    8  C   UNL     1      -9.377   3.191 -31.471  1.00  0.00    -0.035 A 
HETATM    9  C   UNL     1      -9.726   2.813 -32.772  1.00  0.00     0.066 A 
HETATM   10  C   UNL     1     -11.001   3.101 -33.233  1.00  0.00     0.164 A 
HETATM   11  N   UNL     1     -11.949   3.718 -32.499  1.00  0.00    -0.237 NA
HETATM   12  C   UNL     1     -11.605   4.053 -31.240  1.00  0.00     0.120 A 
HETATM   13  C   UNL     1     -10.354   3.815 -30.688  1.00  0.00     0.028 A 
BRANCH  10  14
HETATM   14  O   UNL     1     -11.288   2.726 -34.532  1.00  0.00    -0.329 OA
BRANCH  14  15
HETATM   15  C   UNL     1     -11.953   1.455 -34.695  1.00  0.00     0.130 C 
HETATM   16  C   UNL     1     -11.972   0.501 -33.471  1.00  0.00     0.032 C 
HETATM   17  C   UNL     1     -13.422   0.149 -33.847  1.00  0.00     0.005 C 
HETATM   18  C   UNL     1     -13.497   1.513 -34.556  1.00  0.00     0.032 C 
ENDBRANCH  14  15
ENDBRANCH  10  14
ENDBRANCH   7   8
ENDBRANCH   3   7
BRANCH   1  19
HETATM   19  C   UNL     1      -5.204  -0.534 -33.026  1.00  0.00     0.048 A 
HETATM   20  C   UNL     1      -5.703  -1.327 -34.091  1.00  0.00    -0.033 A 
HETATM   21  C   UNL     1      -6.841  -0.879 -34.971  1.00  0.00     0.050 C 
HETATM   22  C   UNL     1      -5.152  -2.599 -34.331  1.00  0.00     0.033 A 
HETATM   23  C   UNL     1      -4.115  -3.078 -33.542  1.00  0.00     0.035 A 
HETATM   24  C   UNL     1      -3.591  -2.290 -32.526  1.00  0.00     0.033 A 
HETATM   25 CL   UNL     1      -3.463  -4.642 -33.840  1.00  0.00    -0.084 Cl
HETATM   26  C   UNL     1      -4.099  -1.000 -32.275  1.00  0.00    -0.033 A 
HETATM   27  C   UNL     1      -3.384  -0.196 -31.222  1.00  0.00     0.050 C 
ENDBRANCH   1  19
TORSDOF 5
ENDMDL
MODEL 5
REMARK VINA RESULT:      -7.8      2.095      2.942
REMARK  5 active torsions:
REMARK  status: ('A' for Active; 'I' for Inactive)
REMARK    1  A    between atoms: C_3  and  N_4 
REMARK       I    between atoms: N_4  and  C_5 
REMARK       I    between atoms: C_5  and  N_6 
REMARK    2  A    between atoms: N_6  and  C_7 
REMARK    3  A    between atoms: C_7  and  C_8 
REMARK    4  A    between atoms: C_10  and  O_11 
REMARK    5  A    between atoms: O_11  and  C_12 
ROOT
HETATM    1  N   UNL     1      -5.387   0.694 -33.134  1.00  0.00    -0.308 N 
HETATM    2  C   UNL     1      -5.902   1.126 -31.929  1.00  0.00     0.321 C 
HETATM    3  N   UNL     1      -5.401   2.368 -31.603  1.00  0.00    -0.339 N 
HETATM    4  O   UNL     1      -6.725   0.542 -31.239  1.00  0.00    -0.247 OA
HETATM    5  H   UNL     1      -5.246   1.457 -33.776  1.00  0.00     0.170 HD
HETATM    6  H   UNL     1      -4.544   2.653 -32.052  1.00  0.00     0.164 HD
ENDROOT
BRANCH   3   7
HETATM    7  C   UNL     1      -5.738   2.998 -30.343  1.00  0.00     0.163 C 
BRANCH   7   8
HETATM    8  C   UNL     1      -5.212   4.404 -30.216  1.00  0.00    -0.035 A 
HETATM    9  C   UNL     1      -4.301   4.946 -31.129  1.00  0.00     0.066 A 
HETATM   10  C   UNL     1      -3.910   6.268 -30.979  1.00  0.00     0.164 A 
HETATM   11  N   UNL     1      -4.364   7.085 -30.007  1.00  0.00    -0.237 NA
HETATM   12  C   UNL     1      -5.259   6.555 -29.151  1.00  0.00     0.120 A 
HETATM   13  C   UNL     1      -5.709   5.244 -29.212  1.00  0.00     0.028 A 
BRANCH  10  14
HETATM   14  O   UNL     1      -2.992   6.747 -31.895  1.00  0.00    -0.329 OA
BRANCH  14  15
HETATM   15  C   UNL     1      -2.471   5.786 -32.836  1.00  0.00     0.130 C 
HETATM   16  C   UNL     1      -2.763   6.033 -34.340  1.00  0.00     0.032 C 
HETATM   17  C   UNL     1      -1.326   5.566 -34.633  1.00  0.00     0.005 C 
HETATM   18  C   UNL     1      -0.973   5.979 -33.193  1.00  0.00     0.032 C 
ENDBRANCH  14  15
ENDBRANCH  10  14
ENDBRANCH   7   8
ENDBRANCH   3   7
BRANCH   1  19
HETATM   19  C   UNL     1      -5.613  -0.582 -33.712  1.00  0.00     0.048 A 
HETATM   20  C   UNL     1      -4.686  -1.613 -33.412  1.00  0.00    -0.033 A 
HETATM   21  C   UNL     1      -3.491  -1.394 -32.520  1.00  0.00     0.050 C 
HETATM   22  C   UNL     1      -4.849  -2.886 -33.986  1.00  0.00     0.033 A 
HETATM   23  C   UNL     1      -5.918  -3.146 -34.833  1.00  0.00     0.035 A 
HETATM   24  C   UNL     1      -6.855  -2.156 -35.096  1.00  0.00     0.033 A 
HETATM   25 CL   UNL     1      -6.095  -4.706 -35.538  1.00  0.00    -0.084 Cl
HETATM   26  C   UNL     1      -6.738  -0.876 -34.518  1.00  0.00    -0.033 A 
HETATM   27  C   UNL     1      -7.868   0.082 -34.788  1.00  0.00     0.050 C 
ENDBRANCH   1  19
TORSDOF 5
ENDMDL
MODEL 6
REMARK VINA RESULT:      -7.8      3.644      4.903
REMARK  5 active torsions:
REMARK  status: ('A' for Active; 'I' for Inactive)
REMARK    1  A    between atoms: C_3  and  N_4 
REMARK       I    between atoms: N_4  and  C_5 
REMARK       I    between atoms: C_5  and  N_6 
REMARK    2  A    between atoms: N_6  and  C_7 
REMARK    3  A    between atoms: C_7  and  C_8 
REMARK    4  A    between atoms: C_10  and  O_11 
REMARK    5  A    between atoms: O_11  and  C_12 
ROOT
HETATM    1  N   UNL     1      -9.311   2.573 -34.241  1.00  0.00    -0.308 N 
HETATM    2  C   UNL     1      -8.713   3.242 -33.193  1.00  0.00     0.321 C 
HETATM    3  N   UNL     1      -7.381   3.472 -33.459  1.00  0.00    -0.339 N 
HETATM    4  O   UNL     1      -9.262   3.635 -32.174  1.00  0.00    -0.247 OA
HETATM    5  H   UNL     1      -8.929   2.854 -35.130  1.00  0.00     0.170 HD
HETATM    6  H   UNL     1      -6.942   2.893 -34.158  1.00  0.00     0.164 HD
ENDROOT
BRANCH   3   7
HETATM    7  C   UNL     1      -6.523   4.095 -32.472  1.00  0.00     0.163 C 
BRANCH   7   8
HETATM    8  C   UNL     1      -5.157   4.450 -33.002  1.00  0.00    -0.035 A 
HETATM    9  C   UNL     1      -3.992   4.250 -32.254  1.00  0.00     0.066 A 
HETATM   10  C   UNL     1      -2.767   4.545 -32.832  1.00  0.00     0.164 A 
HETATM   11  N   UNL     1      -2.616   5.005 -34.091  1.00  0.00    -0.237 NA
HETATM   12  C   UNL     1      -3.747   5.169 -34.806  1.00  0.00     0.120 A 
HETATM   13  C   UNL     1      -5.019   4.909 -34.317  1.00  0.00     0.028 A 
BRANCH  10  14
HETATM   14  O   UNL     1      -1.648   4.350 -32.044  1.00  0.00    -0.329 OA
BRANCH  14  15
HETATM   15  C   UNL     1      -0.626   5.365 -32.128  1.00  0.00     0.130 C 
HETATM   16  C   UNL     1      -0.942   6.746 -31.493  1.00  0.00     0.032 C 
HETATM   17  C   UNL     1       0.511   6.776 -30.987  1.00  0.00     0.005 C 
HETATM   18  C   UNL     1       0.497   5.239 -31.065  1.00  0.00     0.032 C 
ENDBRANCH  14  15
ENDBRANCH  10  14
ENDBRANCH   7   8
ENDBRANCH   3   7
BRANCH   1  19
HETATM   19  C   UNL     1     -10.645   2.090 -34.251  1.00  0.00     0.048 A 
HETATM   20  C   UNL     1     -11.604   2.822 -34.995  1.00  0.00    -0.033 A 
HETATM   21  C   UNL     1     -11.255   4.076 -35.755  1.00  0.00     0.050 C 
HETATM   22  C   UNL     1     -12.945   2.401 -35.011  1.00  0.00     0.033 A 
HETATM   23  C   UNL     1     -13.335   1.266 -34.314  1.00  0.00     0.035 A 
HETATM   24  C   UNL     1     -12.395   0.517 -33.619  1.00  0.00     0.033 A 
HETATM   25 CL   UNL     1     -14.983   0.771 -34.332  1.00  0.00    -0.084 Cl
HETATM   26  C   UNL     1     -11.037   0.894 -33.604  1.00  0.00    -0.033 A 
HETATM   27  C   UNL     1     -10.092  -0.049 -32.909  1.00  0.00     0.050 C 
ENDBRANCH   1  19
TORSDOF 5
ENDMDL
MODEL 7
REMARK VINA RESULT:      -7.7      1.863      3.042
REMARK  5 active torsions:
REMARK  status: ('A' for Active; 'I' for Inactive)
REMARK    1  A    between atoms: C_3  and  N_4 
REMARK       I    between atoms: N_4  and  C_5 
REMARK       I    between atoms: C_5  and  N_6 
REMARK    2  A    between atoms: N_6  and  C_7 
REMARK    3  A    between atoms: C_7  and  C_8 
REMARK    4  A    between atoms: C_10  and  O_11 
REMARK    5  A    between atoms: O_11  and  C_12 
ROOT
HETATM    1  N   UNL     1      -5.083   1.588 -31.628  1.00  0.00    -0.308 N 
HETATM    2  C   UNL     1      -4.791   2.839 -32.131  1.00  0.00     0.321 C 
HETATM    3  N   UNL     1      -4.586   3.739 -31.108  1.00  0.00    -0.339 N 
HETATM    4  O   UNL     1      -4.676   3.139 -33.310  1.00  0.00    -0.247 OA
HETATM    5  H   UNL     1      -4.582   1.402 -30.774  1.00  0.00     0.170 HD
HETATM    6  H   UNL     1      -4.964   3.505 -30.203  1.00  0.00     0.164 HD
ENDROOT
BRANCH   3   7
HETATM    7  C   UNL     1      -4.338   5.139 -31.388  1.00  0.00     0.163 C 
BRANCH   7   8
HETATM    8  C   UNL     1      -2.887   5.527 -31.268  1.00  0.00    -0.035 A 
HETATM    9  C   UNL     1      -2.431   6.414 -30.287  1.00  0.00     0.066 A 
HETATM   10  C   UNL     1      -1.072   6.676 -30.202  1.00  0.00     0.164 A 
HETATM   11  N   UNL     1      -0.142   6.117 -31.003  1.00  0.00    -0.237 NA
HETATM   12  C   UNL     1      -0.596   5.247 -31.927  1.00  0.00     0.120 A 
HETATM   13  C   UNL     1      -1.934   4.923 -32.096  1.00  0.00     0.028 A 
BRANCH  10  14
HETATM   14  O   UNL     1      -0.676   7.575 -29.229  1.00  0.00    -0.329 OA
BRANCH  14  15
HETATM   15  C   UNL     1       0.527   7.239 -28.505  1.00  0.00     0.130 C 
HETATM   16  C   UNL     1       1.354   8.414 -27.918  1.00  0.00     0.032 C 
HETATM   17  C   UNL     1       1.585   7.545 -26.669  1.00  0.00     0.005 C 
HETATM   18  C   UNL     1       0.293   6.794 -27.037  1.00  0.00     0.032 C 
ENDBRANCH  14  15
ENDBRANCH  10  14
ENDBRANCH   7   8
ENDBRANCH   3   7
BRANCH   1  19
HETATM   19  C   UNL     1      -5.450   0.458 -32.403  1.00  0.00     0.048 A 
HETATM   20  C   UNL     1      -6.823   0.295 -32.720  1.00  0.00    -0.033 A 
HETATM   21  C   UNL     1      -7.880   1.265 -32.262  1.00  0.00     0.050 C 
HETATM   22  C   UNL     1      -7.240  -0.826 -33.459  1.00  0.00     0.033 A 
HETATM   23  C   UNL     1      -6.316  -1.768 -33.892  1.00  0.00     0.035 A 
HETATM   24  C   UNL     1      -4.965  -1.593 -33.625  1.00  0.00     0.033 A 
HETATM   25 CL   UNL     1      -6.845  -3.142 -34.784  1.00  0.00    -0.084 Cl
HETATM   26  C   UNL     1      -4.508  -0.469 -32.911  1.00  0.00    -0.033 A 
HETATM   27  C   UNL     1      -3.015  -0.328 -32.773  1.00  0.00     0.050 C 
ENDBRANCH   1  19
TORSDOF 5
ENDMDL
MODEL 8
REMARK VINA RESULT:      -7.7      4.467      8.569
REMARK  5 active torsions:
REMARK  status: ('A' for Active; 'I' for Inactive)
REMARK    1  A    between atoms: C_3  and  N_4 
REMARK       I    between atoms: N_4  and  C_5 
REMARK       I    between atoms: C_5  and  N_6 
REMARK    2  A    between atoms: N_6  and  C_7 
REMARK    3  A    between atoms: C_7  and  C_8 
REMARK    4  A    between atoms: C_10  and  O_11 
REMARK    5  A    between atoms: O_11  and  C_12 
ROOT
HETATM    1  N   UNL     1      -6.321   1.501 -33.650  1.00  0.00    -0.308 N 
HETATM    2  C   UNL     1      -7.588   1.789 -33.188  1.00  0.00     0.321 C 
HETATM    3  N   UNL     1      -8.039   2.981 -33.711  1.00  0.00    -0.339 N 
HETATM    4  O   UNL     1      -8.270   1.088 -32.453  1.00  0.00    -0.247 OA
HETATM    5  H   UNL     1      -6.189   1.814 -34.599  1.00  0.00     0.170 HD
HETATM    6  H   UNL     1      -7.345   3.622 -34.064  1.00  0.00     0.164 HD
ENDROOT
BRANCH   3   7
HETATM    7  C   UNL     1      -9.317   3.532 -33.311  1.00  0.00     0.163 C 
BRANCH   7   8
HETATM    8  C   UNL     1     -10.454   3.126 -34.213  1.00  0.00    -0.035 A 
HETATM    9  C   UNL     1     -11.202   1.964 -33.994  1.00  0.00     0.066 A 
HETATM   10  C   UNL     1     -12.272   1.689 -34.832  1.00  0.00     0.164 A 
HETATM   11  N   UNL     1     -12.657   2.483 -35.851  1.00  0.00    -0.237 NA
HETATM   12  C   UNL     1     -11.942   3.610 -36.033  1.00  0.00     0.120 A 
HETATM   13  C   UNL     1     -10.852   3.972 -35.255  1.00  0.00     0.028 A 
BRANCH  10  14
HETATM   14  O   UNL     1     -12.964   0.518 -34.585  1.00  0.00    -0.329 OA
BRANCH  14  15
HETATM   15  C   UNL     1     -14.033   0.603 -33.619  1.00  0.00     0.130 C 
HETATM   16  C   UNL     1     -14.222   1.957 -32.885  1.00  0.00     0.032 C 
HETATM   17  C   UNL     1     -15.741   1.748 -33.022  1.00  0.00     0.005 C 
HETATM   18  C   UNL     1     -15.438   0.846 -34.231  1.00  0.00     0.032 C 
ENDBRANCH  14  15
ENDBRANCH  10  14
ENDBRANCH   7   8
ENDBRANCH   3   7
BRANCH   1  19
HETATM   19  C   UNL     1      -5.523   0.405 -33.230  1.00  0.00     0.048 A 
HETATM   20  C   UNL     1      -4.627   0.619 -32.152  1.00  0.00    -0.033 A 
HETATM   21  C   UNL     1      -4.498   1.950 -31.458  1.00  0.00     0.050 C 
HETATM   22  C   UNL     1      -3.793  -0.427 -31.720  1.00  0.00     0.033 A 
HETATM   23  C   UNL     1      -3.850  -1.672 -32.333  1.00  0.00     0.035 A 
HETATM   24  C   UNL     1      -4.756  -1.903 -33.360  1.00  0.00     0.033 A 
HETATM   25 CL   UNL     1      -2.812  -2.938 -31.802  1.00  0.00    -0.084 Cl
HETATM   26  C   UNL     1      -5.625  -0.886 -33.800  1.00  0.00    -0.033 A 
HETATM   27  C   UNL     1      -6.637  -1.280 -34.843  1.00  0.00     0.050 C 
ENDBRANCH   1  19
TORSDOF 5
ENDMDL
MODEL 9
REMARK VINA RESULT:      -7.7      1.797      2.667
REMARK  5 active torsions:
REMARK  status: ('A' for Active; 'I' for Inactive)
REMARK    1  A    between atoms: C_3  and  N_4 
REMARK       I    between atoms: N_4  and  C_5 
REMARK       I    between atoms: C_5  and  N_6 
REMARK    2  A    between atoms: N_6  and  C_7 
REMARK    3  A    between atoms: C_7  and  C_8 
REMARK    4  A    between atoms: C_10  and  O_11 
REMARK    5  A    between atoms: O_11  and  C_12 
ROOT
HETATM    1  N   UNL     1      -5.568   1.154 -33.454  1.00  0.00    -0.308 N 
HETATM    2  C   UNL     1      -5.835   1.650 -32.195  1.00  0.00     0.321 C 
HETATM    3  N   UNL     1      -5.585   3.004 -32.141  1.00  0.00    -0.339 N 
HETATM    4  O   UNL     1      -6.278   1.020 -31.245  1.00  0.00    -0.247 OA
HETATM    5  H   UNL     1      -5.791   1.822 -34.174  1.00  0.00     0.170 HD
HETATM    6  H   UNL     1      -4.973   3.389 -32.844  1.00  0.00     0.164 HD
ENDROOT
BRANCH   3   7
HETATM    7  C   UNL     1      -5.721   3.736 -30.899  1.00  0.00     0.163 C 
BRANCH   7   8
HETATM    8  C   UNL     1      -5.142   5.126 -30.954  1.00  0.00    -0.035 A 
HETATM    9  C   UNL     1      -3.816   5.367 -31.331  1.00  0.00     0.066 A 
HETATM   10  C   UNL     1      -3.373   6.678 -31.416  1.00  0.00     0.164 A 
HETATM   11  N   UNL     1      -4.147   7.756 -31.171  1.00  0.00    -0.237 NA
HETATM   12  C   UNL     1      -5.427   7.506 -30.834  1.00  0.00     0.120 A 
HETATM   13  C   UNL     1      -5.965   6.233 -30.715  1.00  0.00     0.028 A 
BRANCH  10  14
HETATM   14  O   UNL     1      -2.050   6.861 -31.772  1.00  0.00    -0.329 OA
BRANCH  14  15
HETATM   15  C   UNL     1      -1.067   6.441 -30.802  1.00  0.00     0.130 C 
HETATM   16  C   UNL     1       0.397   6.906 -31.027  1.00  0.00     0.032 C 
HETATM   17  C   UNL     1       0.493   7.131 -29.508  1.00  0.00     0.005 C 
HETATM   18  C   UNL     1      -1.038   7.291 -29.504  1.00  0.00     0.032 C 
ENDBRANCH  14  15
ENDBRANCH  10  14
ENDBRANCH   7   8
ENDBRANCH   3   7
BRANCH   1  19
HETATM   19  C   UNL     1      -5.619  -0.214 -33.825  1.00  0.00     0.048 A 
HETATM   20  C   UNL     1      -6.758  -0.659 -34.542  1.00  0.00    -0.033 A 
HETATM   21  C   UNL     1      -7.894   0.261 -34.910  1.00  0.00     0.050 C 
HETATM   22  C   UNL     1      -6.870  -2.013 -34.905  1.00  0.00     0.033 A 
HETATM   23  C   UNL     1      -5.867  -2.915 -34.577  1.00  0.00     0.035 A 
HETATM   24  C   UNL     1      -4.727  -2.480 -33.914  1.00  0.00     0.033 A 
HETATM   25 CL   UNL     1      -6.025  -4.571 -35.017  1.00  0.00    -0.084 Cl
HETATM   26  C   UNL     1      -4.569  -1.126 -33.559  1.00  0.00    -0.033 A 
HETATM   27  C   UNL     1      -3.249  -0.749 -32.941  1.00  0.00     0.050 C 
ENDBRANCH   1  19
TORSDOF 5
ENDMDL
MODEL 10
REMARK VINA RESULT:      -7.6      4.416      8.232
REMARK  5 active torsions:
REMARK  status: ('A' for Active; 'I' for Inactive)
REMARK    1  A    between atoms: C_3  and  N_4 
REMARK       I    between atoms: N_4  and  C_5 
REMARK       I    between atoms: C_5  and  N_6 
REMARK    2  A    between atoms: N_6  and  C_7 
REMARK    3  A    between atoms: C_7  and  C_8 
REMARK    4  A    between atoms: C_10  and  O_11 
REMARK    5  A    between atoms: O_11  and  C_12 
ROOT
HETATM    1  N   UNL     1      -5.718   1.348 -33.471  1.00  0.00    -0.308 N 
HETATM    2  C   UNL     1      -6.788   1.901 -32.799  1.00  0.00     0.321 C 
HETATM    3  N   UNL     1      -7.209   3.056 -33.421  1.00  0.00    -0.339 N 
HETATM    4  O   UNL     1      -7.345   1.438 -31.814  1.00  0.00    -0.247 OA
HETATM    5  H   UNL     1      -5.789   1.487 -34.466  1.00  0.00     0.170 HD
HETATM    6  H   UNL     1      -6.553   3.517 -34.033  1.00  0.00     0.164 HD
ENDROOT
BRANCH   3   7
HETATM    7  C   UNL     1      -8.274   3.858 -32.856  1.00  0.00     0.163 C 
BRANCH   7   8
HETATM    8  C   UNL     1      -9.588   3.707 -33.579  1.00  0.00    -0.035 A 
HETATM    9  C   UNL     1     -10.590   2.840 -33.131  1.00  0.00     0.066 A 
HETATM   10  C   UNL     1     -11.796   2.800 -33.815  1.00  0.00     0.164 A 
HETATM   11  N   UNL     1     -12.079   3.561 -34.892  1.00  0.00    -0.237 NA
HETATM   12  C   UNL     1     -11.112   4.408 -35.295  1.00  0.00     0.120 A 
HETATM   13  C   UNL     1      -9.872   4.518 -34.683  1.00  0.00     0.028 A 
BRANCH  10  14
HETATM   14  O   UNL     1     -12.744   1.911 -33.344  1.00  0.00    -0.329 OA
BRANCH  14  15
HETATM   15  C   UNL     1     -14.094   2.413 -33.250  1.00  0.00     0.130 C 
HETATM   16  C   UNL     1     -15.234   1.367 -33.127  1.00  0.00     0.032 C 
HETATM   17  C   UNL     1     -15.905   2.309 -32.112  1.00  0.00     0.005 C 
HETATM   18  C   UNL     1     -14.508   2.892 -31.834  1.00  0.00     0.032 C 
ENDBRANCH  14  15
ENDBRANCH  10  14
ENDBRANCH   7   8
ENDBRANCH   3   7
BRANCH   1  19
HETATM   19  C   UNL     1      -4.977   0.215 -33.043  1.00  0.00     0.048 A 
HETATM   20  C   UNL     1      -5.272  -1.031 -33.651  1.00  0.00    -0.033 A 
HETATM   21  C   UNL     1      -6.331  -1.185 -34.712  1.00  0.00     0.050 C 
HETATM   22  C   UNL     1      -4.587  -2.188 -33.239  1.00  0.00     0.033 A 
HETATM   23  C   UNL     1      -3.615  -2.117 -32.251  1.00  0.00     0.035 A 
HETATM   24  C   UNL     1      -3.288  -0.893 -31.682  1.00  0.00     0.033 A 
HETATM   25 CL   UNL     1      -2.796  -3.544 -31.748  1.00  0.00    -0.084 Cl
HETATM   26  C   UNL     1      -3.935   0.290 -32.089  1.00  0.00    -0.033 A 
HETATM   27  C   UNL     1      -3.425   1.571 -31.482  1.00  0.00     0.050 C 
ENDBRANCH   1  19
TORSDOF 5
ENDMDL
