MODEL 1
REMARK VINA RESULT:      -8.9      0.000      0.000
REMARK  4 active torsions:
REMARK  status: ('A' for Active; 'I' for Inactive)
REMARK    1  A    between atoms: C_3  and  C_4 
REMARK    2  A    between atoms: C_15  and  C_16 
REMARK       I    between atoms: C_16  and  N_17 
REMARK    3  A    between atoms: N_17  and  C_18 
REMARK    4  A    between atoms: C_18  and  C_19 
ROOT
HETATM    1  C   UNL     1      -6.496   5.974 -31.606  1.00  0.00     0.055 C 
HETATM    2  C   UNL     1      -6.861   4.658 -32.227  1.00  0.00     0.024 A 
HETATM    3  C   UNL     1      -6.085   3.883 -33.007  1.00  0.00     0.096 A 
HETATM    4  O   UNL     1      -6.441   2.643 -33.501  1.00  0.00    -0.307 OA
HETATM    5  C   UNL     1      -7.708   2.166 -33.286  1.00  0.00     0.106 A 
HETATM    6  C   UNL     1      -8.637   2.892 -32.541  1.00  0.00     0.050 A 
HETATM    7  C   UNL     1      -8.232   4.173 -31.938  1.00  0.00     0.193 A 
HETATM    8  O   UNL     1      -9.008   4.812 -31.236  1.00  0.00    -0.287 OA
HETATM    9  C   UNL     1      -8.071   0.918 -33.819  1.00  0.00     0.066 A 
HETATM   10  C   UNL     1      -9.383   0.447 -33.618  1.00  0.00     0.020 A 
HETATM   11  C   UNL     1     -10.313   1.193 -32.894  1.00  0.00     0.002 A 
HETATM   12  C   UNL     1      -9.938   2.415 -32.345  1.00  0.00     0.018 A 
ENDROOT
BRANCH   9  13
HETATM   13  C   UNL     1      -7.139   0.001 -34.549  1.00  0.00     0.255 C 
HETATM   14  N   UNL     1      -6.631  -1.083 -33.873  1.00  0.00    -0.349 N 
HETATM   15  H   UNL     1      -6.909  -1.251 -32.913  1.00  0.00     0.163 HD
HETATM   16  O   UNL     1      -6.859   0.234 -35.722  1.00  0.00    -0.268 OA
BRANCH  14  17
HETATM   17  C   UNL     1      -5.869  -2.121 -34.543  1.00  0.00     0.114 C 
HETATM   18  C   UNL     1      -6.800  -3.247 -35.000  1.00  0.00     0.037 C 
BRANCH  17  19
HETATM   19  C   UNL     1      -4.742  -2.580 -33.641  1.00  0.00    -0.033 A 
HETATM   20  C   UNL     1      -4.245  -3.887 -33.647  1.00  0.00     0.028 A 
HETATM   21  C   UNL     1      -3.222  -4.218 -32.771  1.00  0.00     0.116 A 
HETATM   22  N   UNL     1      -2.673  -3.354 -31.893  1.00  0.00    -0.273 NA
HETATM   23  C   UNL     1      -3.175  -2.102 -31.884  1.00  0.00     0.116 A 
HETATM   24  C   UNL     1      -4.195  -1.676 -32.721  1.00  0.00     0.028 A 
ENDBRANCH  17  19
ENDBRANCH  14  17
ENDBRANCH   9  13
BRANCH   3  25
HETATM   25  C   UNL     1      -4.737   4.281 -33.440  1.00  0.00    -0.002 A 
HETATM   26  C   UNL     1      -3.614   3.917 -32.689  1.00  0.00     0.014 A 
HETATM   27  C   UNL     1      -2.337   4.284 -33.115  1.00  0.00     0.001 A 
HETATM   28  C   UNL     1      -2.171   5.008 -34.295  1.00  0.00     0.000 A 
HETATM   29  C   UNL     1      -3.284   5.365 -35.054  1.00  0.00     0.001 A 
HETATM   30  C   UNL     1      -4.562   5.000 -34.631  1.00  0.00     0.014 A 
ENDBRANCH   3  25
TORSDOF 4
ENDMDL
MODEL 2
REMARK VINA RESULT:      -8.8      2.792      6.834
REMARK  4 active torsions:
REMARK  status: ('A' for Active; 'I' for Inactive)
REMARK    1  A    between atoms: C_3  and  C_4 
REMARK    2  A    between atoms: C_15  and  C_16 
REMARK       I    between atoms: C_16  and  N_17 
REMARK    3  A    between atoms: N_17  and  C_18 
REMARK    4  A    between atoms: C_18  and  C_19 
ROOT
HETATM    1  C   UNL     1      -9.771   0.141 -33.111  1.00  0.00     0.055 C 
HETATM    2  C   UNL     1      -8.296   0.359 -32.958  1.00  0.00     0.024 A 
HETATM    3  C   UNL     1      -7.680   1.455 -32.474  1.00  0.00     0.096 A 
HETATM    4  O   UNL     1      -6.318   1.584 -32.286  1.00  0.00    -0.307 OA
HETATM    5  C   UNL     1      -5.479   0.581 -32.698  1.00  0.00     0.106 A 
HETATM    6  C   UNL     1      -5.978  -0.590 -33.270  1.00  0.00     0.050 A 
HETATM    7  C   UNL     1      -7.434  -0.768 -33.389  1.00  0.00     0.193 A 
HETATM    8  O   UNL     1      -7.907  -1.805 -33.839  1.00  0.00    -0.287 OA
HETATM    9  C   UNL     1      -4.092   0.735 -32.532  1.00  0.00     0.066 A 
HETATM   10  C   UNL     1      -3.234  -0.287 -32.984  1.00  0.00     0.020 A 
HETATM   11  C   UNL     1      -3.742  -1.443 -33.578  1.00  0.00     0.002 A 
HETATM   12  C   UNL     1      -5.117  -1.600 -33.713  1.00  0.00     0.018 A 
ENDROOT
BRANCH   9  13
HETATM   13  C   UNL     1      -3.442   1.896 -31.847  1.00  0.00     0.255 C 
HETATM   14  N   UNL     1      -3.741   3.163 -32.289  1.00  0.00    -0.349 N 
HETATM   15  H   UNL     1      -4.402   3.286 -33.047  1.00  0.00     0.163 HD
HETATM   16  O   UNL     1      -2.671   1.692 -30.912  1.00  0.00    -0.268 OA
BRANCH  14  17
HETATM   17  C   UNL     1      -3.305   4.351 -31.578  1.00  0.00     0.114 C 
HETATM   18  C   UNL     1      -4.494   5.010 -30.872  1.00  0.00     0.037 C 
BRANCH  17  19
HETATM   19  C   UNL     1      -2.568   5.268 -32.531  1.00  0.00    -0.033 A 
HETATM   20  C   UNL     1      -1.981   4.819 -33.719  1.00  0.00     0.028 A 
HETATM   21  C   UNL     1      -1.311   5.733 -34.520  1.00  0.00     0.116 A 
HETATM   22  N   UNL     1      -1.175   7.041 -34.221  1.00  0.00    -0.273 NA
HETATM   23  C   UNL     1      -1.729   7.456 -33.062  1.00  0.00     0.116 A 
HETATM   24  C   UNL     1      -2.419   6.620 -32.197  1.00  0.00     0.028 A 
ENDBRANCH  17  19
ENDBRANCH  14  17
ENDBRANCH   9  13
BRANCH   3  25
HETATM   25  C   UNL     1      -8.407   2.674 -32.088  1.00  0.00    -0.002 A 
HETATM   26  C   UNL     1      -9.021   2.767 -30.835  1.00  0.00     0.014 A 
HETATM   27  C   UNL     1      -9.695   3.933 -30.469  1.00  0.00     0.001 A 
HETATM   28  C   UNL     1      -9.752   5.015 -31.346  1.00  0.00     0.000 A 
HETATM   29  C   UNL     1      -9.133   4.934 -32.592  1.00  0.00     0.001 A 
HETATM   30  C   UNL     1      -8.459   3.769 -32.961  1.00  0.00     0.014 A 
ENDBRANCH   3  25
TORSDOF 4
ENDMDL
MODEL 3
REMARK VINA RESULT:      -8.7      2.531      6.953
REMARK  4 active torsions:
REMARK  status: ('A' for Active; 'I' for Inactive)
REMARK    1  A    between atoms: C_3  and  C_4 
REMARK    2  A    between atoms: C_15  and  C_16 
REMARK       I    between atoms: C_16  and  N_17 
REMARK    3  A    between atoms: N_17  and  C_18 
REMARK    4  A    between atoms: C_18  and  C_19 
ROOT
HETATM    1  C   UNL     1      -3.058  -2.104 -31.873  1.00  0.00     0.055 C 
HETATM    2  C   UNL     1      -3.715  -0.786 -32.155  1.00  0.00     0.024 A 
HETATM    3  C   UNL     1      -4.805  -0.564 -32.913  1.00  0.00     0.096 A 
HETATM    4  O   UNL     1      -5.417   0.662 -33.087  1.00  0.00    -0.307 OA
HETATM    5  C   UNL     1      -4.851   1.785 -32.543  1.00  0.00     0.106 A 
HETATM    6  C   UNL     1      -3.685   1.710 -31.779  1.00  0.00     0.050 A 
HETATM    7  C   UNL     1      -3.082   0.394 -31.517  1.00  0.00     0.193 A 
HETATM    8  O   UNL     1      -2.088   0.286 -30.807  1.00  0.00    -0.287 OA
HETATM    9  C   UNL     1      -5.463   3.033 -32.752  1.00  0.00     0.066 A 
HETATM   10  C   UNL     1      -4.860   4.186 -32.214  1.00  0.00     0.020 A 
HETATM   11  C   UNL     1      -3.680   4.103 -31.473  1.00  0.00     0.002 A 
HETATM   12  C   UNL     1      -3.096   2.862 -31.246  1.00  0.00     0.018 A 
ENDROOT
BRANCH   9  13
HETATM   13  C   UNL     1      -6.763   3.232 -33.467  1.00  0.00     0.255 C 
HETATM   14  N   UNL     1      -7.907   2.743 -32.884  1.00  0.00    -0.349 N 
HETATM   15  H   UNL     1      -7.853   2.280 -31.984  1.00  0.00     0.163 HD
HETATM   16  O   UNL     1      -6.776   3.828 -34.541  1.00  0.00    -0.268 OA
BRANCH  14  17
HETATM   17  C   UNL     1      -9.228   3.042 -33.406  1.00  0.00     0.114 C 
HETATM   18  C   UNL     1      -9.816   4.260 -32.687  1.00  0.00     0.037 C 
BRANCH  17  19
HETATM   19  C   UNL     1     -10.094   1.803 -33.330  1.00  0.00    -0.033 A 
HETATM   20  C   UNL     1     -11.442   1.790 -33.701  1.00  0.00     0.028 A 
HETATM   21  C   UNL     1     -12.159   0.609 -33.578  1.00  0.00     0.116 A 
HETATM   22  N   UNL     1     -11.639  -0.543 -33.106  1.00  0.00    -0.273 NA
HETATM   23  C   UNL     1     -10.343  -0.512 -32.733  1.00  0.00     0.116 A 
HETATM   24  C   UNL     1      -9.544   0.618 -32.820  1.00  0.00     0.028 A 
ENDBRANCH  17  19
ENDBRANCH  14  17
ENDBRANCH   9  13
BRANCH   3  25
HETATM   25  C   UNL     1      -5.482  -1.629 -33.669  1.00  0.00    -0.002 A 
HETATM   26  C   UNL     1      -6.876  -1.643 -33.781  1.00  0.00     0.014 A 
HETATM   27  C   UNL     1      -7.511  -2.647 -34.514  1.00  0.00     0.001 A 
HETATM   28  C   UNL     1      -6.759  -3.637 -35.146  1.00  0.00     0.000 A 
HETATM   29  C   UNL     1      -5.369  -3.624 -35.047  1.00  0.00     0.001 A 
HETATM   30  C   UNL     1      -4.732  -2.622 -34.315  1.00  0.00     0.014 A 
ENDBRANCH   3  25
TORSDOF 4
ENDMDL
MODEL 4
REMARK VINA RESULT:      -8.6      1.621      2.392
REMARK  4 active torsions:
REMARK  status: ('A' for Active; 'I' for Inactive)
REMARK    1  A    between atoms: C_3  and  C_4 
REMARK    2  A    between atoms: C_15  and  C_16 
REMARK       I    between atoms: C_16  and  N_17 
REMARK    3  A    between atoms: N_17  and  C_18 
REMARK    4  A    between atoms: C_18  and  C_19 
ROOT
HETATM    1  C   UNL     1      -6.306   6.646 -32.465  1.00  0.00     0.055 C 
HETATM    2  C   UNL     1      -6.580   5.172 -32.442  1.00  0.00     0.024 A 
HETATM    3  C   UNL     1      -5.676   4.176 -32.409  1.00  0.00     0.096 A 
HETATM    4  O   UNL     1      -5.978   2.831 -32.318  1.00  0.00    -0.307 OA
HETATM    5  C   UNL     1      -7.287   2.425 -32.359  1.00  0.00     0.106 A 
HETATM    6  C   UNL     1      -8.328   3.350 -32.451  1.00  0.00     0.050 A 
HETATM    7  C   UNL     1      -8.013   4.788 -32.457  1.00  0.00     0.193 A 
HETATM    8  O   UNL     1      -8.905   5.628 -32.485  1.00  0.00    -0.287 OA
HETATM    9  C   UNL     1      -7.582   1.053 -32.299  1.00  0.00     0.066 A 
HETATM   10  C   UNL     1      -8.928   0.642 -32.370  1.00  0.00     0.020 A 
HETATM   11  C   UNL     1      -9.960   1.574 -32.488  1.00  0.00     0.002 A 
HETATM   12  C   UNL     1      -9.661   2.932 -32.519  1.00  0.00     0.018 A 
ENDROOT
BRANCH   9  13
HETATM   13  C   UNL     1      -6.565  -0.028 -32.101  1.00  0.00     0.255 C 
HETATM   14  N   UNL     1      -5.825  -0.429 -33.188  1.00  0.00    -0.349 N 
HETATM   15  H   UNL     1      -5.965   0.021 -34.085  1.00  0.00     0.163 HD
HETATM   16  O   UNL     1      -6.414  -0.519 -30.986  1.00  0.00    -0.268 OA
BRANCH  14  17
HETATM   17  C   UNL     1      -4.698  -1.336 -33.060  1.00  0.00     0.114 C 
HETATM   18  C   UNL     1      -3.416  -0.656 -33.551  1.00  0.00     0.037 C 
BRANCH  17  19
HETATM   19  C   UNL     1      -5.015  -2.637 -33.767  1.00  0.00    -0.033 A 
HETATM   20  C   UNL     1      -6.190  -2.841 -34.498  1.00  0.00     0.028 A 
HETATM   21  C   UNL     1      -6.400  -4.075 -35.095  1.00  0.00     0.116 A 
HETATM   22  N   UNL     1      -5.541  -5.111 -35.008  1.00  0.00    -0.273 NA
HETATM   23  C   UNL     1      -4.421  -4.907 -34.283  1.00  0.00     0.116 A 
HETATM   24  C   UNL     1      -4.122  -3.711 -33.651  1.00  0.00     0.028 A 
ENDBRANCH  17  19
ENDBRANCH  14  17
ENDBRANCH   9  13
BRANCH   3  25
HETATM   25  C   UNL     1      -4.226   4.411 -32.474  1.00  0.00    -0.002 A 
HETATM   26  C   UNL     1      -3.581   4.528 -33.710  1.00  0.00     0.014 A 
HETATM   27  C   UNL     1      -2.207   4.769 -33.764  1.00  0.00     0.001 A 
HETATM   28  C   UNL     1      -1.471   4.903 -32.588  1.00  0.00     0.000 A 
HETATM   29  C   UNL     1      -2.108   4.799 -31.353  1.00  0.00     0.001 A 
HETATM   30  C   UNL     1      -3.481   4.558 -31.295  1.00  0.00     0.014 A 
ENDBRANCH   3  25
TORSDOF 4
ENDMDL
MODEL 5
REMARK VINA RESULT:      -8.5      2.792      6.908
REMARK  4 active torsions:
REMARK  status: ('A' for Active; 'I' for Inactive)
REMARK    1  A    between atoms: C_3  and  C_4 
REMARK    2  A    between atoms: C_15  and  C_16 
REMARK       I    between atoms: C_16  and  N_17 
REMARK    3  A    between atoms: N_17  and  C_18 
REMARK    4  A    between atoms: C_18  and  C_19 
ROOT
HETATM    1  C   UNL     1      -2.676   0.120 -32.648  1.00  0.00     0.055 C 
HETATM    2  C   UNL     1      -3.938   0.861 -32.316  1.00  0.00     0.024 A 
HETATM    3  C   UNL     1      -5.201   0.476 -32.578  1.00  0.00     0.096 A 
HETATM    4  O   UNL     1      -6.337   1.160 -32.190  1.00  0.00    -0.307 OA
HETATM    5  C   UNL     1      -6.217   2.379 -31.574  1.00  0.00     0.106 A 
HETATM    6  C   UNL     1      -4.965   2.926 -31.292  1.00  0.00     0.050 A 
HETATM    7  C   UNL     1      -3.753   2.158 -31.622  1.00  0.00     0.193 A 
HETATM    8  O   UNL     1      -2.640   2.587 -31.342  1.00  0.00    -0.287 OA
HETATM    9  C   UNL     1      -7.378   3.082 -31.213  1.00  0.00     0.066 A 
HETATM   10  C   UNL     1      -7.248   4.347 -30.605  1.00  0.00     0.020 A 
HETATM   11  C   UNL     1      -5.991   4.896 -30.351  1.00  0.00     0.002 A 
HETATM   12  C   UNL     1      -4.846   4.182 -30.686  1.00  0.00     0.018 A 
ENDROOT
BRANCH   9  13
HETATM   13  C   UNL     1      -8.772   2.560 -31.371  1.00  0.00     0.255 C 
HETATM   14  N   UNL     1      -9.055   1.786 -32.472  1.00  0.00    -0.349 N 
HETATM   15  H   UNL     1      -8.321   1.570 -33.135  1.00  0.00     0.163 HD
HETATM   16  O   UNL     1      -9.617   2.826 -30.521  1.00  0.00    -0.268 OA
BRANCH  14  17
HETATM   17  C   UNL     1     -10.320   1.089 -32.620  1.00  0.00     0.114 C 
HETATM   18  C   UNL     1     -10.077  -0.413 -32.792  1.00  0.00     0.037 C 
BRANCH  17  19
HETATM   19  C   UNL     1     -11.114   1.719 -33.745  1.00  0.00    -0.033 A 
HETATM   20  C   UNL     1     -10.680   2.849 -34.445  1.00  0.00     0.028 A 
HETATM   21  C   UNL     1     -11.486   3.365 -35.449  1.00  0.00     0.116 A 
HETATM   22  N   UNL     1     -12.684   2.849 -35.794  1.00  0.00    -0.273 NA
HETATM   23  C   UNL     1     -13.100   1.771 -35.097  1.00  0.00     0.116 A 
HETATM   24  C   UNL     1     -12.365   1.183 -34.079  1.00  0.00     0.028 A 
ENDBRANCH  17  19
ENDBRANCH  14  17
ENDBRANCH   9  13
BRANCH   3  25
HETATM   25  C   UNL     1      -5.524  -0.745 -33.331  1.00  0.00    -0.002 A 
HETATM   26  C   UNL     1      -6.782  -0.903 -33.921  1.00  0.00     0.014 A 
HETATM   27  C   UNL     1      -7.076  -2.056 -34.649  1.00  0.00     0.001 A 
HETATM   28  C   UNL     1      -6.115  -3.054 -34.801  1.00  0.00     0.000 A 
HETATM   29  C   UNL     1      -4.855  -2.900 -34.226  1.00  0.00     0.001 A 
HETATM   30  C   UNL     1      -4.558  -1.748 -33.497  1.00  0.00     0.014 A 
ENDBRANCH   3  25
TORSDOF 4
ENDMDL
MODEL 6
REMARK VINA RESULT:      -8.5     15.595     17.648
REMARK  4 active torsions:
REMARK  status: ('A' for Active; 'I' for Inactive)
REMARK    1  A    between atoms: C_3  and  C_4 
REMARK    2  A    between atoms: C_15  and  C_16 
REMARK       I    between atoms: C_16  and  N_17 
REMARK    3  A    between atoms: N_17  and  C_18 
REMARK    4  A    between atoms: C_18  and  C_19 
ROOT
HETATM    1  C   UNL     1      -5.514 -13.948 -42.088  1.00  0.00     0.055 C 
HETATM    2  C   UNL     1      -4.538 -14.062 -40.955  1.00  0.00     0.024 A 
HETATM    3  C   UNL     1      -4.817 -14.084 -39.638  1.00  0.00     0.096 A 
HETATM    4  O   UNL     1      -3.888 -14.261 -38.631  1.00  0.00    -0.307 OA
HETATM    5  C   UNL     1      -2.555 -14.328 -38.943  1.00  0.00     0.106 A 
HETATM    6  C   UNL     1      -2.118 -14.261 -40.267  1.00  0.00     0.050 A 
HETATM    7  C   UNL     1      -3.112 -14.163 -41.348  1.00  0.00     0.193 A 
HETATM    8  O   UNL     1      -2.765 -14.155 -42.524  1.00  0.00    -0.287 OA
HETATM    9  C   UNL     1      -1.615 -14.476 -37.910  1.00  0.00     0.066 A 
HETATM   10  C   UNL     1      -0.245 -14.515 -38.235  1.00  0.00     0.020 A 
HETATM   11  C   UNL     1       0.183 -14.422 -39.560  1.00  0.00     0.002 A 
HETATM   12  C   UNL     1      -0.755 -14.304 -40.580  1.00  0.00     0.018 A 
ENDROOT
BRANCH   9  13
HETATM   13  C   UNL     1      -1.962 -14.657 -36.464  1.00  0.00     0.255 C 
HETATM   14  N   UNL     1      -3.190 -15.190 -36.153  1.00  0.00    -0.349 N 
HETATM   15  H   UNL     1      -3.821 -15.466 -36.897  1.00  0.00     0.163 HD
HETATM   16  O   UNL     1      -1.148 -14.335 -35.603  1.00  0.00    -0.268 OA
BRANCH  14  17
HETATM   17  C   UNL     1      -3.545 -15.570 -34.797  1.00  0.00     0.114 C 
HETATM   18  C   UNL     1      -3.453 -17.089 -34.634  1.00  0.00     0.037 C 
BRANCH  17  19
HETATM   19  C   UNL     1      -4.901 -14.992 -34.450  1.00  0.00    -0.033 A 
HETATM   20  C   UNL     1      -5.644 -15.407 -33.341  1.00  0.00     0.028 A 
HETATM   21  C   UNL     1      -6.887 -14.831 -33.115  1.00  0.00     0.116 A 
HETATM   22  N   UNL     1      -7.439 -13.893 -33.912  1.00  0.00    -0.273 NA
HETATM   23  C   UNL     1      -6.719 -13.517 -34.989  1.00  0.00     0.116 A 
HETATM   24  C   UNL     1      -5.469 -14.032 -35.298  1.00  0.00     0.028 A 
ENDBRANCH  17  19
ENDBRANCH  14  17
ENDBRANCH   9  13
BRANCH   3  25
HETATM   25  C   UNL     1      -6.178 -13.909 -39.108  1.00  0.00    -0.002 A 
HETATM   26  C   UNL     1      -6.941 -15.020 -38.734  1.00  0.00     0.014 A 
HETATM   27  C   UNL     1      -8.225 -14.845 -38.214  1.00  0.00     0.001 A 
HETATM   28  C   UNL     1      -8.751 -13.564 -38.058  1.00  0.00     0.000 A 
HETATM   29  C   UNL     1      -7.992 -12.452 -38.419  1.00  0.00     0.001 A 
HETATM   30  C   UNL     1      -6.709 -12.623 -38.938  1.00  0.00     0.014 A 
ENDBRANCH   3  25
TORSDOF 4
ENDMDL
MODEL 7
REMARK VINA RESULT:      -8.4      3.404      7.578
REMARK  4 active torsions:
REMARK  status: ('A' for Active; 'I' for Inactive)
REMARK    1  A    between atoms: C_3  and  C_4 
REMARK    2  A    between atoms: C_15  and  C_16 
REMARK       I    between atoms: C_16  and  N_17 
REMARK    3  A    between atoms: N_17  and  C_18 
REMARK    4  A    between atoms: C_18  and  C_19 
ROOT
HETATM    1  C   UNL     1      -3.360  -0.534 -32.148  1.00  0.00     0.055 C 
HETATM    2  C   UNL     1      -4.747   0.034 -32.174  1.00  0.00     0.024 A 
HETATM    3  C   UNL     1      -5.833  -0.495 -32.768  1.00  0.00     0.096 A 
HETATM    4  O   UNL     1      -7.109   0.031 -32.706  1.00  0.00    -0.307 OA
HETATM    5  C   UNL     1      -7.317   1.234 -32.083  1.00  0.00     0.106 A 
HETATM    6  C   UNL     1      -6.269   1.922 -31.472  1.00  0.00     0.050 A 
HETATM    7  C   UNL     1      -4.925   1.321 -31.458  1.00  0.00     0.193 A 
HETATM    8  O   UNL     1      -3.993   1.875 -30.886  1.00  0.00    -0.287 OA
HETATM    9  C   UNL     1      -8.613   1.776 -32.053  1.00  0.00     0.066 A 
HETATM   10  C   UNL     1      -8.814   3.026 -31.436  1.00  0.00     0.020 A 
HETATM   11  C   UNL     1      -7.754   3.718 -30.850  1.00  0.00     0.002 A 
HETATM   12  C   UNL     1      -6.480   3.162 -30.859  1.00  0.00     0.018 A 
ENDROOT
BRANCH   9  13
HETATM   13  C   UNL     1      -9.834   1.091 -32.584  1.00  0.00     0.255 C 
HETATM   14  N   UNL     1     -10.907   1.868 -32.951  1.00  0.00    -0.349 N 
HETATM   15  H   UNL     1     -10.845   2.876 -32.875  1.00  0.00     0.163 HD
HETATM   16  O   UNL     1      -9.844  -0.133 -32.684  1.00  0.00    -0.268 OA
BRANCH  14  17
HETATM   17  C   UNL     1     -12.059   1.315 -33.641  1.00  0.00     0.114 C 
HETATM   18  C   UNL     1     -11.901   1.490 -35.154  1.00  0.00     0.037 C 
BRANCH  17  19
HETATM   19  C   UNL     1     -13.325   1.926 -33.077  1.00  0.00    -0.033 A 
HETATM   20  C   UNL     1     -14.579   1.319 -33.190  1.00  0.00     0.028 A 
HETATM   21  C   UNL     1     -15.685   1.965 -32.657  1.00  0.00     0.116 A 
HETATM   22  N   UNL     1     -15.633   3.162 -32.038  1.00  0.00    -0.273 NA
HETATM   23  C   UNL     1     -14.419   3.745 -31.954  1.00  0.00     0.116 A 
HETATM   24  C   UNL     1     -13.257   3.179 -32.454  1.00  0.00     0.028 A 
ENDBRANCH  17  19
ENDBRANCH  14  17
ENDBRANCH   9  13
BRANCH   3  25
HETATM   25  C   UNL     1      -5.781  -1.721 -33.579  1.00  0.00    -0.002 A 
HETATM   26  C   UNL     1      -4.568  -2.386 -33.782  1.00  0.00     0.014 A 
HETATM   27  C   UNL     1      -4.529  -3.559 -34.538  1.00  0.00     0.001 A 
HETATM   28  C   UNL     1      -5.700  -4.078 -35.089  1.00  0.00     0.000 A 
HETATM   29  C   UNL     1      -6.914  -3.426 -34.882  1.00  0.00     0.001 A 
HETATM   30  C   UNL     1      -6.956  -2.254 -34.127  1.00  0.00     0.014 A 
ENDBRANCH   3  25
TORSDOF 4
ENDMDL
MODEL 8
REMARK VINA RESULT:      -8.2      2.604      6.351
REMARK  4 active torsions:
REMARK  status: ('A' for Active; 'I' for Inactive)
REMARK    1  A    between atoms: C_3  and  C_4 
REMARK    2  A    between atoms: C_15  and  C_16 
REMARK       I    between atoms: C_16  and  N_17 
REMARK    3  A    between atoms: N_17  and  C_18 
REMARK    4  A    between atoms: C_18  and  C_19 
ROOT
HETATM    1  C   UNL     1      -2.566   0.326 -30.825  1.00  0.00     0.055 C 
HETATM    2  C   UNL     1      -3.747   0.057 -31.709  1.00  0.00     0.024 A 
HETATM    3  C   UNL     1      -4.759   0.898 -31.995  1.00  0.00     0.096 A 
HETATM    4  O   UNL     1      -5.792   0.629 -32.873  1.00  0.00    -0.307 OA
HETATM    5  C   UNL     1      -5.888  -0.612 -33.447  1.00  0.00     0.106 A 
HETATM    6  C   UNL     1      -4.937  -1.602 -33.193  1.00  0.00     0.050 A 
HETATM    7  C   UNL     1      -3.787  -1.289 -32.330  1.00  0.00     0.193 A 
HETATM    8  O   UNL     1      -2.907  -2.119 -32.128  1.00  0.00    -0.287 OA
HETATM    9  C   UNL     1      -6.960  -0.886 -34.313  1.00  0.00     0.066 A 
HETATM   10  C   UNL     1      -7.068  -2.173 -34.877  1.00  0.00     0.020 A 
HETATM   11  C   UNL     1      -6.126  -3.163 -34.596  1.00  0.00     0.002 A 
HETATM   12  C   UNL     1      -5.053  -2.876 -33.760  1.00  0.00     0.018 A 
ENDROOT
BRANCH   9  13
HETATM   13  C   UNL     1      -7.986   0.117 -34.740  1.00  0.00     0.255 C 
HETATM   14  N   UNL     1      -8.678   0.794 -33.765  1.00  0.00    -0.349 N 
HETATM   15  H   UNL     1      -8.471   0.618 -32.788  1.00  0.00     0.163 HD
HETATM   16  O   UNL     1      -8.176   0.314 -35.937  1.00  0.00    -0.268 OA
BRANCH  14  17
HETATM   17  C   UNL     1      -9.557   1.907 -34.074  1.00  0.00     0.114 C 
HETATM   18  C   UNL     1      -9.341   3.045 -33.072  1.00  0.00     0.037 C 
BRANCH  17  19
HETATM   19  C   UNL     1     -10.987   1.414 -34.150  1.00  0.00    -0.033 A 
HETATM   20  C   UNL     1     -11.986   2.082 -34.865  1.00  0.00     0.028 A 
HETATM   21  C   UNL     1     -13.273   1.562 -34.861  1.00  0.00     0.116 A 
HETATM   22  N   UNL     1     -13.633   0.447 -34.194  1.00  0.00    -0.273 NA
HETATM   23  C   UNL     1     -12.663  -0.176 -33.492  1.00  0.00     0.116 A 
HETATM   24  C   UNL     1     -11.350   0.264 -33.437  1.00  0.00     0.028 A 
ENDBRANCH  17  19
ENDBRANCH  14  17
ENDBRANCH   9  13
BRANCH   3  25
HETATM   25  C   UNL     1      -4.887   2.229 -31.385  1.00  0.00    -0.002 A 
HETATM   26  C   UNL     1      -4.267   3.339 -31.967  1.00  0.00     0.014 A 
HETATM   27  C   UNL     1      -4.407   4.603 -31.392  1.00  0.00     0.001 A 
HETATM   28  C   UNL     1      -5.174   4.768 -30.239  1.00  0.00     0.000 A 
HETATM   29  C   UNL     1      -5.804   3.669 -29.659  1.00  0.00     0.001 A 
HETATM   30  C   UNL     1      -5.665   2.404 -30.232  1.00  0.00     0.014 A 
ENDBRANCH   3  25
TORSDOF 4
ENDMDL
MODEL 9
REMARK VINA RESULT:      -8.1      1.724      2.437
REMARK  4 active torsions:
REMARK  status: ('A' for Active; 'I' for Inactive)
REMARK    1  A    between atoms: C_3  and  C_4 
REMARK    2  A    between atoms: C_15  and  C_16 
REMARK       I    between atoms: C_16  and  N_17 
REMARK    3  A    between atoms: N_17  and  C_18 
REMARK    4  A    between atoms: C_18  and  C_19 
ROOT
HETATM    1  C   UNL     1      -5.171   7.356 -31.231  1.00  0.00     0.055 C 
HETATM    2  C   UNL     1      -5.906   6.063 -31.417  1.00  0.00     0.024 A 
HETATM    3  C   UNL     1      -5.509   4.996 -32.136  1.00  0.00     0.096 A 
HETATM    4  O   UNL     1      -6.191   3.798 -32.222  1.00  0.00    -0.307 OA
HETATM    5  C   UNL     1      -7.417   3.670 -31.624  1.00  0.00     0.106 A 
HETATM    6  C   UNL     1      -7.977   4.718 -30.892  1.00  0.00     0.050 A 
HETATM    7  C   UNL     1      -7.214   5.965 -30.723  1.00  0.00     0.193 A 
HETATM    8  O   UNL     1      -7.654   6.886 -30.045  1.00  0.00    -0.287 OA
HETATM    9  C   UNL     1      -8.117   2.458 -31.744  1.00  0.00     0.066 A 
HETATM   10  C   UNL     1      -9.390   2.344 -31.150  1.00  0.00     0.020 A 
HETATM   11  C   UNL     1      -9.951   3.407 -30.443  1.00  0.00     0.002 A 
HETATM   12  C   UNL     1      -9.241   4.594 -30.305  1.00  0.00     0.018 A 
ENDROOT
BRANCH   9  13
HETATM   13  C   UNL     1      -7.583   1.231 -32.416  1.00  0.00     0.255 C 
HETATM   14  N   UNL     1      -6.834   1.390 -33.558  1.00  0.00    -0.349 N 
HETATM   15  H   UNL     1      -6.643   2.322 -33.907  1.00  0.00     0.163 HD
HETATM   16  O   UNL     1      -7.818   0.127 -31.933  1.00  0.00    -0.268 OA
BRANCH  14  17
HETATM   17  C   UNL     1      -6.127   0.283 -34.176  1.00  0.00     0.114 C 
HETATM   18  C   UNL     1      -7.111  -0.828 -34.552  1.00  0.00     0.037 C 
BRANCH  17  19
HETATM   19  C   UNL     1      -5.004  -0.169 -33.265  1.00  0.00    -0.033 A 
HETATM   20  C   UNL     1      -4.201   0.721 -32.546  1.00  0.00     0.028 A 
HETATM   21  C   UNL     1      -3.184   0.212 -31.751  1.00  0.00     0.116 A 
HETATM   22  N   UNL     1      -2.906  -1.102 -31.632  1.00  0.00    -0.273 NA
HETATM   23  C   UNL     1      -3.677  -1.949 -32.347  1.00  0.00     0.116 A 
HETATM   24  C   UNL     1      -4.716  -1.537 -33.167  1.00  0.00     0.028 A 
ENDBRANCH  17  19
ENDBRANCH  14  17
ENDBRANCH   9  13
BRANCH   3  25
HETATM   25  C   UNL     1      -4.278   4.988 -32.939  1.00  0.00    -0.002 A 
HETATM   26  C   UNL     1      -3.061   4.602 -32.367  1.00  0.00     0.014 A 
HETATM   27  C   UNL     1      -1.898   4.580 -33.140  1.00  0.00     0.001 A 
HETATM   28  C   UNL     1      -1.945   4.935 -34.487  1.00  0.00     0.000 A 
HETATM   29  C   UNL     1      -3.155   5.311 -35.067  1.00  0.00     0.001 A 
HETATM   30  C   UNL     1      -4.318   5.334 -34.297  1.00  0.00     0.014 A 
ENDBRANCH   3  25
TORSDOF 4
ENDMDL
MODEL 10
REMARK VINA RESULT:      -8.0      5.283      8.647
REMARK  4 active torsions:
REMARK  status: ('A' for Active; 'I' for Inactive)
REMARK    1  A    between atoms: C_3  and  C_4 
REMARK    2  A    between atoms: C_15  and  C_16 
REMARK       I    between atoms: C_16  and  N_17 
REMARK    3  A    between atoms: N_17  and  C_18 
REMARK    4  A    between atoms: C_18  and  C_19 
ROOT
HETATM    1  C   UNL     1       1.019   5.118 -30.458  1.00  0.00     0.055 C 
HETATM    2  C   UNL     1      -0.188   5.847 -29.947  1.00  0.00     0.024 A 
HETATM    3  C   UNL     1      -1.329   6.103 -30.615  1.00  0.00     0.096 A 
HETATM    4  O   UNL     1      -2.443   6.718 -30.079  1.00  0.00    -0.307 OA
HETATM    5  C   UNL     1      -2.396   7.211 -28.800  1.00  0.00     0.106 A 
HETATM    6  C   UNL     1      -1.255   7.067 -28.011  1.00  0.00     0.050 A 
HETATM    7  C   UNL     1      -0.098   6.332 -28.548  1.00  0.00     0.193 A 
HETATM    8  O   UNL     1       0.901   6.143 -27.863  1.00  0.00    -0.287 OA
HETATM    9  C   UNL     1      -3.524   7.864 -28.275  1.00  0.00     0.066 A 
HETATM   10  C   UNL     1      -3.459   8.393 -26.971  1.00  0.00     0.020 A 
HETATM   11  C   UNL     1      -2.303   8.266 -26.199  1.00  0.00     0.002 A 
HETATM   12  C   UNL     1      -1.201   7.593 -26.716  1.00  0.00     0.018 A 
ENDROOT
BRANCH   9  13
HETATM   13  C   UNL     1      -4.837   7.996 -28.982  1.00  0.00     0.255 C 
HETATM   14  N   UNL     1      -5.289   6.925 -29.716  1.00  0.00    -0.349 N 
HETATM   15  H   UNL     1      -4.744   6.072 -29.748  1.00  0.00     0.163 HD
HETATM   16  O   UNL     1      -5.473   9.041 -28.885  1.00  0.00    -0.268 OA
BRANCH  14  17
HETATM   17  C   UNL     1      -6.624   6.890 -30.286  1.00  0.00     0.114 C 
HETATM   18  C   UNL     1      -7.610   6.286 -29.281  1.00  0.00     0.037 C 
BRANCH  17  19
HETATM   19  C   UNL     1      -6.585   6.173 -31.619  1.00  0.00    -0.033 A 
HETATM   20  C   UNL     1      -7.615   5.339 -32.066  1.00  0.00     0.028 A 
HETATM   21  C   UNL     1      -7.480   4.711 -33.297  1.00  0.00     0.116 A 
HETATM   22  N   UNL     1      -6.402   4.843 -34.096  1.00  0.00    -0.273 NA
HETATM   23  C   UNL     1      -5.407   5.636 -33.643  1.00  0.00     0.116 A 
HETATM   24  C   UNL     1      -5.450   6.306 -32.431  1.00  0.00     0.028 A 
ENDBRANCH  17  19
ENDBRANCH  14  17
ENDBRANCH   9  13
BRANCH   3  25
HETATM   25  C   UNL     1      -1.520   5.753 -32.030  1.00  0.00    -0.002 A 
HETATM   26  C   UNL     1      -1.099   6.624 -33.040  1.00  0.00     0.014 A 
HETATM   27  C   UNL     1      -1.268   6.278 -34.381  1.00  0.00     0.001 A 
HETATM   28  C   UNL     1      -1.851   5.058 -34.723  1.00  0.00     0.000 A 
HETATM   29  C   UNL     1      -2.264   4.180 -33.723  1.00  0.00     0.001 A 
HETATM   30  C   UNL     1      -2.096   4.523 -32.381  1.00  0.00     0.014 A 
ENDBRANCH   3  25
TORSDOF 4
ENDMDL
