MODEL 1
REMARK VINA RESULT:      -8.5      0.000      0.000
REMARK  4 active torsions:
REMARK  status: ('A' for Active; 'I' for Inactive)
REMARK    1  A    between atoms: C_2  and  C_3 
REMARK    2  A    between atoms: C_7  and  N_8 
REMARK    3  A    between atoms: C_10  and  C_11 
REMARK    4  A    between atoms: C_21  and  C_22 
ROOT
HETATM    1  C   UNL     1      -4.873  -2.896 -33.904  1.00  0.00     0.079 A 
HETATM    2  S   UNL     1      -3.669  -1.951 -33.143  1.00  0.00    -0.064 SA
HETATM    3  C   UNL     1      -4.614  -0.543 -33.224  1.00  0.00     0.112 A 
HETATM    4  C   UNL     1      -5.853  -0.744 -33.820  1.00  0.00     0.043 A 
HETATM    5  C   UNL     1      -5.979  -2.121 -34.220  1.00  0.00     0.060 A 
HETATM    6  N   UNL     1      -4.129   0.608 -32.724  1.00  0.00    -0.240 NA
HETATM    7  C   UNL     1      -4.952   1.671 -32.796  1.00  0.00     0.069 A 
HETATM    8  C   UNL     1      -6.218   1.599 -33.368  1.00  0.00     0.049 A 
HETATM    9  C   UNL     1      -6.706   0.387 -33.901  1.00  0.00     0.065 A 
ENDROOT
BRANCH   7  10
HETATM   10  C   UNL     1      -4.409   2.924 -32.227  1.00  0.00    -0.004 A 
HETATM   11  C   UNL     1      -3.017   3.089 -32.068  1.00  0.00     0.053 A 
HETATM   12  C   UNL     1      -2.538   4.267 -31.533  1.00  0.00     0.106 A 
HETATM   13  C   UNL     1      -3.379   5.281 -31.147  1.00  0.00     0.105 A 
HETATM   14  O   UNL     1      -1.229   4.572 -31.325  1.00  0.00    -0.323 OA
HETATM   15  O   UNL     1      -2.708   6.352 -30.645  1.00  0.00    -0.323 OA
HETATM   16  C   UNL     1      -4.744   5.172 -31.271  1.00  0.00     0.040 A 
HETATM   17  C   UNL     1      -1.345   5.891 -30.752  1.00  0.00     0.352 A 
HETATM   18  C   UNL     1      -5.257   3.985 -31.812  1.00  0.00     0.017 A 
ENDBRANCH   7  10
BRANCH   9  19
HETATM   19  C   UNL     1      -8.099   0.343 -34.470  1.00  0.00     0.418 C 
HETATM   20  F   UNL     1      -8.155  -0.169 -35.732  1.00  0.00    -0.166 F 
HETATM   21  F   UNL     1      -8.948  -0.408 -33.718  1.00  0.00    -0.166 F 
HETATM   22  F   UNL     1      -8.678   1.575 -34.556  1.00  0.00    -0.166 F 
ENDBRANCH   9  19
BRANCH   1  23
HETATM   23  C   UNL     1      -4.676  -4.319 -34.175  1.00  0.00     0.164 C 
HETATM   24  C   UNL     1      -3.361  -4.966 -33.800  1.00  0.00     0.097 C 
HETATM   25  O   UNL     1      -5.547  -5.014 -34.709  1.00  0.00    -0.292 OA
ENDBRANCH   1  23
BRANCH   5  26
HETATM   26  N   UNL     1      -7.069  -2.634 -34.839  1.00  0.00    -0.397 N 
HETATM   27  H   UNL     1      -7.062  -2.919 -35.817  1.00  0.00     0.156 HD
HETATM   28  H   UNL     1      -7.731  -3.196 -34.292  1.00  0.00     0.156 HD
ENDBRANCH   5  26
TORSDOF 4
ENDMDL
MODEL 2
REMARK VINA RESULT:      -8.3      5.009      8.005
REMARK  4 active torsions:
REMARK  status: ('A' for Active; 'I' for Inactive)
REMARK    1  A    between atoms: C_2  and  C_3 
REMARK    2  A    between atoms: C_7  and  N_8 
REMARK    3  A    between atoms: C_10  and  C_11 
REMARK    4  A    between atoms: C_21  and  C_22 
ROOT
HETATM    1  C   UNL     1     -11.468   4.931 -34.710  1.00  0.00     0.079 A 
HETATM    2  S   UNL     1      -9.776   4.716 -34.605  1.00  0.00    -0.064 SA
HETATM    3  C   UNL     1      -9.931   3.076 -34.192  1.00  0.00     0.112 A 
HETATM    4  C   UNL     1     -11.251   2.648 -34.123  1.00  0.00     0.043 A 
HETATM    5  C   UNL     1     -12.132   3.748 -34.418  1.00  0.00     0.060 A 
HETATM    6  N   UNL     1      -8.825   2.340 -33.980  1.00  0.00    -0.240 NA
HETATM    7  C   UNL     1      -9.032   1.043 -33.689  1.00  0.00     0.069 A 
HETATM    8  C   UNL     1     -10.306   0.492 -33.593  1.00  0.00     0.049 A 
HETATM    9  C   UNL     1     -11.457   1.281 -33.804  1.00  0.00     0.065 A 
ENDROOT
BRANCH   7  10
HETATM   10  C   UNL     1      -7.805   0.244 -33.476  1.00  0.00    -0.004 A 
HETATM   11  C   UNL     1      -7.378  -0.679 -34.453  1.00  0.00     0.053 A 
HETATM   12  C   UNL     1      -6.230  -1.412 -34.227  1.00  0.00     0.106 A 
HETATM   13  C   UNL     1      -5.495  -1.269 -33.077  1.00  0.00     0.105 A 
HETATM   14  O   UNL     1      -5.695  -2.331 -35.074  1.00  0.00    -0.323 OA
HETATM   15  O   UNL     1      -4.406  -2.081 -33.051  1.00  0.00    -0.323 OA
HETATM   16  C   UNL     1      -5.869  -0.391 -32.088  1.00  0.00     0.040 A 
HETATM   17  C   UNL     1      -4.544  -2.759 -34.318  1.00  0.00     0.352 A 
HETATM   18  C   UNL     1      -7.031   0.366 -32.291  1.00  0.00     0.017 A 
ENDBRANCH   7  10
BRANCH   9  19
HETATM   19  C   UNL     1     -12.814   0.635 -33.735  1.00  0.00     0.418 C 
HETATM   20  F   UNL     1     -13.659   1.238 -32.851  1.00  0.00    -0.166 F 
HETATM   21  F   UNL     1     -13.456   0.634 -34.933  1.00  0.00    -0.166 F 
HETATM   22  F   UNL     1     -12.762  -0.672 -33.346  1.00  0.00    -0.166 F 
ENDBRANCH   9  19
BRANCH   1  23
HETATM   23  C   UNL     1     -12.059   6.225 -35.042  1.00  0.00     0.164 C 
HETATM   24  C   UNL     1     -11.205   7.274 -35.718  1.00  0.00     0.097 C 
HETATM   25  O   UNL     1     -13.236   6.498 -34.781  1.00  0.00    -0.292 OA
ENDBRANCH   1  23
BRANCH   5  26
HETATM   26  N   UNL     1     -13.483   3.657 -34.422  1.00  0.00    -0.397 N 
HETATM   27  H   UNL     1     -14.039   3.677 -33.568  1.00  0.00     0.156 HD
HETATM   28  H   UNL     1     -14.003   4.053 -35.214  1.00  0.00     0.156 HD
ENDBRANCH   5  26
TORSDOF 4
ENDMDL
MODEL 3
REMARK VINA RESULT:      -8.2      4.168      7.765
REMARK  4 active torsions:
REMARK  status: ('A' for Active; 'I' for Inactive)
REMARK    1  A    between atoms: C_2  and  C_3 
REMARK    2  A    between atoms: C_7  and  N_8 
REMARK    3  A    between atoms: C_10  and  C_11 
REMARK    4  A    between atoms: C_21  and  C_22 
ROOT
HETATM    1  C   UNL     1      -4.586   3.427 -32.258  1.00  0.00     0.079 A 
HETATM    2  S   UNL     1      -6.080   4.213 -32.525  1.00  0.00    -0.064 SA
HETATM    3  C   UNL     1      -6.854   2.764 -32.954  1.00  0.00     0.112 A 
HETATM    4  C   UNL     1      -6.016   1.657 -32.907  1.00  0.00     0.043 A 
HETATM    5  C   UNL     1      -4.694   2.068 -32.510  1.00  0.00     0.060 A 
HETATM    6  N   UNL     1      -8.158   2.784 -33.283  1.00  0.00    -0.240 NA
HETATM    7  C   UNL     1      -8.706   1.590 -33.578  1.00  0.00     0.069 A 
HETATM    8  C   UNL     1      -7.973   0.408 -33.565  1.00  0.00     0.049 A 
HETATM    9  C   UNL     1      -6.602   0.406 -33.231  1.00  0.00     0.065 A 
ENDROOT
BRANCH   7  10
HETATM   10  C   UNL     1     -10.144   1.628 -33.921  1.00  0.00    -0.004 A 
HETATM   11  C   UNL     1     -11.010   0.609 -33.471  1.00  0.00     0.053 A 
HETATM   12  C   UNL     1     -12.347   0.668 -33.806  1.00  0.00     0.106 A 
HETATM   13  C   UNL     1     -12.857   1.689 -34.569  1.00  0.00     0.105 A 
HETATM   14  O   UNL     1     -13.299  -0.233 -33.444  1.00  0.00    -0.323 OA
HETATM   15  O   UNL     1     -14.193   1.559 -34.787  1.00  0.00    -0.323 OA
HETATM   16  C   UNL     1     -12.059   2.703 -35.042  1.00  0.00     0.040 A 
HETATM   17  C   UNL     1     -14.464   0.332 -34.077  1.00  0.00     0.352 A 
HETATM   18  C   UNL     1     -10.696   2.668 -34.716  1.00  0.00     0.017 A 
ENDBRANCH   7  10
BRANCH   9  19
HETATM   19  C   UNL     1      -5.858  -0.901 -33.186  1.00  0.00     0.418 C 
HETATM   20  F   UNL     1      -5.358  -1.200 -31.953  1.00  0.00    -0.166 F 
HETATM   21  F   UNL     1      -6.633  -1.957 -33.548  1.00  0.00    -0.166 F 
HETATM   22  F   UNL     1      -4.783  -0.931 -34.026  1.00  0.00    -0.166 F 
ENDBRANCH   9  19
BRANCH   1  23
HETATM   23  C   UNL     1      -3.393   4.165 -31.848  1.00  0.00     0.164 C 
HETATM   24  C   UNL     1      -3.551   5.520 -31.196  1.00  0.00     0.097 C 
HETATM   25  O   UNL     1      -2.253   3.721 -32.021  1.00  0.00    -0.292 OA
ENDBRANCH   1  23
BRANCH   5  26
HETATM   26  N   UNL     1      -3.645   1.222 -32.380  1.00  0.00    -0.397 N 
HETATM   27  H   UNL     1      -3.727   0.307 -31.939  1.00  0.00     0.156 HD
HETATM   28  H   UNL     1      -2.916   1.222 -33.103  1.00  0.00     0.156 HD
ENDBRANCH   5  26
TORSDOF 4
ENDMDL
MODEL 4
REMARK VINA RESULT:      -8.2      4.458      7.165
REMARK  4 active torsions:
REMARK  status: ('A' for Active; 'I' for Inactive)
REMARK    1  A    between atoms: C_2  and  C_3 
REMARK    2  A    between atoms: C_7  and  N_8 
REMARK    3  A    between atoms: C_10  and  C_11 
REMARK    4  A    between atoms: C_21  and  C_22 
ROOT
HETATM    1  C   UNL     1      -4.914  -1.490 -32.625  1.00  0.00     0.079 A 
HETATM    2  S   UNL     1      -6.213  -1.786 -33.696  1.00  0.00    -0.064 SA
HETATM    3  C   UNL     1      -7.155  -0.545 -33.019  1.00  0.00     0.112 A 
HETATM    4  C   UNL     1      -6.522   0.121 -31.978  1.00  0.00     0.043 A 
HETATM    5  C   UNL     1      -5.220  -0.453 -31.757  1.00  0.00     0.060 A 
HETATM    6  N   UNL     1      -8.380  -0.300 -33.517  1.00  0.00    -0.240 NA
HETATM    7  C   UNL     1      -9.049   0.720 -32.948  1.00  0.00     0.069 A 
HETATM    8  C   UNL     1      -8.524   1.466 -31.898  1.00  0.00     0.049 A 
HETATM    9  C   UNL     1      -7.242   1.186 -31.378  1.00  0.00     0.065 A 
ENDROOT
BRANCH   7  10
HETATM   10  C   UNL     1     -10.388   0.987 -33.519  1.00  0.00    -0.004 A 
HETATM   11  C   UNL     1     -11.486   0.175 -33.168  1.00  0.00     0.053 A 
HETATM   12  C   UNL     1     -12.723   0.446 -33.716  1.00  0.00     0.106 A 
HETATM   13  C   UNL     1     -12.914   1.482 -34.596  1.00  0.00     0.105 A 
HETATM   14  O   UNL     1     -13.870  -0.243 -33.471  1.00  0.00    -0.323 OA
HETATM   15  O   UNL     1     -14.202   1.576 -35.019  1.00  0.00    -0.323 OA
HETATM   16  C   UNL     1     -11.878   2.300 -34.980  1.00  0.00     0.040 A 
HETATM   17  C   UNL     1     -14.801   0.472 -34.308  1.00  0.00     0.352 A 
HETATM   18  C   UNL     1     -10.610   2.047 -34.438  1.00  0.00     0.017 A 
ENDBRANCH   7  10
BRANCH   9  19
HETATM   19  C   UNL     1      -6.694   2.047 -30.273  1.00  0.00     0.418 C 
HETATM   20  F   UNL     1      -6.286   1.337 -29.182  1.00  0.00    -0.166 F 
HETATM   21  F   UNL     1      -5.624   2.787 -30.666  1.00  0.00    -0.166 F 
HETATM   22  F   UNL     1      -7.604   2.945 -29.796  1.00  0.00    -0.166 F 
ENDBRANCH   9  19
BRANCH   1  23
HETATM   23  C   UNL     1      -3.689  -2.286 -32.666  1.00  0.00     0.164 C 
HETATM   24  C   UNL     1      -3.656  -3.548 -33.498  1.00  0.00     0.097 C 
HETATM   25  O   UNL     1      -2.675  -1.965 -32.036  1.00  0.00    -0.292 OA
ENDBRANCH   1  23
BRANCH   5  26
HETATM   26  N   UNL     1      -4.358  -0.030 -30.802  1.00  0.00    -0.397 N 
HETATM   27  H   UNL     1      -3.655   0.688 -30.974  1.00  0.00     0.156 HD
HETATM   28  H   UNL     1      -4.668  -0.021 -29.823  1.00  0.00     0.156 HD
ENDBRANCH   5  26
TORSDOF 4
ENDMDL
MODEL 5
REMARK VINA RESULT:      -8.2      4.024      7.711
REMARK  4 active torsions:
REMARK  status: ('A' for Active; 'I' for Inactive)
REMARK    1  A    between atoms: C_2  and  C_3 
REMARK    2  A    between atoms: C_7  and  N_8 
REMARK    3  A    between atoms: C_10  and  C_11 
REMARK    4  A    between atoms: C_21  and  C_22 
ROOT
HETATM    1  C   UNL     1     -10.274   3.143 -33.969  1.00  0.00     0.079 A 
HETATM    2  S   UNL     1     -10.423   1.457 -34.210  1.00  0.00    -0.064 SA
HETATM    3  C   UNL     1      -8.746   1.215 -34.100  1.00  0.00     0.112 A 
HETATM    4  C   UNL     1      -8.034   2.386 -33.879  1.00  0.00     0.043 A 
HETATM    5  C   UNL     1      -8.943   3.501 -33.817  1.00  0.00     0.060 A 
HETATM    6  N   UNL     1      -8.249  -0.030 -34.219  1.00  0.00    -0.240 NA
HETATM    7  C   UNL     1      -6.915  -0.143 -34.087  1.00  0.00     0.069 A 
HETATM    8  C   UNL     1      -6.091   0.955 -33.862  1.00  0.00     0.049 A 
HETATM    9  C   UNL     1      -6.626   2.256 -33.754  1.00  0.00     0.065 A 
ENDROOT
BRANCH   7  10
HETATM   10  C   UNL     1      -6.387  -1.520 -34.204  1.00  0.00    -0.004 A 
HETATM   11  C   UNL     1      -5.100  -1.832 -33.718  1.00  0.00     0.053 A 
HETATM   12  C   UNL     1      -4.633  -3.125 -33.840  1.00  0.00     0.106 A 
HETATM   13  C   UNL     1      -5.383  -4.114 -34.425  1.00  0.00     0.105 A 
HETATM   14  O   UNL     1      -3.421  -3.576 -33.417  1.00  0.00    -0.323 OA
HETATM   15  O   UNL     1      -4.741  -5.311 -34.449  1.00  0.00    -0.323 OA
HETATM   16  C   UNL     1      -6.640  -3.864 -34.924  1.00  0.00     0.040 A 
HETATM   17  C   UNL     1      -3.492  -4.960 -33.815  1.00  0.00     0.352 A 
HETATM   18  C   UNL     1      -7.140  -2.560 -34.813  1.00  0.00     0.017 A 
ENDBRANCH   7  10
BRANCH   9  19
HETATM   19  C   UNL     1      -5.704   3.409 -33.465  1.00  0.00     0.418 C 
HETATM   20  F   UNL     1      -5.638   4.320 -34.477  1.00  0.00    -0.166 F 
HETATM   21  F   UNL     1      -6.064   4.102 -32.352  1.00  0.00    -0.166 F 
HETATM   22  F   UNL     1      -4.414   3.018 -33.250  1.00  0.00    -0.166 F 
ENDBRANCH   9  19
BRANCH   1  23
HETATM   23  C   UNL     1     -11.440   4.024 -33.964  1.00  0.00     0.164 C 
HETATM   24  C   UNL     1     -12.506   3.843 -35.021  1.00  0.00     0.097 C 
HETATM   25  O   UNL     1     -11.583   4.921 -33.126  1.00  0.00    -0.292 OA
ENDBRANCH   1  23
BRANCH   5  26
HETATM   26  N   UNL     1      -8.556   4.784 -33.621  1.00  0.00    -0.397 N 
HETATM   27  H   UNL     1      -8.766   5.297 -32.766  1.00  0.00     0.156 HD
HETATM   28  H   UNL     1      -7.678   5.107 -34.043  1.00  0.00     0.156 HD
ENDBRANCH   5  26
TORSDOF 4
ENDMDL
MODEL 6
REMARK VINA RESULT:      -8.1      0.700      1.603
REMARK  4 active torsions:
REMARK  status: ('A' for Active; 'I' for Inactive)
REMARK    1  A    between atoms: C_2  and  C_3 
REMARK    2  A    between atoms: C_7  and  N_8 
REMARK    3  A    between atoms: C_10  and  C_11 
REMARK    4  A    between atoms: C_21  and  C_22 
ROOT
HETATM    1  C   UNL     1      -4.883  -2.890 -33.903  1.00  0.00     0.079 A 
HETATM    2  S   UNL     1      -3.671  -1.961 -33.136  1.00  0.00    -0.064 SA
HETATM    3  C   UNL     1      -4.604  -0.544 -33.205  1.00  0.00     0.112 A 
HETATM    4  C   UNL     1      -5.845  -0.731 -33.802  1.00  0.00     0.043 A 
HETATM    5  C   UNL     1      -5.983  -2.104 -34.212  1.00  0.00     0.060 A 
HETATM    6  N   UNL     1      -4.110   0.599 -32.697  1.00  0.00    -0.240 NA
HETATM    7  C   UNL     1      -4.923   1.669 -32.761  1.00  0.00     0.069 A 
HETATM    8  C   UNL     1      -6.191   1.611 -33.332  1.00  0.00     0.049 A 
HETATM    9  C   UNL     1      -6.689   0.407 -33.874  1.00  0.00     0.065 A 
ENDROOT
BRANCH   7  10
HETATM   10  C   UNL     1      -4.370   2.913 -32.182  1.00  0.00    -0.004 A 
HETATM   11  C   UNL     1      -5.197   3.781 -31.438  1.00  0.00     0.053 A 
HETATM   12  C   UNL     1      -4.655   4.935 -30.911  1.00  0.00     0.106 A 
HETATM   13  C   UNL     1      -3.336   5.264 -31.092  1.00  0.00     0.105 A 
HETATM   14  O   UNL     1      -5.323   5.861 -30.172  1.00  0.00    -0.323 OA
HETATM   15  O   UNL     1      -3.004   6.439 -30.495  1.00  0.00    -0.323 OA
HETATM   16  C   UNL     1      -2.486   4.460 -31.815  1.00  0.00     0.040 A 
HETATM   17  C   UNL     1      -4.273   6.817 -29.920  1.00  0.00     0.352 A 
HETATM   18  C   UNL     1      -3.010   3.281 -32.363  1.00  0.00     0.017 A 
ENDBRANCH   7  10
BRANCH   9  19
HETATM   19  C   UNL     1      -8.083   0.379 -34.441  1.00  0.00     0.418 C 
HETATM   20  F   UNL     1      -8.950  -0.383 -33.715  1.00  0.00    -0.166 F 
HETATM   21  F   UNL     1      -8.641   1.616 -34.523  1.00  0.00    -0.166 F 
HETATM   22  F   UNL     1      -8.132  -0.129 -35.706  1.00  0.00    -0.166 F 
ENDBRANCH   9  19
BRANCH   1  23
HETATM   23  C   UNL     1      -4.697  -4.312 -34.185  1.00  0.00     0.164 C 
HETATM   24  C   UNL     1      -3.371  -4.962 -33.860  1.00  0.00     0.097 C 
HETATM   25  O   UNL     1      -5.588  -5.005 -34.689  1.00  0.00    -0.292 OA
ENDBRANCH   1  23
BRANCH   5  26
HETATM   26  N   UNL     1      -7.078  -2.603 -34.834  1.00  0.00    -0.397 N 
HETATM   27  H   UNL     1      -7.860  -2.018 -35.124  1.00  0.00     0.156 HD
HETATM   28  H   UNL     1      -6.968  -3.413 -35.455  1.00  0.00     0.156 HD
ENDBRANCH   5  26
TORSDOF 4
ENDMDL
MODEL 7
REMARK VINA RESULT:      -8.1      4.264      7.192
REMARK  4 active torsions:
REMARK  status: ('A' for Active; 'I' for Inactive)
REMARK    1  A    between atoms: C_2  and  C_3 
REMARK    2  A    between atoms: C_7  and  N_8 
REMARK    3  A    between atoms: C_10  and  C_11 
REMARK    4  A    between atoms: C_21  and  C_22 
ROOT
HETATM    1  C   UNL     1      -4.449   0.305 -32.090  1.00  0.00     0.079 A 
HETATM    2  S   UNL     1      -5.945  -0.506 -32.250  1.00  0.00    -0.064 SA
HETATM    3  C   UNL     1      -6.735   0.895 -32.793  1.00  0.00     0.112 A 
HETATM    4  C   UNL     1      -5.901   2.003 -32.869  1.00  0.00     0.043 A 
HETATM    5  C   UNL     1      -4.574   1.640 -32.444  1.00  0.00     0.060 A 
HETATM    6  N   UNL     1      -8.042   0.838 -33.104  1.00  0.00    -0.240 NA
HETATM    7  C   UNL     1      -8.587   1.982 -33.558  1.00  0.00     0.069 A 
HETATM    8  C   UNL     1      -7.857   3.159 -33.683  1.00  0.00     0.049 A 
HETATM    9  C   UNL     1      -6.489   3.206 -33.338  1.00  0.00     0.065 A 
ENDROOT
BRANCH   7  10
HETATM   10  C   UNL     1     -10.021   1.897 -33.912  1.00  0.00    -0.004 A 
HETATM   11  C   UNL     1     -10.806   0.821 -33.447  1.00  0.00     0.053 A 
HETATM   12  C   UNL     1     -12.141   0.766 -33.793  1.00  0.00     0.106 A 
HETATM   13  C   UNL     1     -12.725   1.726 -34.580  1.00  0.00     0.105 A 
HETATM   14  O   UNL     1     -13.020  -0.202 -33.418  1.00  0.00    -0.323 OA
HETATM   15  O   UNL     1     -14.043   1.486 -34.805  1.00  0.00    -0.323 OA
HETATM   16  C   UNL     1     -12.006   2.792 -35.069  1.00  0.00     0.040 A 
HETATM   17  C   UNL     1     -14.222   0.255 -34.071  1.00  0.00     0.352 A 
HETATM   18  C   UNL     1     -10.648   2.873 -34.733  1.00  0.00     0.017 A 
ENDBRANCH   7  10
BRANCH   9  19
HETATM   19  C   UNL     1      -5.726   4.489 -33.531  1.00  0.00     0.418 C 
HETATM   20  F   UNL     1      -5.156   4.960 -32.386  1.00  0.00    -0.166 F 
HETATM   21  F   UNL     1      -4.718   4.368 -34.435  1.00  0.00    -0.166 F 
HETATM   22  F   UNL     1      -6.508   5.509 -33.988  1.00  0.00    -0.166 F 
ENDBRANCH   9  19
BRANCH   1  23
HETATM   23  C   UNL     1      -3.251  -0.381 -31.611  1.00  0.00     0.164 C 
HETATM   24  C   UNL     1      -3.068  -1.850 -31.920  1.00  0.00     0.097 C 
HETATM   25  O   UNL     1      -2.380   0.198 -30.952  1.00  0.00    -0.292 OA
ENDBRANCH   1  23
BRANCH   5  26
HETATM   26  N   UNL     1      -3.531   2.502 -32.395  1.00  0.00    -0.397 N 
HETATM   27  H   UNL     1      -2.572   2.218 -32.591  1.00  0.00     0.156 HD
HETATM   28  H   UNL     1      -3.688   3.484 -32.651  1.00  0.00     0.156 HD
ENDBRANCH   5  26
TORSDOF 4
ENDMDL
MODEL 8
REMARK VINA RESULT:      -8.0      3.713      8.073
REMARK  4 active torsions:
REMARK  status: ('A' for Active; 'I' for Inactive)
REMARK    1  A    between atoms: C_2  and  C_3 
REMARK    2  A    between atoms: C_7  and  N_8 
REMARK    3  A    between atoms: C_10  and  C_11 
REMARK    4  A    between atoms: C_21  and  C_22 
ROOT
HETATM    1  C   UNL     1      -6.394   4.753 -29.291  1.00  0.00     0.079 A 
HETATM    2  S   UNL     1      -7.291   3.359 -29.706  1.00  0.00    -0.064 SA
HETATM    3  C   UNL     1      -6.152   2.879 -30.871  1.00  0.00     0.112 A 
HETATM    4  C   UNL     1      -5.074   3.749 -30.978  1.00  0.00     0.043 A 
HETATM    5  C   UNL     1      -5.240   4.841 -30.055  1.00  0.00     0.060 A 
HETATM    6  N   UNL     1      -6.356   1.747 -31.568  1.00  0.00    -0.240 NA
HETATM    7  C   UNL     1      -5.392   1.419 -32.448  1.00  0.00     0.069 A 
HETATM    8  C   UNL     1      -4.262   2.206 -32.646  1.00  0.00     0.049 A 
HETATM    9  C   UNL     1      -4.070   3.399 -31.918  1.00  0.00     0.065 A 
ENDROOT
BRANCH   7  10
HETATM   10  C   UNL     1      -5.624   0.162 -33.193  1.00  0.00    -0.004 A 
HETATM   11  C   UNL     1      -4.729  -0.920 -33.059  1.00  0.00     0.053 A 
HETATM   12  C   UNL     1      -4.969  -2.080 -33.767  1.00  0.00     0.106 A 
HETATM   13  C   UNL     1      -6.052  -2.209 -34.600  1.00  0.00     0.105 A 
HETATM   14  O   UNL     1      -4.202  -3.203 -33.736  1.00  0.00    -0.323 OA
HETATM   15  O   UNL     1      -6.104  -3.427 -35.202  1.00  0.00    -0.323 OA
HETATM   16  C   UNL     1      -6.952  -1.184 -34.776  1.00  0.00     0.040 A 
HETATM   17  C   UNL     1      -4.922  -4.049 -34.657  1.00  0.00     0.352 A 
HETATM   18  C   UNL     1      -6.732   0.006 -34.069  1.00  0.00     0.017 A 
ENDBRANCH   7  10
BRANCH   9  19
HETATM   19  C   UNL     1      -2.812   4.195 -32.131  1.00  0.00     0.418 C 
HETATM   20  F   UNL     1      -3.040   5.515 -32.388  1.00  0.00    -0.166 F 
HETATM   21  F   UNL     1      -1.979   4.157 -31.057  1.00  0.00    -0.166 F 
HETATM   22  F   UNL     1      -2.070   3.747 -33.185  1.00  0.00    -0.166 F 
ENDBRANCH   9  19
BRANCH   1  23
HETATM   23  C   UNL     1      -6.863   5.693 -28.274  1.00  0.00     0.164 C 
HETATM   24  C   UNL     1      -8.267   6.247 -28.374  1.00  0.00     0.097 C 
HETATM   25  O   UNL     1      -6.148   6.058 -27.336  1.00  0.00    -0.292 OA
ENDBRANCH   1  23
BRANCH   5  26
HETATM   26  N   UNL     1      -4.361   5.863 -29.924  1.00  0.00    -0.397 N 
HETATM   27  H   UNL     1      -3.813   6.012 -29.077  1.00  0.00     0.156 HD
HETATM   28  H   UNL     1      -3.859   6.194 -30.755  1.00  0.00     0.156 HD
ENDBRANCH   5  26
TORSDOF 4
ENDMDL
MODEL 9
REMARK VINA RESULT:      -7.7      4.753      7.949
REMARK  4 active torsions:
REMARK  status: ('A' for Active; 'I' for Inactive)
REMARK    1  A    between atoms: C_2  and  C_3 
REMARK    2  A    between atoms: C_7  and  N_8 
REMARK    3  A    between atoms: C_10  and  C_11 
REMARK    4  A    between atoms: C_21  and  C_22 
ROOT
HETATM    1  C   UNL     1     -11.892   2.555 -33.077  1.00  0.00     0.079 A 
HETATM    2  S   UNL     1     -11.474   1.087 -33.846  1.00  0.00    -0.064 SA
HETATM    3  C   UNL     1      -9.861   1.182 -33.323  1.00  0.00     0.112 A 
HETATM    4  C   UNL     1      -9.595   2.313 -32.561  1.00  0.00     0.043 A 
HETATM    5  C   UNL     1     -10.790   3.106 -32.440  1.00  0.00     0.060 A 
HETATM    6  N   UNL     1      -8.999   0.205 -33.657  1.00  0.00    -0.240 NA
HETATM    7  C   UNL     1      -7.749   0.337 -33.177  1.00  0.00     0.069 A 
HETATM    8  C   UNL     1      -7.358   1.422 -32.401  1.00  0.00     0.049 A 
HETATM    9  C   UNL     1      -8.270   2.447 -32.071  1.00  0.00     0.065 A 
ENDROOT
BRANCH   7  10
HETATM   10  C   UNL     1      -6.819  -0.755 -33.540  1.00  0.00    -0.004 A 
HETATM   11  C   UNL     1      -7.309  -1.942 -34.125  1.00  0.00     0.053 A 
HETATM   12  C   UNL     1      -6.420  -2.945 -34.452  1.00  0.00     0.106 A 
HETATM   13  C   UNL     1      -5.073  -2.822 -34.221  1.00  0.00     0.105 A 
HETATM   14  O   UNL     1      -6.741  -4.137 -35.024  1.00  0.00    -0.323 OA
HETATM   15  O   UNL     1      -4.374  -3.920 -34.613  1.00  0.00    -0.323 OA
HETATM   16  C   UNL     1      -4.541  -1.692 -33.645  1.00  0.00     0.040 A 
HETATM   17  C   UNL     1      -5.440  -4.754 -35.113  1.00  0.00     0.352 A 
HETATM   18  C   UNL     1      -5.422  -0.657 -33.303  1.00  0.00     0.017 A 
ENDBRANCH   7  10
BRANCH   9  19
HETATM   19  C   UNL     1      -7.817   3.580 -31.191  1.00  0.00     0.418 C 
HETATM   20  F   UNL     1      -6.508   3.489 -30.819  1.00  0.00    -0.166 F 
HETATM   21  F   UNL     1      -7.960   4.794 -31.785  1.00  0.00    -0.166 F 
HETATM   22  F   UNL     1      -8.517   3.659 -30.022  1.00  0.00    -0.166 F 
ENDBRANCH   9  19
BRANCH   1  23
HETATM   23  C   UNL     1     -13.244   3.104 -33.153  1.00  0.00     0.164 C 
HETATM   24  C   UNL     1     -14.422   2.209 -32.842  1.00  0.00     0.097 C 
HETATM   25  O   UNL     1     -13.460   4.279 -33.471  1.00  0.00    -0.292 OA
ENDBRANCH   1  23
BRANCH   5  26
HETATM   26  N   UNL     1     -10.856   4.278 -31.763  1.00  0.00    -0.397 N 
HETATM   27  H   UNL     1     -11.676   4.883 -31.791  1.00  0.00     0.156 HD
HETATM   28  H   UNL     1     -10.362   4.361 -30.868  1.00  0.00     0.156 HD
ENDBRANCH   5  26
TORSDOF 4
ENDMDL
MODEL 10
REMARK VINA RESULT:      -7.7      4.043      5.578
REMARK  4 active torsions:
REMARK  status: ('A' for Active; 'I' for Inactive)
REMARK    1  A    between atoms: C_2  and  C_3 
REMARK    2  A    between atoms: C_7  and  N_8 
REMARK    3  A    between atoms: C_10  and  C_11 
REMARK    4  A    between atoms: C_21  and  C_22 
ROOT
HETATM    1  C   UNL     1     -10.758   3.513 -34.231  1.00  0.00     0.079 A 
HETATM    2  S   UNL     1      -9.691   4.798 -33.869  1.00  0.00    -0.064 SA
HETATM    3  C   UNL     1      -8.336   3.775 -33.869  1.00  0.00     0.112 A 
HETATM    4  C   UNL     1      -8.646   2.449 -34.140  1.00  0.00     0.043 A 
HETATM    5  C   UNL     1     -10.066   2.316 -34.337  1.00  0.00     0.060 A 
HETATM    6  N   UNL     1      -7.117   4.293 -33.628  1.00  0.00    -0.240 NA
HETATM    7  C   UNL     1      -6.091   3.423 -33.678  1.00  0.00     0.069 A 
HETATM    8  C   UNL     1      -6.271   2.069 -33.942  1.00  0.00     0.049 A 
HETATM    9  C   UNL     1      -7.558   1.540 -34.179  1.00  0.00     0.065 A 
ENDROOT
BRANCH   7  10
HETATM   10  C   UNL     1      -4.757   4.012 -33.428  1.00  0.00    -0.004 A 
HETATM   11  C   UNL     1      -4.374   5.206 -34.074  1.00  0.00     0.053 A 
HETATM   12  C   UNL     1      -3.124   5.733 -33.822  1.00  0.00     0.106 A 
HETATM   13  C   UNL     1      -2.241   5.125 -32.965  1.00  0.00     0.105 A 
HETATM   14  O   UNL     1      -2.618   6.874 -34.363  1.00  0.00    -0.323 OA
HETATM   15  O   UNL     1      -1.067   5.802 -32.859  1.00  0.00    -0.323 OA
HETATM   16  C   UNL     1      -2.558   3.955 -32.316  1.00  0.00     0.040 A 
HETATM   17  C   UNL     1      -1.310   6.906 -33.757  1.00  0.00     0.352 A 
HETATM   18  C   UNL     1      -3.822   3.398 -32.552  1.00  0.00     0.017 A 
ENDBRANCH   7  10
BRANCH   9  19
HETATM   19  C   UNL     1      -7.702   0.078 -34.505  1.00  0.00     0.418 C 
HETATM   20  F   UNL     1      -6.513  -0.587 -34.559  1.00  0.00    -0.166 F 
HETATM   21  F   UNL     1      -8.468  -0.588 -33.600  1.00  0.00    -0.166 F 
HETATM   22  F   UNL     1      -8.291  -0.142 -35.715  1.00  0.00    -0.166 F 
ENDBRANCH   9  19
BRANCH   1  23
HETATM   23  C   UNL     1     -12.198   3.725 -34.367  1.00  0.00     0.164 C 
HETATM   24  C   UNL     1     -12.917   4.577 -33.346  1.00  0.00     0.097 C 
HETATM   25  O   UNL     1     -12.852   3.225 -35.288  1.00  0.00    -0.292 OA
ENDBRANCH   1  23
BRANCH   5  26
HETATM   26  N   UNL     1     -10.687   1.143 -34.609  1.00  0.00    -0.397 N 
HETATM   27  H   UNL     1     -10.275   0.238 -34.385  1.00  0.00     0.156 HD
HETATM   28  H   UNL     1     -11.712   1.105 -34.573  1.00  0.00     0.156 HD
ENDBRANCH   5  26
TORSDOF 4
ENDMDL
