MODEL 1
REMARK VINA RESULT:      -7.9      0.000      0.000
REMARK  6 active torsions:
REMARK  status: ('A' for Active; 'I' for Inactive)
REMARK    1  A    between atoms: N_2  and  C_4 
REMARK    2  A    between atoms: N_2  and  C_14 
REMARK    3  A    between atoms: C_5  and  O_6 
REMARK    4  A    between atoms: C_14  and  C_15 
REMARK    5  A    between atoms: C_15  and  O_16 
REMARK    6  A    between atoms: C_15  and  C_17 
ROOT
HETATM    1  C   UNL     1      -6.737  -0.077 -31.379  1.00  0.00     0.270 C 
HETATM    2  N   UNL     1      -5.265  -0.087 -31.691  1.00  0.00    -0.065 N 
HETATM    3  H   UNL     1      -4.930  -1.005 -31.332  1.00  0.00     0.280 HD
ENDROOT
BRANCH   2   4
HETATM    4  C   UNL     1      -4.872  -0.131 -33.188  1.00  0.00     0.225 C 
HETATM    5  C   UNL     1      -3.781  -1.214 -33.464  1.00  0.00     0.183 C 
HETATM    6  C   UNL     1      -4.618  -2.371 -33.925  1.00  0.00    -0.021 A 
HETATM    7  C   UNL     1      -5.904  -1.940 -34.291  1.00  0.00    -0.047 A 
HETATM    8  C   UNL     1      -4.259  -3.704 -34.046  1.00  0.00     0.010 A 
HETATM    9  C   UNL     1      -6.063  -0.461 -34.106  1.00  0.00     0.075 C 
HETATM   10  C   UNL     1      -6.848  -2.826 -34.781  1.00  0.00     0.008 A 
HETATM   11  C   UNL     1      -6.496  -4.171 -34.888  1.00  0.00     0.001 A 
HETATM   12  C   UNL     1      -5.212  -4.607 -34.523  1.00  0.00     0.001 A 
BRANCH   5  13
HETATM   13  O   UNL     1      -3.034  -1.471 -32.282  1.00  0.00    -0.389 OA
HETATM   14  H   UNL     1      -2.094  -1.324 -32.504  1.00  0.00     0.210 HD
ENDBRANCH   5  13
ENDBRANCH   2   4
BRANCH   2  15
HETATM   15  C   UNL     1      -4.485   0.961 -30.907  1.00  0.00     0.271 C 
BRANCH  15  16
HETATM   16  C   UNL     1      -5.203   2.327 -30.963  1.00  0.00     0.177 C 
BRANCH  16  17
HETATM   17  O   UNL     1      -5.163   2.900 -29.651  1.00  0.00    -0.389 OA
HETATM   18  H   UNL     1      -4.547   3.659 -29.688  1.00  0.00     0.210 HD
ENDBRANCH  16  17
BRANCH  16  19
HETATM   19  C   UNL     1      -4.580   3.233 -32.000  1.00  0.00    -0.028 A 
HETATM   20  C   UNL     1      -5.409   3.941 -32.889  1.00  0.00     0.013 A 
HETATM   21  C   UNL     1      -4.854   4.746 -33.886  1.00  0.00     0.043 A 
HETATM   22  C   UNL     1      -3.474   4.847 -33.999  1.00  0.00     0.116 A 
HETATM   23  F   UNL     1      -2.945   5.615 -34.957  1.00  0.00    -0.206 F 
HETATM   24  C   UNL     1      -2.636   4.157 -33.132  1.00  0.00     0.043 A 
HETATM   25  C   UNL     1      -3.186   3.346 -32.136  1.00  0.00     0.013 A 
ENDBRANCH  16  19
ENDBRANCH  15  16
ENDBRANCH   2  15
TORSDOF 6
ENDMDL
MODEL 2
REMARK VINA RESULT:      -7.4      3.371      7.295
REMARK  6 active torsions:
REMARK  status: ('A' for Active; 'I' for Inactive)
REMARK    1  A    between atoms: N_2  and  C_4 
REMARK    2  A    between atoms: N_2  and  C_14 
REMARK    3  A    between atoms: C_5  and  O_6 
REMARK    4  A    between atoms: C_14  and  C_15 
REMARK    5  A    between atoms: C_15  and  O_16 
REMARK    6  A    between atoms: C_15  and  C_17 
ROOT
HETATM    1  C   UNL     1      -5.216   4.953 -31.847  1.00  0.00     0.270 C 
HETATM    2  N   UNL     1      -4.910   4.754 -33.307  1.00  0.00    -0.065 N 
HETATM    3  H   UNL     1      -4.817   5.718 -33.686  1.00  0.00     0.280 HD
ENDROOT
BRANCH   2   4
HETATM    4  C   UNL     1      -3.545   4.107 -33.650  1.00  0.00     0.225 C 
HETATM    5  C   UNL     1      -2.607   5.108 -34.394  1.00  0.00     0.183 C 
HETATM    6  C   UNL     1      -1.772   5.634 -33.263  1.00  0.00    -0.021 A 
HETATM    7  C   UNL     1      -1.871   4.795 -32.141  1.00  0.00    -0.047 A 
HETATM    8  C   UNL     1      -0.957   6.755 -33.238  1.00  0.00     0.010 A 
HETATM    9  C   UNL     1      -2.782   3.632 -32.400  1.00  0.00     0.075 C 
HETATM   10  C   UNL     1      -1.161   5.058 -30.981  1.00  0.00     0.008 A 
HETATM   11  C   UNL     1      -0.353   6.193 -30.946  1.00  0.00     0.001 A 
HETATM   12  C   UNL     1      -0.251   7.035 -32.065  1.00  0.00     0.001 A 
BRANCH   5  13
HETATM   13  O   UNL     1      -3.376   6.102 -35.059  1.00  0.00    -0.389 OA
HETATM   14  H   UNL     1      -3.752   6.679 -34.366  1.00  0.00     0.210 HD
ENDBRANCH   5  13
ENDBRANCH   2   4
BRANCH   2  15
HETATM   15  C   UNL     1      -6.068   4.129 -34.076  1.00  0.00     0.271 C 
BRANCH  15  16
HETATM   16  C   UNL     1      -6.796   3.082 -33.206  1.00  0.00     0.177 C 
BRANCH  16  17
HETATM   17  O   UNL     1      -8.185   3.430 -33.167  1.00  0.00    -0.389 OA
HETATM   18  H   UNL     1      -8.691   2.617 -33.367  1.00  0.00     0.210 HD
ENDBRANCH  16  17
BRANCH  16  19
HETATM   19  C   UNL     1      -6.574   1.682 -33.731  1.00  0.00    -0.028 A 
HETATM   20  C   UNL     1      -7.424   1.174 -34.730  1.00  0.00     0.013 A 
HETATM   21  C   UNL     1      -7.269  -0.133 -35.195  1.00  0.00     0.043 A 
HETATM   22  C   UNL     1      -6.266  -0.936 -34.667  1.00  0.00     0.116 A 
HETATM   23  F   UNL     1      -6.122  -2.189 -35.112  1.00  0.00    -0.206 F 
HETATM   24  C   UNL     1      -5.415  -0.455 -33.680  1.00  0.00     0.043 A 
HETATM   25  C   UNL     1      -5.570   0.850 -33.207  1.00  0.00     0.013 A 
ENDBRANCH  16  19
ENDBRANCH  15  16
ENDBRANCH   2  15
TORSDOF 6
ENDMDL
MODEL 3
REMARK VINA RESULT:      -7.4      5.908      7.873
REMARK  6 active torsions:
REMARK  status: ('A' for Active; 'I' for Inactive)
REMARK    1  A    between atoms: N_2  and  C_4 
REMARK    2  A    between atoms: N_2  and  C_14 
REMARK    3  A    between atoms: C_5  and  O_6 
REMARK    4  A    between atoms: C_14  and  C_15 
REMARK    5  A    between atoms: C_15  and  O_16 
REMARK    6  A    between atoms: C_15  and  C_17 
ROOT
HETATM    1  C   UNL     1     -10.350   3.547 -30.945  1.00  0.00     0.270 C 
HETATM    2  N   UNL     1     -10.198   2.596 -32.101  1.00  0.00    -0.065 N 
HETATM    3  H   UNL     1     -10.623   1.708 -31.764  1.00  0.00     0.280 HD
ENDROOT
BRANCH   2   4
HETATM    4  C   UNL     1     -11.016   2.916 -33.377  1.00  0.00     0.225 C 
HETATM    5  C   UNL     1     -11.974   1.742 -33.754  1.00  0.00     0.183 C 
HETATM    6  C   UNL     1     -13.263   2.197 -33.135  1.00  0.00    -0.021 A 
HETATM    7  C   UNL     1     -13.215   3.570 -32.840  1.00  0.00    -0.047 A 
HETATM    8  C   UNL     1     -14.410   1.461 -32.883  1.00  0.00     0.010 A 
HETATM    9  C   UNL     1     -11.895   4.170 -33.220  1.00  0.00     0.075 C 
HETATM   10  C   UNL     1     -14.304   4.227 -32.292  1.00  0.00     0.008 A 
HETATM   11  C   UNL     1     -15.453   3.485 -32.021  1.00  0.00     0.001 A 
HETATM   12  C   UNL     1     -15.506   2.114 -32.314  1.00  0.00     0.001 A 
BRANCH   5  13
HETATM   13  O   UNL     1     -11.480   0.516 -33.230  1.00  0.00    -0.389 OA
HETATM   14  H   UNL     1     -11.200   0.694 -32.311  1.00  0.00     0.210 HD
ENDBRANCH   5  13
ENDBRANCH   2   4
BRANCH   2  15
HETATM   15  C   UNL     1      -8.744   2.257 -32.404  1.00  0.00     0.271 C 
BRANCH  15  16
HETATM   16  C   UNL     1      -8.326   0.960 -31.676  1.00  0.00     0.177 C 
BRANCH  16  17
HETATM   17  O   UNL     1      -9.518   0.279 -31.268  1.00  0.00    -0.389 OA
HETATM   18  H   UNL     1      -9.258  -0.372 -30.586  1.00  0.00     0.210 HD
ENDBRANCH  16  17
BRANCH  16  19
HETATM   19  C   UNL     1      -7.449   0.096 -32.554  1.00  0.00    -0.028 A 
HETATM   20  C   UNL     1      -7.926  -0.326 -33.808  1.00  0.00     0.013 A 
HETATM   21  C   UNL     1      -7.153  -1.164 -34.614  1.00  0.00     0.043 A 
HETATM   22  C   UNL     1      -5.904  -1.581 -34.173  1.00  0.00     0.116 A 
HETATM   23  F   UNL     1      -5.167  -2.388 -34.945  1.00  0.00    -0.206 F 
HETATM   24  C   UNL     1      -5.413  -1.177 -32.938  1.00  0.00     0.043 A 
HETATM   25  C   UNL     1      -6.185  -0.343 -32.125  1.00  0.00     0.013 A 
ENDBRANCH  16  19
ENDBRANCH  15  16
ENDBRANCH   2  15
TORSDOF 6
ENDMDL
MODEL 4
REMARK VINA RESULT:      -7.2      2.821      6.835
REMARK  6 active torsions:
REMARK  status: ('A' for Active; 'I' for Inactive)
REMARK    1  A    between atoms: N_2  and  C_4 
REMARK    2  A    between atoms: N_2  and  C_14 
REMARK    3  A    between atoms: C_5  and  O_6 
REMARK    4  A    between atoms: C_14  and  C_15 
REMARK    5  A    between atoms: C_15  and  O_16 
REMARK    6  A    between atoms: C_15  and  C_17 
ROOT
HETATM    1  C   UNL     1      -3.769   1.507 -32.306  1.00  0.00     0.270 C 
HETATM    2  N   UNL     1      -4.889   0.831 -31.562  1.00  0.00    -0.065 N 
HETATM    3  H   UNL     1      -4.869   1.264 -30.616  1.00  0.00     0.280 HD
ENDROOT
BRANCH   2   4
HETATM    4  C   UNL     1      -6.328   1.126 -32.053  1.00  0.00     0.225 C 
HETATM    5  C   UNL     1      -7.116   2.001 -31.029  1.00  0.00     0.183 C 
HETATM    6  C   UNL     1      -6.926   3.376 -31.601  1.00  0.00    -0.021 A 
HETATM    7  C   UNL     1      -6.500   3.303 -32.938  1.00  0.00    -0.047 A 
HETATM    8  C   UNL     1      -7.146   4.603 -30.995  1.00  0.00     0.010 A 
HETATM    9  C   UNL     1      -6.355   1.882 -33.394  1.00  0.00     0.075 C 
HETATM   10  C   UNL     1      -6.289   4.447 -33.689  1.00  0.00     0.008 A 
HETATM   11  C   UNL     1      -6.492   5.684 -33.078  1.00  0.00     0.001 A 
HETATM   12  C   UNL     1      -6.917   5.761 -31.742  1.00  0.00     0.001 A 
BRANCH   5  13
HETATM   13  O   UNL     1      -6.578   1.836 -29.724  1.00  0.00    -0.389 OA
HETATM   14  H   UNL     1      -6.854   0.951 -29.414  1.00  0.00     0.210 HD
ENDBRANCH   5  13
ENDBRANCH   2   4
BRANCH   2  15
HETATM   15  C   UNL     1      -4.637  -0.654 -31.331  1.00  0.00     0.271 C 
BRANCH  15  16
HETATM   16  C   UNL     1      -3.643  -1.205 -32.376  1.00  0.00     0.177 C 
BRANCH  16  17
HETATM   17  O   UNL     1      -2.532  -1.771 -31.671  1.00  0.00    -0.389 OA
HETATM   18  H   UNL     1      -2.897  -2.296 -30.932  1.00  0.00     0.210 HD
ENDBRANCH  16  17
BRANCH  16  19
HETATM   19  C   UNL     1      -4.308  -2.208 -33.291  1.00  0.00    -0.028 A 
HETATM   20  C   UNL     1      -5.461  -1.836 -34.005  1.00  0.00     0.013 A 
HETATM   21  C   UNL     1      -6.120  -2.761 -34.818  1.00  0.00     0.043 A 
HETATM   22  C   UNL     1      -5.630  -4.056 -34.922  1.00  0.00     0.116 A 
HETATM   23  F   UNL     1      -6.265  -4.941 -35.698  1.00  0.00    -0.206 F 
HETATM   24  C   UNL     1      -4.493  -4.445 -34.226  1.00  0.00     0.043 A 
HETATM   25  C   UNL     1      -3.833  -3.526 -33.407  1.00  0.00     0.013 A 
ENDBRANCH  16  19
ENDBRANCH  15  16
ENDBRANCH   2  15
TORSDOF 6
ENDMDL
MODEL 5
REMARK VINA RESULT:      -7.2     15.162     16.439
REMARK  6 active torsions:
REMARK  status: ('A' for Active; 'I' for Inactive)
REMARK    1  A    between atoms: N_2  and  C_4 
REMARK    2  A    between atoms: N_2  and  C_14 
REMARK    3  A    between atoms: C_5  and  O_6 
REMARK    4  A    between atoms: C_14  and  C_15 
REMARK    5  A    between atoms: C_15  and  O_16 
REMARK    6  A    between atoms: C_15  and  C_17 
ROOT
HETATM    1  C   UNL     1      -5.704 -15.602 -39.760  1.00  0.00     0.270 C 
HETATM    2  N   UNL     1      -5.677 -14.459 -38.782  1.00  0.00    -0.065 N 
HETATM    3  H   UNL     1      -5.766 -13.608 -39.375  1.00  0.00     0.280 HD
ENDROOT
BRANCH   2   4
HETATM    4  C   UNL     1      -6.882 -14.341 -37.816  1.00  0.00     0.225 C 
HETATM    5  C   UNL     1      -7.519 -12.916 -37.864  1.00  0.00     0.183 C 
HETATM    6  C   UNL     1      -8.652 -13.127 -38.825  1.00  0.00    -0.021 A 
HETATM    7  C   UNL     1      -8.926 -14.497 -38.977  1.00  0.00    -0.047 A 
HETATM    8  C   UNL     1      -9.409 -12.177 -39.492  1.00  0.00     0.010 A 
HETATM    9  C   UNL     1      -8.007 -15.339 -38.144  1.00  0.00     0.075 C 
HETATM   10  C   UNL     1      -9.955 -14.939 -39.791  1.00  0.00     0.008 A 
HETATM   11  C   UNL     1     -10.709 -13.987 -40.476  1.00  0.00     0.001 A 
HETATM   12  C   UNL     1     -10.438 -12.617 -40.328  1.00  0.00     0.001 A 
BRANCH   5  13
HETATM   13  O   UNL     1      -6.559 -11.963 -38.298  1.00  0.00    -0.389 OA
HETATM   14  H   UNL     1      -6.331 -12.191 -39.221  1.00  0.00     0.210 HD
ENDBRANCH   5  13
ENDBRANCH   2   4
BRANCH   2  15
HETATM   15  C   UNL     1      -4.336 -14.316 -38.072  1.00  0.00     0.271 C 
BRANCH  15  16
HETATM   16  C   UNL     1      -3.491 -13.202 -38.727  1.00  0.00     0.177 C 
BRANCH  16  17
HETATM   17  O   UNL     1      -3.532 -12.055 -37.870  1.00  0.00    -0.389 OA
HETATM   18  H   UNL     1      -2.738 -11.520 -38.068  1.00  0.00     0.210 HD
ENDBRANCH  16  17
BRANCH  16  19
HETATM   19  C   UNL     1      -2.076 -13.668 -38.987  1.00  0.00    -0.028 A 
HETATM   20  C   UNL     1      -1.663 -13.923 -40.307  1.00  0.00     0.013 A 
HETATM   21  C   UNL     1      -0.377 -14.400 -40.567  1.00  0.00     0.043 A 
HETATM   22  C   UNL     1       0.500 -14.623 -39.513  1.00  0.00     0.116 A 
HETATM   23  F   UNL     1       1.730 -15.084 -39.764  1.00  0.00    -0.206 F 
HETATM   24  C   UNL     1       0.113 -14.378 -38.202  1.00  0.00     0.043 A 
HETATM   25  C   UNL     1      -1.175 -13.905 -37.936  1.00  0.00     0.013 A 
ENDBRANCH  16  19
ENDBRANCH  15  16
ENDBRANCH   2  15
TORSDOF 6
ENDMDL
MODEL 6
REMARK VINA RESULT:      -7.2      4.114      6.997
REMARK  6 active torsions:
REMARK  status: ('A' for Active; 'I' for Inactive)
REMARK    1  A    between atoms: N_2  and  C_4 
REMARK    2  A    between atoms: N_2  and  C_14 
REMARK    3  A    between atoms: C_5  and  O_6 
REMARK    4  A    between atoms: C_14  and  C_15 
REMARK    5  A    between atoms: C_15  and  O_16 
REMARK    6  A    between atoms: C_15  and  C_17 
ROOT
HETATM    1  C   UNL     1      -7.255   1.606 -33.887  1.00  0.00     0.270 C 
HETATM    2  N   UNL     1      -7.279   1.214 -32.434  1.00  0.00    -0.065 N 
HETATM    3  H   UNL     1      -6.969   2.070 -31.929  1.00  0.00     0.280 HD
ENDROOT
BRANCH   2   4
HETATM    4  C   UNL     1      -8.668   0.925 -31.815  1.00  0.00     0.225 C 
HETATM    5  C   UNL     1      -9.358   2.233 -31.315  1.00  0.00     0.183 C 
HETATM    6  C   UNL     1     -10.243   2.569 -32.480  1.00  0.00    -0.021 A 
HETATM    7  C   UNL     1     -10.402   1.454 -33.320  1.00  0.00    -0.047 A 
HETATM    8  C   UNL     1     -10.890   3.762 -32.759  1.00  0.00     0.010 A 
HETATM    9  C   UNL     1      -9.639   0.267 -32.813  1.00  0.00     0.075 C 
HETATM   10  C   UNL     1     -11.205   1.511 -34.447  1.00  0.00     0.008 A 
HETATM   11  C   UNL     1     -11.844   2.715 -34.741  1.00  0.00     0.001 A 
HETATM   12  C   UNL     1     -11.688   3.831 -33.904  1.00  0.00     0.001 A 
BRANCH   5  13
HETATM   13  O   UNL     1      -8.381   3.224 -31.024  1.00  0.00    -0.389 OA
HETATM   14  H   UNL     1      -8.551   3.975 -31.626  1.00  0.00     0.210 HD
ENDBRANCH   5  13
ENDBRANCH   2   4
BRANCH   2  15
HETATM   15  C   UNL     1      -6.247   0.147 -32.090  1.00  0.00     0.271 C 
BRANCH  15  16
HETATM   16  C   UNL     1      -5.309  -0.108 -33.290  1.00  0.00     0.177 C 
BRANCH  16  17
HETATM   17  O   UNL     1      -3.967   0.158 -32.866  1.00  0.00    -0.389 OA
HETATM   18  H   UNL     1      -4.024   0.659 -32.028  1.00  0.00     0.210 HD
ENDBRANCH  16  17
BRANCH  16  19
HETATM   19  C   UNL     1      -5.470  -1.514 -33.823  1.00  0.00    -0.028 A 
HETATM   20  C   UNL     1      -4.335  -2.330 -33.976  1.00  0.00     0.013 A 
HETATM   21  C   UNL     1      -4.453  -3.614 -34.512  1.00  0.00     0.043 A 
HETATM   22  C   UNL     1      -5.702  -4.086 -34.895  1.00  0.00     0.116 A 
HETATM   23  F   UNL     1      -5.812  -5.315 -35.412  1.00  0.00    -0.206 F 
HETATM   24  C   UNL     1      -6.836  -3.297 -34.753  1.00  0.00     0.043 A 
HETATM   25  C   UNL     1      -6.722  -2.010 -34.223  1.00  0.00     0.013 A 
ENDBRANCH  16  19
ENDBRANCH  15  16
ENDBRANCH   2  15
TORSDOF 6
ENDMDL
MODEL 7
REMARK VINA RESULT:      -7.2      5.426      6.755
REMARK  6 active torsions:
REMARK  status: ('A' for Active; 'I' for Inactive)
REMARK    1  A    between atoms: N_2  and  C_4 
REMARK    2  A    between atoms: N_2  and  C_14 
REMARK    3  A    between atoms: C_5  and  O_6 
REMARK    4  A    between atoms: C_14  and  C_15 
REMARK    5  A    between atoms: C_15  and  O_16 
REMARK    6  A    between atoms: C_15  and  C_17 
ROOT
HETATM    1  C   UNL     1      -6.844   2.789 -32.812  1.00  0.00     0.270 C 
HETATM    2  N   UNL     1      -8.236   2.247 -32.998  1.00  0.00    -0.065 N 
HETATM    3  H   UNL     1      -8.344   2.158 -34.029  1.00  0.00     0.280 HD
ENDROOT
BRANCH   2   4
HETATM    4  C   UNL     1      -8.495   0.807 -32.491  1.00  0.00     0.225 C 
HETATM    5  C   UNL     1      -8.454  -0.229 -33.658  1.00  0.00     0.183 C 
HETATM    6  C   UNL     1      -7.044  -0.734 -33.560  1.00  0.00    -0.021 A 
HETATM    7  C   UNL     1      -6.486  -0.411 -32.312  1.00  0.00    -0.047 A 
HETATM    8  C   UNL     1      -6.318  -1.458 -34.493  1.00  0.00     0.010 A 
HETATM    9  C   UNL     1      -7.455   0.346 -31.454  1.00  0.00     0.075 C 
HETATM   10  C   UNL     1      -5.202  -0.802 -31.975  1.00  0.00     0.008 A 
HETATM   11  C   UNL     1      -4.461  -1.516 -32.917  1.00  0.00     0.001 A 
HETATM   12  C   UNL     1      -5.015  -1.841 -34.165  1.00  0.00     0.001 A 
BRANCH   5  13
HETATM   13  O   UNL     1      -8.758   0.408 -34.892  1.00  0.00    -0.389 OA
HETATM   14  H   UNL     1      -7.943   0.387 -35.430  1.00  0.00     0.210 HD
ENDBRANCH   5  13
ENDBRANCH   2   4
BRANCH   2  15
HETATM   15  C   UNL     1      -9.318   3.229 -32.564  1.00  0.00     0.271 C 
BRANCH  15  16
HETATM   16  C   UNL     1     -10.318   3.478 -33.714  1.00  0.00     0.177 C 
BRANCH  16  17
HETATM   17  O   UNL     1      -9.760   2.924 -34.912  1.00  0.00    -0.389 OA
HETATM   18  H   UNL     1     -10.155   2.037 -35.029  1.00  0.00     0.210 HD
ENDBRANCH  16  17
BRANCH  16  19
HETATM   19  C   UNL     1     -11.676   2.896 -33.397  1.00  0.00    -0.028 A 
HETATM   20  C   UNL     1     -12.023   1.630 -33.902  1.00  0.00     0.013 A 
HETATM   21  C   UNL     1     -13.290   1.094 -33.662  1.00  0.00     0.043 A 
HETATM   22  C   UNL     1     -14.212   1.818 -32.918  1.00  0.00     0.116 A 
HETATM   23  F   UNL     1     -15.427   1.304 -32.693  1.00  0.00    -0.206 F 
HETATM   24  C   UNL     1     -13.892   3.070 -32.410  1.00  0.00     0.043 A 
HETATM   25  C   UNL     1     -12.627   3.613 -32.651  1.00  0.00     0.013 A 
ENDBRANCH  16  19
ENDBRANCH  15  16
ENDBRANCH   2  15
TORSDOF 6
ENDMDL
MODEL 8
REMARK VINA RESULT:      -7.1      4.880      7.146
REMARK  6 active torsions:
REMARK  status: ('A' for Active; 'I' for Inactive)
REMARK    1  A    between atoms: N_2  and  C_4 
REMARK    2  A    between atoms: N_2  and  C_14 
REMARK    3  A    between atoms: C_5  and  O_6 
REMARK    4  A    between atoms: C_14  and  C_15 
REMARK    5  A    between atoms: C_15  and  O_16 
REMARK    6  A    between atoms: C_15  and  C_17 
ROOT
HETATM    1  C   UNL     1      -8.837   2.648 -30.981  1.00  0.00     0.270 C 
HETATM    2  N   UNL     1      -8.821   1.404 -31.827  1.00  0.00    -0.065 N 
HETATM    3  H   UNL     1      -9.579   0.811 -31.431  1.00  0.00     0.280 HD
ENDROOT
BRANCH   2   4
HETATM    4  C   UNL     1      -9.237   1.565 -33.310  1.00  0.00     0.225 C 
HETATM    5  C   UNL     1     -10.514   0.729 -33.642  1.00  0.00     0.183 C 
HETATM    6  C   UNL     1     -11.593   1.763 -33.503  1.00  0.00    -0.021 A 
HETATM    7  C   UNL     1     -11.048   3.057 -33.532  1.00  0.00    -0.047 A 
HETATM    8  C   UNL     1     -12.962   1.575 -33.396  1.00  0.00     0.010 A 
HETATM    9  C   UNL     1      -9.556   3.024 -33.682  1.00  0.00     0.075 C 
HETATM   10  C   UNL     1     -11.854   4.180 -33.454  1.00  0.00     0.008 A 
HETATM   11  C   UNL     1     -13.231   3.995 -33.328  1.00  0.00     0.001 A 
HETATM   12  C   UNL     1     -13.780   2.703 -33.299  1.00  0.00     0.001 A 
BRANCH   5  13
HETATM   13  O   UNL     1     -10.635  -0.362 -32.738  1.00  0.00    -0.389 OA
HETATM   14  H   UNL     1     -11.513  -0.762 -32.894  1.00  0.00     0.210 HD
ENDBRANCH   5  13
ENDBRANCH   2   4
BRANCH   2  15
HETATM   15  C   UNL     1      -7.544   0.589 -31.659  1.00  0.00     0.271 C 
BRANCH  15  16
HETATM   16  C   UNL     1      -6.642   0.730 -32.904  1.00  0.00     0.177 C 
BRANCH  16  17
HETATM   17  O   UNL     1      -5.500   1.512 -32.535  1.00  0.00    -0.389 OA
HETATM   18  H   UNL     1      -4.740   1.169 -33.045  1.00  0.00     0.210 HD
ENDBRANCH  16  17
BRANCH  16  19
HETATM   19  C   UNL     1      -6.252  -0.623 -33.455  1.00  0.00    -0.028 A 
HETATM   20  C   UNL     1      -4.900  -1.011 -33.444  1.00  0.00     0.013 A 
HETATM   21  C   UNL     1      -4.510  -2.235 -33.992  1.00  0.00     0.043 A 
HETATM   22  C   UNL     1      -5.466  -3.073 -34.551  1.00  0.00     0.116 A 
HETATM   23  F   UNL     1      -5.090  -4.243 -35.079  1.00  0.00    -0.206 F 
HETATM   24  C   UNL     1      -6.806  -2.710 -34.573  1.00  0.00     0.043 A 
HETATM   25  C   UNL     1      -7.201  -1.484 -34.031  1.00  0.00     0.013 A 
ENDBRANCH  16  19
ENDBRANCH  15  16
ENDBRANCH   2  15
TORSDOF 6
ENDMDL
MODEL 9
REMARK VINA RESULT:      -7.1      2.685      6.862
REMARK  6 active torsions:
REMARK  status: ('A' for Active; 'I' for Inactive)
REMARK    1  A    between atoms: N_2  and  C_4 
REMARK    2  A    between atoms: N_2  and  C_14 
REMARK    3  A    between atoms: C_5  and  O_6 
REMARK    4  A    between atoms: C_14  and  C_15 
REMARK    5  A    between atoms: C_15  and  O_16 
REMARK    6  A    between atoms: C_15  and  C_17 
ROOT
HETATM    1  C   UNL     1      -6.020   3.588 -33.662  1.00  0.00     0.270 C 
HETATM    2  N   UNL     1      -5.613   2.702 -32.516  1.00  0.00    -0.065 N 
HETATM    3  H   UNL     1      -4.881   2.080 -32.916  1.00  0.00     0.280 HD
ENDROOT
BRANCH   2   4
HETATM    4  C   UNL     1      -4.884   3.386 -31.332  1.00  0.00     0.225 C 
HETATM    5  C   UNL     1      -3.343   3.146 -31.391  1.00  0.00     0.183 C 
HETATM    6  C   UNL     1      -2.870   4.403 -32.061  1.00  0.00    -0.021 A 
HETATM    7  C   UNL     1      -3.860   5.398 -32.007  1.00  0.00    -0.047 A 
HETATM    8  C   UNL     1      -1.640   4.662 -32.646  1.00  0.00     0.010 A 
HETATM    9  C   UNL     1      -5.094   4.911 -31.307  1.00  0.00     0.075 C 
HETATM   10  C   UNL     1      -3.642   6.661 -32.531  1.00  0.00     0.008 A 
HETATM   11  C   UNL     1      -2.412   6.919 -33.136  1.00  0.00     0.001 A 
HETATM   12  C   UNL     1      -1.419   5.928 -33.192  1.00  0.00     0.001 A 
BRANCH   5  13
HETATM   13  O   UNL     1      -3.057   1.958 -32.118  1.00  0.00    -0.389 OA
HETATM   14  H   UNL     1      -2.592   2.230 -32.933  1.00  0.00     0.210 HD
ENDBRANCH   5  13
ENDBRANCH   2   4
BRANCH   2  15
HETATM   15  C   UNL     1      -6.728   1.769 -32.061  1.00  0.00     0.271 C 
BRANCH  15  16
HETATM   16  C   UNL     1      -6.143   0.453 -31.507  1.00  0.00     0.177 C 
BRANCH  16  17
HETATM   17  O   UNL     1      -7.001  -0.002 -30.453  1.00  0.00    -0.389 OA
HETATM   18  H   UNL     1      -7.880  -0.165 -30.849  1.00  0.00     0.210 HD
ENDBRANCH  16  17
BRANCH  16  19
HETATM   19  C   UNL     1      -5.986  -0.581 -32.598  1.00  0.00    -0.028 A 
HETATM   20  C   UNL     1      -4.748  -1.229 -32.765  1.00  0.00     0.013 A 
HETATM   21  C   UNL     1      -4.565  -2.152 -33.797  1.00  0.00     0.043 A 
HETATM   22  C   UNL     1      -5.614  -2.431 -34.663  1.00  0.00     0.116 A 
HETATM   23  F   UNL     1      -5.435  -3.312 -35.654  1.00  0.00    -0.206 F 
HETATM   24  C   UNL     1      -6.844  -1.803 -34.517  1.00  0.00     0.043 A 
HETATM   25  C   UNL     1      -7.031  -0.875 -33.490  1.00  0.00     0.013 A 
ENDBRANCH  16  19
ENDBRANCH  15  16
ENDBRANCH   2  15
TORSDOF 6
ENDMDL
MODEL 10
REMARK VINA RESULT:      -7.1     14.755     16.241
REMARK  6 active torsions:
REMARK  status: ('A' for Active; 'I' for Inactive)
REMARK    1  A    between atoms: N_2  and  C_4 
REMARK    2  A    between atoms: N_2  and  C_14 
REMARK    3  A    between atoms: C_5  and  O_6 
REMARK    4  A    between atoms: C_14  and  C_15 
REMARK    5  A    between atoms: C_15  and  O_16 
REMARK    6  A    between atoms: C_15  and  C_17 
ROOT
HETATM    1  C   UNL     1      -4.054 -13.596 -40.120  1.00  0.00     0.270 C 
HETATM    2  N   UNL     1      -4.540 -13.247 -38.739  1.00  0.00    -0.065 N 
HETATM    3  H   UNL     1      -4.682 -14.167 -38.274  1.00  0.00     0.280 HD
ENDROOT
BRANCH   2   4
HETATM    4  C   UNL     1      -3.531 -12.533 -37.806  1.00  0.00     0.225 C 
HETATM    5  C   UNL     1      -3.209 -13.393 -36.543  1.00  0.00     0.183 C 
HETATM    6  C   UNL     1      -1.937 -14.071 -36.959  1.00  0.00    -0.021 A 
HETATM    7  C   UNL     1      -1.361 -13.415 -38.060  1.00  0.00    -0.047 A 
HETATM    8  C   UNL     1      -1.314 -15.168 -36.386  1.00  0.00     0.010 A 
HETATM    9  C   UNL     1      -2.186 -12.242 -38.497  1.00  0.00     0.075 C 
HETATM   10  C   UNL     1      -0.160 -13.839 -38.603  1.00  0.00     0.008 A 
HETATM   11  C   UNL     1       0.461 -14.953 -38.040  1.00  0.00     0.001 A 
HETATM   12  C   UNL     1      -0.111 -15.612 -36.940  1.00  0.00     0.001 A 
BRANCH   5  13
HETATM   13  O   UNL     1      -4.281 -14.286 -36.270  1.00  0.00    -0.389 OA
HETATM   14  H   UNL     1      -4.728 -14.460 -37.122  1.00  0.00     0.210 HD
ENDBRANCH   5  13
ENDBRANCH   2   4
BRANCH   2  15
HETATM   15  C   UNL     1      -5.911 -12.582 -38.743  1.00  0.00     0.271 C 
BRANCH  15  16
HETATM   16  C   UNL     1      -6.950 -13.476 -38.032  1.00  0.00     0.177 C 
BRANCH  16  17
HETATM   17  O   UNL     1      -7.094 -13.002 -36.688  1.00  0.00    -0.389 OA
HETATM   18  H   UNL     1      -7.708 -12.241 -36.715  1.00  0.00     0.210 HD
ENDBRANCH  16  17
BRANCH  16  19
HETATM   19  C   UNL     1      -8.266 -13.486 -38.776  1.00  0.00    -0.028 A 
HETATM   20  C   UNL     1      -8.907 -14.712 -39.032  1.00  0.00     0.013 A 
HETATM   21  C   UNL     1     -10.099 -14.750 -39.759  1.00  0.00     0.043 A 
HETATM   22  C   UNL     1     -10.653 -13.568 -40.231  1.00  0.00     0.116 A 
HETATM   23  F   UNL     1     -11.792 -13.607 -40.932  1.00  0.00    -0.206 F 
HETATM   24  C   UNL     1     -10.037 -12.346 -39.991  1.00  0.00     0.043 A 
HETATM   25  C   UNL     1      -8.842 -12.303 -39.268  1.00  0.00     0.013 A 
ENDBRANCH  16  19
ENDBRANCH  15  16
ENDBRANCH   2  15
TORSDOF 6
ENDMDL
