MODEL 1
REMARK VINA RESULT:      -9.5      0.000      0.000
REMARK  9 active torsions:
REMARK  status: ('A' for Active; 'I' for Inactive)
REMARK    1  A    between atoms: C_4  and  S_5 
REMARK    2  A    between atoms: S_5  and  C_6 
REMARK    3  A    between atoms: C_6  and  C_7 
REMARK       I    between atoms: C_7  and  N_8 
REMARK    4  A    between atoms: N_8  and  C_9 
REMARK    5  A    between atoms: C_10  and  O_11 
REMARK    6  A    between atoms: C_16  and  O_17 
REMARK    7  A    between atoms: C_24  and  C_25 
REMARK    8  A    between atoms: C_31  and  C_32 
REMARK       I    between atoms: C_32  and  N_33 
REMARK    9  A    between atoms: N_33  and  C_34 
ROOT
HETATM    1  C   UNL     1      -2.970   0.680 -30.916  1.00  0.00     0.069 C 
HETATM    2  C   UNL     1      -4.030   1.484 -31.634  1.00  0.00     0.019 A 
HETATM    3  N   UNL     1      -3.979   2.849 -31.415  1.00  0.00    -0.353 N 
HETATM    4  C   UNL     1      -4.817   3.785 -31.988  1.00  0.00     0.087 A 
HETATM    5  C   UNL     1      -5.744   3.379 -32.886  1.00  0.00     0.055 A 
HETATM    6  C   UNL     1      -6.634   4.372 -33.613  1.00  0.00     0.019 C 
HETATM    7  N   UNL     1      -7.373   5.196 -34.217  1.00  0.00    -0.096 N 
HETATM    8  C   UNL     1      -5.957   1.891 -33.186  1.00  0.00     0.104 A 
HETATM    9  C   UNL     1      -4.980   0.960 -32.450  1.00  0.00     0.046 A 
HETATM   10  H   UNL     1      -3.145   3.226 -30.973  1.00  0.00     0.166 HD
ENDROOT
BRANCH   4  11
HETATM   11  S   UNL     1      -4.669   5.479 -31.569  1.00  0.00    -0.102 SA
BRANCH  11  12
HETATM   12  C   UNL     1      -3.373   6.024 -32.713  1.00  0.00     0.184 C 
BRANCH  12  13
HETATM   13  C   UNL     1      -2.131   6.574 -32.014  1.00  0.00     0.231 C 
HETATM   14  N   UNL     1      -2.199   6.444 -30.631  1.00  0.00    -0.324 N 
HETATM   15  H   UNL     1      -2.987   5.920 -30.274  1.00  0.00     0.169 HD
HETATM   16  O   UNL     1      -1.170   6.964 -32.671  1.00  0.00    -0.272 OA
BRANCH  14  17
HETATM   17  C   UNL     1      -1.189   6.722 -29.675  1.00  0.00     0.071 A 
HETATM   18  C   UNL     1      -0.128   5.867 -29.318  1.00  0.00     0.096 A 
HETATM   19  C   UNL     1       0.785   6.272 -28.332  1.00  0.00     0.065 A 
HETATM   20  C   UNL     1       0.655   7.513 -27.707  1.00  0.00     0.070 A 
HETATM   21 CL   UNL     1       1.810   7.956 -26.499  1.00  0.00    -0.081 Cl
HETATM   22  C   UNL     1      -0.383   8.369 -28.064  1.00  0.00     0.092 A 
HETATM   23  C   UNL     1      -1.276   7.988 -29.069  1.00  0.00     0.071 A 
BRANCH  18  24
HETATM   24  O   UNL     1       0.068   4.741 -30.068  1.00  0.00    -0.354 OA
HETATM   25  C   UNL     1       1.233   4.699 -30.883  1.00  0.00     0.210 C 
ENDBRANCH  18  24
BRANCH  22  26
HETATM   26  O   UNL     1      -0.472   9.608 -27.483  1.00  0.00    -0.354 OA
HETATM   27  C   UNL     1      -1.545  10.379 -28.022  1.00  0.00     0.210 C 
ENDBRANCH  22  26
ENDBRANCH  14  17
ENDBRANCH  12  13
ENDBRANCH  11  12
ENDBRANCH   4  11
BRANCH   8  28
HETATM   28  C   UNL     1      -7.423   1.501 -32.977  1.00  0.00    -0.044 A 
HETATM   29  C   UNL     1      -8.201   1.079 -34.070  1.00  0.00     0.008 A 
HETATM   30  C   UNL     1      -9.542   0.731 -33.898  1.00  0.00     0.001 A 
HETATM   31  C   UNL     1     -10.123   0.796 -32.634  1.00  0.00     0.000 A 
HETATM   32  C   UNL     1      -9.369   1.218 -31.544  1.00  0.00     0.001 A 
HETATM   33  C   UNL     1      -8.031   1.580 -31.715  1.00  0.00     0.008 A 
ENDBRANCH   8  28
BRANCH   9  34
HETATM   34  C   UNL     1      -5.145  -0.537 -32.545  1.00  0.00     0.255 C 
HETATM   35  N   UNL     1      -4.937  -1.076 -33.799  1.00  0.00    -0.323 N 
HETATM   36  H   UNL     1      -4.707  -0.452 -34.556  1.00  0.00     0.169 HD
HETATM   37  O   UNL     1      -5.490  -1.171 -31.552  1.00  0.00    -0.268 OA
BRANCH  35  38
HETATM   38  C   UNL     1      -5.133  -2.420 -34.192  1.00  0.00     0.035 A 
HETATM   39  C   UNL     1      -4.194  -3.438 -34.013  1.00  0.00     0.029 A 
HETATM   40  C   UNL     1      -4.477  -4.747 -34.420  1.00  0.00     0.002 A 
HETATM   41  C   UNL     1      -5.702  -5.051 -35.008  1.00  0.00     0.000 A 
HETATM   42  C   UNL     1      -6.645  -4.045 -35.193  1.00  0.00     0.002 A 
HETATM   43  C   UNL     1      -6.360  -2.737 -34.791  1.00  0.00     0.029 A 
ENDBRANCH  35  38
ENDBRANCH   9  34
TORSDOF 9
ENDMDL
MODEL 2
REMARK VINA RESULT:      -9.4      3.607     10.720
REMARK  9 active torsions:
REMARK  status: ('A' for Active; 'I' for Inactive)
REMARK    1  A    between atoms: C_4  and  S_5 
REMARK    2  A    between atoms: S_5  and  C_6 
REMARK    3  A    between atoms: C_6  and  C_7 
REMARK       I    between atoms: C_7  and  N_8 
REMARK    4  A    between atoms: N_8  and  C_9 
REMARK    5  A    between atoms: C_10  and  O_11 
REMARK    6  A    between atoms: C_16  and  O_17 
REMARK    7  A    between atoms: C_24  and  C_25 
REMARK    8  A    between atoms: C_31  and  C_32 
REMARK       I    between atoms: C_32  and  N_33 
REMARK    9  A    between atoms: N_33  and  C_34 
ROOT
HETATM    1  C   UNL     1      -4.636   5.964 -26.756  1.00  0.00     0.069 C 
HETATM    2  C   UNL     1      -4.743   5.859 -28.260  1.00  0.00     0.019 A 
HETATM    3  N   UNL     1      -5.555   4.837 -28.719  1.00  0.00    -0.353 N 
HETATM    4  C   UNL     1      -5.833   4.568 -30.045  1.00  0.00     0.087 A 
HETATM    5  C   UNL     1      -5.333   5.382 -31.002  1.00  0.00     0.055 A 
HETATM    6  C   UNL     1      -5.676   5.187 -32.469  1.00  0.00     0.019 C 
HETATM    7  N   UNL     1      -5.960   5.026 -33.688  1.00  0.00    -0.096 N 
HETATM    8  C   UNL     1      -4.370   6.521 -30.649  1.00  0.00     0.104 A 
HETATM    9  C   UNL     1      -4.120   6.681 -29.142  1.00  0.00     0.046 A 
HETATM   10  H   UNL     1      -6.161   4.376 -28.047  1.00  0.00     0.166 HD
ENDROOT
BRANCH   4  11
HETATM   11  S   UNL     1      -6.835   3.198 -30.478  1.00  0.00    -0.102 SA
BRANCH  11  12
HETATM   12  C   UNL     1      -5.608   1.867 -30.575  1.00  0.00     0.184 C 
BRANCH  12  13
HETATM   13  C   UNL     1      -6.164   0.563 -31.143  1.00  0.00     0.231 C 
HETATM   14  N   UNL     1      -5.722   0.316 -32.438  1.00  0.00    -0.324 N 
HETATM   15  H   UNL     1      -5.023   0.954 -32.796  1.00  0.00     0.169 HD
HETATM   16  O   UNL     1      -6.826  -0.190 -30.434  1.00  0.00    -0.272 OA
BRANCH  14  17
HETATM   17  C   UNL     1      -5.926  -0.845 -33.226  1.00  0.00     0.071 A 
HETATM   18  C   UNL     1      -7.145  -1.251 -33.804  1.00  0.00     0.096 A 
HETATM   19  C   UNL     1      -7.197  -2.444 -34.541  1.00  0.00     0.065 A 
HETATM   20  C   UNL     1      -6.055  -3.228 -34.711  1.00  0.00     0.070 A 
HETATM   21 CL   UNL     1      -6.183  -4.687 -35.628  1.00  0.00    -0.081 Cl
HETATM   22  C   UNL     1      -4.844  -2.827 -34.154  1.00  0.00     0.092 A 
HETATM   23  C   UNL     1      -4.775  -1.623 -33.448  1.00  0.00     0.071 A 
BRANCH  18  24
HETATM   24  O   UNL     1      -8.195  -0.377 -33.763  1.00  0.00    -0.354 OA
HETATM   25  C   UNL     1      -8.331   0.525 -34.854  1.00  0.00     0.210 C 
ENDBRANCH  18  24
BRANCH  22  26
HETATM   26  O   UNL     1      -3.715  -3.575 -34.371  1.00  0.00    -0.354 OA
HETATM   27  C   UNL     1      -3.473  -4.501 -33.313  1.00  0.00     0.210 C 
ENDBRANCH  22  26
ENDBRANCH  14  17
ENDBRANCH  12  13
ENDBRANCH  11  12
ENDBRANCH   4  11
BRANCH   8  28
HETATM   28  C   UNL     1      -3.075   6.406 -31.459  1.00  0.00    -0.044 A 
HETATM   29  C   UNL     1      -2.703   7.437 -32.340  1.00  0.00     0.008 A 
HETATM   30  C   UNL     1      -1.531   7.343 -33.093  1.00  0.00     0.001 A 
HETATM   31  C   UNL     1      -0.715   6.221 -32.976  1.00  0.00     0.000 A 
HETATM   32  C   UNL     1      -1.073   5.189 -32.114  1.00  0.00     0.001 A 
HETATM   33  C   UNL     1      -2.251   5.274 -31.369  1.00  0.00     0.008 A 
ENDBRANCH   8  28
BRANCH   9  34
HETATM   34  C   UNL     1      -3.099   7.677 -28.646  1.00  0.00     0.255 C 
HETATM   35  N   UNL     1      -1.884   7.142 -28.271  1.00  0.00    -0.323 N 
HETATM   36  H   UNL     1      -1.760   6.143 -28.338  1.00  0.00     0.169 HD
HETATM   37  O   UNL     1      -3.407   8.863 -28.557  1.00  0.00    -0.268 OA
BRANCH  35  38
HETATM   38  C   UNL     1      -0.800   7.823 -27.671  1.00  0.00     0.035 A 
HETATM   39  C   UNL     1      -0.828   8.372 -26.388  1.00  0.00     0.029 A 
HETATM   40  C   UNL     1       0.298   9.019 -25.866  1.00  0.00     0.002 A 
HETATM   41  C   UNL     1       1.463   9.121 -26.622  1.00  0.00     0.000 A 
HETATM   42  C   UNL     1       1.502   8.581 -27.903  1.00  0.00     0.002 A 
HETATM   43  C   UNL     1       0.375   7.939 -28.426  1.00  0.00     0.029 A 
ENDBRANCH  35  38
ENDBRANCH   9  34
TORSDOF 9
ENDMDL
MODEL 3
REMARK VINA RESULT:      -8.9      2.433      5.035
REMARK  9 active torsions:
REMARK  status: ('A' for Active; 'I' for Inactive)
REMARK    1  A    between atoms: C_4  and  S_5 
REMARK    2  A    between atoms: S_5  and  C_6 
REMARK    3  A    between atoms: C_6  and  C_7 
REMARK       I    between atoms: C_7  and  N_8 
REMARK    4  A    between atoms: N_8  and  C_9 
REMARK    5  A    between atoms: C_10  and  O_11 
REMARK    6  A    between atoms: C_16  and  O_17 
REMARK    7  A    between atoms: C_24  and  C_25 
REMARK    8  A    between atoms: C_31  and  C_32 
REMARK       I    between atoms: C_32  and  N_33 
REMARK    9  A    between atoms: N_33  and  C_34 
ROOT
HETATM    1  C   UNL     1      -7.623   5.861 -33.168  1.00  0.00     0.069 C 
HETATM    2  C   UNL     1      -6.785   4.625 -32.941  1.00  0.00     0.019 A 
HETATM    3  N   UNL     1      -5.418   4.816 -33.044  1.00  0.00    -0.353 N 
HETATM    4  C   UNL     1      -4.455   3.846 -32.844  1.00  0.00     0.087 A 
HETATM    5  C   UNL     1      -4.837   2.606 -32.461  1.00  0.00     0.055 A 
HETATM    6  C   UNL     1      -3.820   1.525 -32.141  1.00  0.00     0.019 C 
HETATM    7  N   UNL     1      -2.975   0.626 -31.876  1.00  0.00    -0.096 N 
HETATM    8  C   UNL     1      -6.320   2.230 -32.362  1.00  0.00     0.104 A 
HETATM    9  C   UNL     1      -7.280   3.395 -32.647  1.00  0.00     0.046 A 
HETATM   10  H   UNL     1      -5.075   5.772 -33.060  1.00  0.00     0.166 HD
ENDROOT
BRANCH   4  11
HETATM   11  S   UNL     1      -2.760   4.224 -33.068  1.00  0.00    -0.102 SA
BRANCH  11  12
HETATM   12  C   UNL     1      -2.855   5.795 -33.968  1.00  0.00     0.184 C 
BRANCH  12  13
HETATM   13  C   UNL     1      -2.334   6.989 -33.170  1.00  0.00     0.231 C 
HETATM   14  N   UNL     1      -2.652   6.905 -31.819  1.00  0.00    -0.324 N 
HETATM   15  H   UNL     1      -3.082   6.040 -31.519  1.00  0.00     0.169 HD
HETATM   16  O   UNL     1      -1.620   7.831 -33.708  1.00  0.00    -0.272 OA
BRANCH  14  17
HETATM   17  C   UNL     1      -2.229   7.755 -30.766  1.00  0.00     0.071 A 
HETATM   18  C   UNL     1      -2.648   9.083 -30.554  1.00  0.00     0.096 A 
HETATM   19  C   UNL     1      -2.120   9.812 -29.477  1.00  0.00     0.065 A 
HETATM   20  C   UNL     1      -1.190   9.233 -28.612  1.00  0.00     0.070 A 
HETATM   21 CL   UNL     1      -0.575  10.181 -27.304  1.00  0.00    -0.081 Cl
HETATM   22  C   UNL     1      -0.781   7.916 -28.807  1.00  0.00     0.092 A 
HETATM   23  C   UNL     1      -1.327   7.173 -29.856  1.00  0.00     0.071 A 
BRANCH  18  24
HETATM   24  O   UNL     1      -3.682   9.558 -31.313  1.00  0.00    -0.354 OA
HETATM   25  C   UNL     1      -4.993   9.423 -30.778  1.00  0.00     0.210 C 
ENDBRANCH  18  24
BRANCH  22  26
HETATM   26  O   UNL     1       0.092   7.338 -27.922  1.00  0.00    -0.354 OA
HETATM   27  C   UNL     1      -0.577   6.518 -26.965  1.00  0.00     0.210 C 
ENDBRANCH  22  26
ENDBRANCH  14  17
ENDBRANCH  12  13
ENDBRANCH  11  12
ENDBRANCH   4  11
BRANCH   8  28
HETATM   28  C   UNL     1      -6.621   0.989 -33.207  1.00  0.00    -0.044 A 
HETATM   29  C   UNL     1      -6.599   1.072 -34.610  1.00  0.00     0.008 A 
HETATM   30  C   UNL     1      -6.881  -0.048 -35.395  1.00  0.00     0.001 A 
HETATM   31  C   UNL     1      -7.187  -1.264 -34.791  1.00  0.00     0.000 A 
HETATM   32  C   UNL     1      -7.220  -1.361 -33.403  1.00  0.00     0.001 A 
HETATM   33  C   UNL     1      -6.951  -0.240 -32.615  1.00  0.00     0.008 A 
ENDBRANCH   8  28
BRANCH   9  34
HETATM   34  C   UNL     1      -8.768   3.151 -32.712  1.00  0.00     0.255 C 
HETATM   35  N   UNL     1      -9.258   2.811 -33.956  1.00  0.00    -0.323 N 
HETATM   36  H   UNL     1      -8.612   2.761 -34.728  1.00  0.00     0.169 HD
HETATM   37  O   UNL     1      -9.450   3.309 -31.703  1.00  0.00    -0.268 OA
BRANCH  35  38
HETATM   38  C   UNL     1     -10.614   2.640 -34.321  1.00  0.00     0.035 A 
HETATM   39  C   UNL     1     -11.383   3.608 -34.970  1.00  0.00     0.029 A 
HETATM   40  C   UNL     1     -12.716   3.348 -35.308  1.00  0.00     0.002 A 
HETATM   41  C   UNL     1     -13.291   2.117 -35.003  1.00  0.00     0.000 A 
HETATM   42  C   UNL     1     -12.535   1.146 -34.355  1.00  0.00     0.002 A 
HETATM   43  C   UNL     1     -11.205   1.407 -34.013  1.00  0.00     0.029 A 
ENDBRANCH  35  38
ENDBRANCH   9  34
TORSDOF 9
ENDMDL
MODEL 4
REMARK VINA RESULT:      -8.9      0.866      2.272
REMARK  9 active torsions:
REMARK  status: ('A' for Active; 'I' for Inactive)
REMARK    1  A    between atoms: C_4  and  S_5 
REMARK    2  A    between atoms: S_5  and  C_6 
REMARK    3  A    between atoms: C_6  and  C_7 
REMARK       I    between atoms: C_7  and  N_8 
REMARK    4  A    between atoms: N_8  and  C_9 
REMARK    5  A    between atoms: C_10  and  O_11 
REMARK    6  A    between atoms: C_16  and  O_17 
REMARK    7  A    between atoms: C_24  and  C_25 
REMARK    8  A    between atoms: C_31  and  C_32 
REMARK       I    between atoms: C_32  and  N_33 
REMARK    9  A    between atoms: N_33  and  C_34 
ROOT
HETATM    1  C   UNL     1      -3.088   1.048 -30.922  1.00  0.00     0.069 C 
HETATM    2  C   UNL     1      -4.220   1.736 -31.649  1.00  0.00     0.019 A 
HETATM    3  N   UNL     1      -4.323   3.096 -31.419  1.00  0.00    -0.353 N 
HETATM    4  C   UNL     1      -5.252   3.939 -31.996  1.00  0.00     0.087 A 
HETATM    5  C   UNL     1      -6.117   3.441 -32.910  1.00  0.00     0.055 A 
HETATM    6  C   UNL     1      -7.102   4.337 -33.642  1.00  0.00     0.019 C 
HETATM    7  N   UNL     1      -7.920   5.079 -34.250  1.00  0.00    -0.096 N 
HETATM    8  C   UNL     1      -6.160   1.942 -33.225  1.00  0.00     0.104 A 
HETATM    9  C   UNL     1      -5.096   1.118 -32.482  1.00  0.00     0.046 A 
HETATM   10  H   UNL     1      -3.543   3.559 -30.962  1.00  0.00     0.166 HD
ENDROOT
BRANCH   4  11
HETATM   11  S   UNL     1      -5.298   5.635 -31.562  1.00  0.00    -0.102 SA
BRANCH  11  12
HETATM   12  C   UNL     1      -4.153   6.351 -32.772  1.00  0.00     0.184 C 
BRANCH  12  13
HETATM   13  C   UNL     1      -2.817   6.780 -32.170  1.00  0.00     0.231 C 
HETATM   14  N   UNL     1      -2.932   7.162 -30.838  1.00  0.00    -0.324 N 
HETATM   15  H   UNL     1      -3.837   7.013 -30.411  1.00  0.00     0.169 HD
HETATM   16  O   UNL     1      -1.779   6.661 -32.815  1.00  0.00    -0.272 OA
BRANCH  14  17
HETATM   17  C   UNL     1      -1.895   7.494 -29.930  1.00  0.00     0.071 A 
HETATM   18  C   UNL     1      -1.711   8.741 -29.302  1.00  0.00     0.096 A 
HETATM   19  C   UNL     1      -0.618   8.928 -28.442  1.00  0.00     0.065 A 
HETATM   20  C   UNL     1       0.284   7.891 -28.199  1.00  0.00     0.070 A 
HETATM   21 CL   UNL     1       1.611   8.182 -27.131  1.00  0.00    -0.081 Cl
HETATM   22  C   UNL     1       0.101   6.651 -28.806  1.00  0.00     0.092 A 
HETATM   23  C   UNL     1      -1.003   6.447 -29.636  1.00  0.00     0.071 A 
BRANCH  18  24
HETATM   24  O   UNL     1      -2.703   9.674 -29.427  1.00  0.00    -0.354 OA
HETATM   25  C   UNL     1      -3.646   9.763 -28.366  1.00  0.00     0.210 C 
ENDBRANCH  18  24
BRANCH  22  26
HETATM   26  O   UNL     1       0.961   5.622 -28.520  1.00  0.00    -0.354 OA
HETATM   27  C   UNL     1       0.989   4.641 -29.556  1.00  0.00     0.210 C 
ENDBRANCH  22  26
ENDBRANCH  14  17
ENDBRANCH  12  13
ENDBRANCH  11  12
ENDBRANCH   4  11
BRANCH   8  28
HETATM   28  C   UNL     1      -7.576   1.391 -33.039  1.00  0.00    -0.044 A 
HETATM   29  C   UNL     1      -8.098   1.213 -31.746  1.00  0.00     0.008 A 
HETATM   30  C   UNL     1      -9.384   0.701 -31.560  1.00  0.00     0.001 A 
HETATM   31  C   UNL     1     -10.166   0.362 -32.661  1.00  0.00     0.000 A 
HETATM   32  C   UNL     1      -9.661   0.526 -33.947  1.00  0.00     0.001 A 
HETATM   33  C   UNL     1      -8.371   1.025 -34.137  1.00  0.00     0.008 A 
ENDBRANCH   8  28
BRANCH   9  34
HETATM   34  C   UNL     1      -5.093  -0.387 -32.592  1.00  0.00     0.255 C 
HETATM   35  N   UNL     1      -5.175  -0.887 -33.875  1.00  0.00    -0.323 N 
HETATM   36  H   UNL     1      -5.243  -0.234 -34.640  1.00  0.00     0.169 HD
HETATM   37  O   UNL     1      -5.068  -1.067 -31.569  1.00  0.00    -0.268 OA
BRANCH  35  38
HETATM   38  C   UNL     1      -5.302  -2.243 -34.256  1.00  0.00     0.035 A 
HETATM   39  C   UNL     1      -4.260  -3.171 -34.226  1.00  0.00     0.029 A 
HETATM   40  C   UNL     1      -4.479  -4.500 -34.607  1.00  0.00     0.002 A 
HETATM   41  C   UNL     1      -5.743  -4.913 -35.021  1.00  0.00     0.000 A 
HETATM   42  C   UNL     1      -6.789  -3.997 -35.057  1.00  0.00     0.002 A 
HETATM   43  C   UNL     1      -6.568  -2.669 -34.680  1.00  0.00     0.029 A 
ENDBRANCH  35  38
ENDBRANCH   9  34
TORSDOF 9
ENDMDL
MODEL 5
REMARK VINA RESULT:      -8.8      2.252      4.637
REMARK  9 active torsions:
REMARK  status: ('A' for Active; 'I' for Inactive)
REMARK    1  A    between atoms: C_4  and  S_5 
REMARK    2  A    between atoms: S_5  and  C_6 
REMARK    3  A    between atoms: C_6  and  C_7 
REMARK       I    between atoms: C_7  and  N_8 
REMARK    4  A    between atoms: N_8  and  C_9 
REMARK    5  A    between atoms: C_10  and  O_11 
REMARK    6  A    between atoms: C_16  and  O_17 
REMARK    7  A    between atoms: C_24  and  C_25 
REMARK    8  A    between atoms: C_31  and  C_32 
REMARK       I    between atoms: C_32  and  N_33 
REMARK    9  A    between atoms: N_33  and  C_34 
ROOT
HETATM    1  C   UNL     1      -9.275   5.799 -33.243  1.00  0.00     0.069 C 
HETATM    2  C   UNL     1      -8.116   4.843 -33.081  1.00  0.00     0.019 A 
HETATM    3  N   UNL     1      -6.871   5.379 -33.361  1.00  0.00    -0.353 N 
HETATM    4  C   UNL     1      -5.667   4.712 -33.251  1.00  0.00     0.087 A 
HETATM    5  C   UNL     1      -5.657   3.443 -32.781  1.00  0.00     0.055 A 
HETATM    6  C   UNL     1      -4.357   2.690 -32.556  1.00  0.00     0.019 C 
HETATM    7  N   UNL     1      -3.278   2.065 -32.368  1.00  0.00    -0.096 N 
HETATM    8  C   UNL     1      -6.963   2.698 -32.484  1.00  0.00     0.104 A 
HETATM    9  C   UNL     1      -8.226   3.549 -32.686  1.00  0.00     0.046 A 
HETATM   10  H   UNL     1      -6.801   6.389 -33.452  1.00  0.00     0.166 HD
ENDROOT
BRANCH   4  11
HETATM   11  S   UNL     1      -4.172   5.506 -33.698  1.00  0.00    -0.102 SA
BRANCH  11  12
HETATM   12  C   UNL     1      -4.043   6.784 -32.419  1.00  0.00     0.184 C 
BRANCH  12  13
HETATM   13  C   UNL     1      -3.014   6.464 -31.336  1.00  0.00     0.231 C 
HETATM   14  N   UNL     1      -2.323   7.593 -30.910  1.00  0.00    -0.324 N 
HETATM   15  H   UNL     1      -2.649   8.477 -31.278  1.00  0.00     0.169 HD
HETATM   16  O   UNL     1      -2.944   5.334 -30.861  1.00  0.00    -0.272 OA
BRANCH  14  17
HETATM   17  C   UNL     1      -1.395   7.700 -29.842  1.00  0.00     0.071 A 
HETATM   18  C   UNL     1      -0.077   7.204 -29.837  1.00  0.00     0.096 A 
HETATM   19  C   UNL     1       0.718   7.365 -28.691  1.00  0.00     0.065 A 
HETATM   20  C   UNL     1       0.218   8.014 -27.562  1.00  0.00     0.070 A 
HETATM   21 CL   UNL     1       1.244   8.181 -26.181  1.00  0.00    -0.081 Cl
HETATM   22  C   UNL     1      -1.080   8.519 -27.564  1.00  0.00     0.092 A 
HETATM   23  C   UNL     1      -1.866   8.393 -28.713  1.00  0.00     0.071 A 
BRANCH  18  24
HETATM   24  O   UNL     1       0.434   6.729 -31.013  1.00  0.00    -0.354 OA
HETATM   25  C   UNL     1       0.593   5.321 -31.129  1.00  0.00     0.210 C 
ENDBRANCH  18  24
BRANCH  22  26
HETATM   26  O   UNL     1      -1.545   9.203 -26.471  1.00  0.00    -0.354 OA
HETATM   27  C   UNL     1      -2.444   8.419 -25.688  1.00  0.00     0.210 C 
ENDBRANCH  22  26
ENDBRANCH  14  17
ENDBRANCH  12  13
ENDBRANCH  11  12
ENDBRANCH   4  11
BRANCH   8  28
HETATM   28  C   UNL     1      -7.012   1.369 -33.242  1.00  0.00    -0.044 A 
HETATM   29  C   UNL     1      -6.970   1.359 -34.648  1.00  0.00     0.008 A 
HETATM   30  C   UNL     1      -7.025   0.155 -35.354  1.00  0.00     0.001 A 
HETATM   31  C   UNL     1      -7.120  -1.052 -34.668  1.00  0.00     0.000 A 
HETATM   32  C   UNL     1      -7.170  -1.059 -33.278  1.00  0.00     0.001 A 
HETATM   33  C   UNL     1      -7.128   0.143 -32.568  1.00  0.00     0.008 A 
ENDBRANCH   8  28
BRANCH   9  34
HETATM   34  C   UNL     1      -9.592   2.919 -32.555  1.00  0.00     0.255 C 
HETATM   35  N   UNL     1     -10.094   2.351 -33.708  1.00  0.00    -0.323 N 
HETATM   36  H   UNL     1      -9.538   2.401 -34.548  1.00  0.00     0.169 HD
HETATM   37  O   UNL     1     -10.186   2.985 -31.482  1.00  0.00    -0.268 OA
BRANCH  35  38
HETATM   38  C   UNL     1     -11.382   1.798 -33.895  1.00  0.00     0.035 A 
HETATM   39  C   UNL     1     -12.457   2.481 -34.467  1.00  0.00     0.029 A 
HETATM   40  C   UNL     1     -13.696   1.851 -34.628  1.00  0.00     0.002 A 
HETATM   41  C   UNL     1     -13.872   0.531 -34.220  1.00  0.00     0.000 A 
HETATM   42  C   UNL     1     -12.808  -0.159 -33.647  1.00  0.00     0.002 A 
HETATM   43  C   UNL     1     -11.572   0.472 -33.482  1.00  0.00     0.029 A 
ENDBRANCH  35  38
ENDBRANCH   9  34
TORSDOF 9
ENDMDL
MODEL 6
REMARK VINA RESULT:      -8.7      4.148      7.562
REMARK  9 active torsions:
REMARK  status: ('A' for Active; 'I' for Inactive)
REMARK    1  A    between atoms: C_4  and  S_5 
REMARK    2  A    between atoms: S_5  and  C_6 
REMARK    3  A    between atoms: C_6  and  C_7 
REMARK       I    between atoms: C_7  and  N_8 
REMARK    4  A    between atoms: N_8  and  C_9 
REMARK    5  A    between atoms: C_10  and  O_11 
REMARK    6  A    between atoms: C_16  and  O_17 
REMARK    7  A    between atoms: C_24  and  C_25 
REMARK    8  A    between atoms: C_31  and  C_32 
REMARK       I    between atoms: C_32  and  N_33 
REMARK    9  A    between atoms: N_33  and  C_34 
ROOT
HETATM    1  C   UNL     1      -6.256   1.181 -29.742  1.00  0.00     0.069 C 
HETATM    2  C   UNL     1      -5.527   2.463 -30.072  1.00  0.00     0.019 A 
HETATM    3  N   UNL     1      -5.969   3.581 -29.387  1.00  0.00    -0.353 N 
HETATM    4  C   UNL     1      -5.437   4.851 -29.496  1.00  0.00     0.087 A 
HETATM    5  C   UNL     1      -4.357   5.048 -30.287  1.00  0.00     0.055 A 
HETATM    6  C   UNL     1      -3.675   6.402 -30.378  1.00  0.00     0.019 C 
HETATM    7  N   UNL     1      -3.109   7.527 -30.454  1.00  0.00    -0.096 N 
HETATM    8  C   UNL     1      -3.792   3.916 -31.152  1.00  0.00     0.104 A 
HETATM    9  C   UNL     1      -4.505   2.568 -30.959  1.00  0.00     0.046 A 
HETATM   10  H   UNL     1      -6.586   3.436 -28.593  1.00  0.00     0.166 HD
ENDROOT
BRANCH   4  11
HETATM   11  S   UNL     1      -6.142   6.184 -28.607  1.00  0.00    -0.102 SA
BRANCH  11  12
HETATM   12  C   UNL     1      -7.128   6.997 -29.893  1.00  0.00     0.184 C 
BRANCH  12  13
HETATM   13  C   UNL     1      -8.299   6.152 -30.391  1.00  0.00     0.231 C 
HETATM   14  N   UNL     1      -8.118   5.712 -31.698  1.00  0.00    -0.324 N 
HETATM   15  H   UNL     1      -7.216   5.908 -32.110  1.00  0.00     0.169 HD
HETATM   16  O   UNL     1      -9.207   5.839 -29.627  1.00  0.00    -0.272 OA
BRANCH  14  17
HETATM   17  C   UNL     1      -8.926   4.812 -32.438  1.00  0.00     0.071 A 
HETATM   18  C   UNL     1     -10.093   5.143 -33.154  1.00  0.00     0.096 A 
HETATM   19  C   UNL     1     -10.805   4.133 -33.821  1.00  0.00     0.065 A 
HETATM   20  C   UNL     1     -10.366   2.809 -33.786  1.00  0.00     0.070 A 
HETATM   21 CL   UNL     1     -11.286   1.610 -34.625  1.00  0.00    -0.081 Cl
HETATM   22  C   UNL     1      -9.207   2.476 -33.091  1.00  0.00     0.092 A 
HETATM   23  C   UNL     1      -8.473   3.480 -32.453  1.00  0.00     0.071 A 
BRANCH  18  24
HETATM   24  O   UNL     1     -10.396   6.467 -33.309  1.00  0.00    -0.354 OA
HETATM   25  C   UNL     1     -10.499   6.956 -34.641  1.00  0.00     0.210 C 
ENDBRANCH  18  24
BRANCH  22  26
HETATM   26  O   UNL     1      -8.753   1.182 -33.106  1.00  0.00    -0.354 OA
HETATM   27  C   UNL     1      -9.088   0.481 -31.910  1.00  0.00     0.210 C 
ENDBRANCH  22  26
ENDBRANCH  14  17
ENDBRANCH  12  13
ENDBRANCH  11  12
ENDBRANCH   4  11
BRANCH   8  28
HETATM   28  C   UNL     1      -3.714   4.344 -32.620  1.00  0.00    -0.044 A 
HETATM   29  C   UNL     1      -4.894   4.525 -33.363  1.00  0.00     0.008 A 
HETATM   30  C   UNL     1      -4.840   4.905 -34.706  1.00  0.00     0.001 A 
HETATM   31  C   UNL     1      -3.609   5.110 -35.324  1.00  0.00     0.000 A 
HETATM   32  C   UNL     1      -2.433   4.927 -34.604  1.00  0.00     0.001 A 
HETATM   33  C   UNL     1      -2.483   4.535 -33.265  1.00  0.00     0.008 A 
ENDBRANCH   8  28
BRANCH   9  34
HETATM   34  C   UNL     1      -4.145   1.390 -31.832  1.00  0.00     0.255 C 
HETATM   35  N   UNL     1      -5.210   0.761 -32.444  1.00  0.00    -0.323 N 
HETATM   36  H   UNL     1      -6.139   1.110 -32.266  1.00  0.00     0.169 HD
HETATM   37  O   UNL     1      -2.973   1.033 -31.911  1.00  0.00    -0.268 OA
BRANCH  35  38
HETATM   38  C   UNL     1      -5.172  -0.423 -33.217  1.00  0.00     0.035 A 
HETATM   39  C   UNL     1      -4.234  -1.443 -33.048  1.00  0.00     0.029 A 
HETATM   40  C   UNL     1      -4.279  -2.590 -33.849  1.00  0.00     0.002 A 
HETATM   41  C   UNL     1      -5.263  -2.728 -34.825  1.00  0.00     0.000 A 
HETATM   42  C   UNL     1      -6.201  -1.717 -35.003  1.00  0.00     0.002 A 
HETATM   43  C   UNL     1      -6.153  -0.569 -34.206  1.00  0.00     0.029 A 
ENDBRANCH  35  38
ENDBRANCH   9  34
TORSDOF 9
ENDMDL
MODEL 7
REMARK VINA RESULT:      -8.6      1.867      2.554
REMARK  9 active torsions:
REMARK  status: ('A' for Active; 'I' for Inactive)
REMARK    1  A    between atoms: C_4  and  S_5 
REMARK    2  A    between atoms: S_5  and  C_6 
REMARK    3  A    between atoms: C_6  and  C_7 
REMARK       I    between atoms: C_7  and  N_8 
REMARK    4  A    between atoms: N_8  and  C_9 
REMARK    5  A    between atoms: C_10  and  O_11 
REMARK    6  A    between atoms: C_16  and  O_17 
REMARK    7  A    between atoms: C_24  and  C_25 
REMARK    8  A    between atoms: C_31  and  C_32 
REMARK       I    between atoms: C_32  and  N_33 
REMARK    9  A    between atoms: N_33  and  C_34 
ROOT
HETATM    1  C   UNL     1      -4.370   1.295 -32.590  1.00  0.00     0.069 C 
HETATM    2  C   UNL     1      -5.660   2.052 -32.807  1.00  0.00     0.019 A 
HETATM    3  N   UNL     1      -5.810   3.187 -32.030  1.00  0.00    -0.353 N 
HETATM    4  C   UNL     1      -6.883   4.055 -32.077  1.00  0.00     0.087 A 
HETATM    5  C   UNL     1      -7.864   3.842 -32.984  1.00  0.00     0.055 A 
HETATM    6  C   UNL     1      -9.024   4.811 -33.142  1.00  0.00     0.019 C 
HETATM    7  N   UNL     1      -9.987   5.615 -33.274  1.00  0.00    -0.096 N 
HETATM    8  C   UNL     1      -7.863   2.595 -33.874  1.00  0.00     0.104 A 
HETATM    9  C   UNL     1      -6.629   1.698 -33.689  1.00  0.00     0.046 A 
HETATM   10  H   UNL     1      -4.993   3.534 -31.537  1.00  0.00     0.166 HD
ENDROOT
BRANCH   4  11
HETATM   11  S   UNL     1      -6.963   5.422 -30.986  1.00  0.00    -0.102 SA
BRANCH  11  12
HETATM   12  C   UNL     1      -6.190   6.726 -31.981  1.00  0.00     0.184 C 
BRANCH  12  13
HETATM   13  C   UNL     1      -5.030   7.427 -31.276  1.00  0.00     0.231 C 
HETATM   14  N   UNL     1      -4.021   6.544 -30.907  1.00  0.00    -0.324 N 
HETATM   15  H   UNL     1      -4.124   5.592 -31.235  1.00  0.00     0.169 HD
HETATM   16  O   UNL     1      -5.007   8.651 -31.186  1.00  0.00    -0.272 OA
BRANCH  14  17
HETATM   17  C   UNL     1      -2.751   6.848 -30.355  1.00  0.00     0.071 A 
HETATM   18  C   UNL     1      -1.512   6.732 -31.015  1.00  0.00     0.096 A 
HETATM   19  C   UNL     1      -0.330   7.047 -30.327  1.00  0.00     0.065 A 
HETATM   20  C   UNL     1      -0.370   7.478 -29.000  1.00  0.00     0.070 A 
HETATM   21 CL   UNL     1       1.119   7.851 -28.206  1.00  0.00    -0.081 Cl
HETATM   22  C   UNL     1      -1.592   7.607 -28.345  1.00  0.00     0.092 A 
HETATM   23  C   UNL     1      -2.775   7.328 -29.033  1.00  0.00     0.071 A 
BRANCH  18  24
HETATM   24  O   UNL     1      -1.522   6.474 -32.357  1.00  0.00    -0.354 OA
HETATM   25  C   UNL     1      -1.579   7.595 -33.231  1.00  0.00     0.210 C 
ENDBRANCH  18  24
BRANCH  22  26
HETATM   26  O   UNL     1      -1.627   8.082 -27.059  1.00  0.00    -0.354 OA
HETATM   27  C   UNL     1      -1.690   7.030 -26.098  1.00  0.00     0.210 C 
ENDBRANCH  22  26
ENDBRANCH  14  17
ENDBRANCH  12  13
ENDBRANCH  11  12
ENDBRANCH   4  11
BRANCH   8  28
HETATM   28  C   UNL     1      -9.182   1.829 -33.735  1.00  0.00    -0.044 A 
HETATM   29  C   UNL     1      -9.277   0.749 -32.840  1.00  0.00     0.008 A 
HETATM   30  C   UNL     1     -10.469   0.034 -32.710  1.00  0.00     0.001 A 
HETATM   31  C   UNL     1     -11.581   0.388 -33.468  1.00  0.00     0.000 A 
HETATM   32  C   UNL     1     -11.501   1.450 -34.363  1.00  0.00     0.001 A 
HETATM   33  C   UNL     1     -10.307   2.159 -34.506  1.00  0.00     0.008 A 
ENDBRANCH   8  28
BRANCH   9  34
HETATM   34  C   UNL     1      -6.544   0.370 -34.403  1.00  0.00     0.255 C 
HETATM   35  N   UNL     1      -6.262  -0.716 -33.600  1.00  0.00    -0.323 N 
HETATM   36  H   UNL     1      -6.122  -0.558 -32.614  1.00  0.00     0.169 HD
HETATM   37  O   UNL     1      -6.676   0.332 -35.624  1.00  0.00    -0.268 OA
BRANCH  35  38
HETATM   38  C   UNL     1      -6.017  -2.044 -34.017  1.00  0.00     0.035 A 
HETATM   39  C   UNL     1      -6.996  -2.907 -34.515  1.00  0.00     0.029 A 
HETATM   40  C   UNL     1      -6.662  -4.204 -34.920  1.00  0.00     0.002 A 
HETATM   41  C   UNL     1      -5.347  -4.651 -34.832  1.00  0.00     0.000 A 
HETATM   42  C   UNL     1      -4.363  -3.801 -34.335  1.00  0.00     0.002 A 
HETATM   43  C   UNL     1      -4.698  -2.507 -33.927  1.00  0.00     0.029 A 
ENDBRANCH  35  38
ENDBRANCH   9  34
TORSDOF 9
ENDMDL
MODEL 8
REMARK VINA RESULT:      -8.5      2.594      4.821
REMARK  9 active torsions:
REMARK  status: ('A' for Active; 'I' for Inactive)
REMARK    1  A    between atoms: C_4  and  S_5 
REMARK    2  A    between atoms: S_5  and  C_6 
REMARK    3  A    between atoms: C_6  and  C_7 
REMARK       I    between atoms: C_7  and  N_8 
REMARK    4  A    between atoms: N_8  and  C_9 
REMARK    5  A    between atoms: C_10  and  O_11 
REMARK    6  A    between atoms: C_16  and  O_17 
REMARK    7  A    between atoms: C_24  and  C_25 
REMARK    8  A    between atoms: C_31  and  C_32 
REMARK       I    between atoms: C_32  and  N_33 
REMARK    9  A    between atoms: N_33  and  C_34 
ROOT
HETATM    1  C   UNL     1      -6.699   2.382 -29.931  1.00  0.00     0.069 C 
HETATM    2  C   UNL     1      -5.811   3.552 -30.288  1.00  0.00     0.019 A 
HETATM    3  N   UNL     1      -6.291   4.790 -29.901  1.00  0.00    -0.353 N 
HETATM    4  C   UNL     1      -5.641   5.995 -30.087  1.00  0.00     0.087 A 
HETATM    5  C   UNL     1      -4.407   6.001 -30.640  1.00  0.00     0.055 A 
HETATM    6  C   UNL     1      -3.609   7.285 -30.788  1.00  0.00     0.019 C 
HETATM    7  N   UNL     1      -2.946   8.351 -30.912  1.00  0.00    -0.096 N 
HETATM    8  C   UNL     1      -3.771   4.711 -31.170  1.00  0.00     0.104 A 
HETATM    9  C   UNL     1      -4.620   3.453 -30.932  1.00  0.00     0.046 A 
HETATM   10  H   UNL     1      -7.071   4.813 -29.251  1.00  0.00     0.166 HD
ENDROOT
BRANCH   4  11
HETATM   11  S   UNL     1      -6.402   7.494 -29.595  1.00  0.00    -0.102 SA
BRANCH  11  12
HETATM   12  C   UNL     1      -6.268   7.395 -27.790  1.00  0.00     0.184 C 
BRANCH  12  13
HETATM   13  C   UNL     1      -4.884   6.970 -27.303  1.00  0.00     0.231 C 
HETATM   14  N   UNL     1      -3.921   7.950 -27.517  1.00  0.00    -0.324 N 
HETATM   15  H   UNL     1      -4.262   8.838 -27.860  1.00  0.00     0.169 HD
HETATM   16  O   UNL     1      -4.738   5.915 -26.692  1.00  0.00    -0.272 OA
BRANCH  14  17
HETATM   17  C   UNL     1      -2.571   7.960 -27.084  1.00  0.00     0.071 A 
HETATM   18  C   UNL     1      -2.043   8.738 -26.035  1.00  0.00     0.096 A 
HETATM   19  C   UNL     1      -0.674   8.659 -25.737  1.00  0.00     0.065 A 
HETATM   20  C   UNL     1       0.167   7.817 -26.465  1.00  0.00     0.070 A 
HETATM   21 CL   UNL     1       1.845   7.765 -26.051  1.00  0.00    -0.081 Cl
HETATM   22  C   UNL     1      -0.349   7.036 -27.495  1.00  0.00     0.092 A 
HETATM   23  C   UNL     1      -1.717   7.082 -27.776  1.00  0.00     0.071 A 
BRANCH  18  24
HETATM   24  O   UNL     1      -2.921   9.417 -25.236  1.00  0.00    -0.354 OA
HETATM   25  C   UNL     1      -3.468   8.712 -24.129  1.00  0.00     0.210 C 
ENDBRANCH  18  24
BRANCH  22  26
HETATM   26  O   UNL     1       0.474   6.171 -28.170  1.00  0.00    -0.354 OA
HETATM   27  C   UNL     1       0.321   6.277 -29.585  1.00  0.00     0.210 C 
ENDBRANCH  22  26
ENDBRANCH  14  17
ENDBRANCH  12  13
ENDBRANCH  11  12
ENDBRANCH   4  11
BRANCH   8  28
HETATM   28  C   UNL     1      -3.350   4.877 -32.633  1.00  0.00    -0.044 A 
HETATM   29  C   UNL     1      -4.326   5.041 -33.632  1.00  0.00     0.008 A 
HETATM   30  C   UNL     1      -3.959   5.183 -34.971  1.00  0.00     0.001 A 
HETATM   31  C   UNL     1      -2.615   5.165 -35.332  1.00  0.00     0.000 A 
HETATM   32  C   UNL     1      -1.637   4.997 -34.357  1.00  0.00     0.001 A 
HETATM   33  C   UNL     1      -2.001   4.841 -33.017  1.00  0.00     0.008 A 
ENDBRANCH   8  28
BRANCH   9  34
HETATM   34  C   UNL     1      -4.186   2.127 -31.508  1.00  0.00     0.255 C 
HETATM   35  N   UNL     1      -5.106   1.511 -32.332  1.00  0.00    -0.323 N 
HETATM   36  H   UNL     1      -5.992   1.967 -32.484  1.00  0.00     0.169 HD
HETATM   37  O   UNL     1      -3.098   1.656 -31.187  1.00  0.00    -0.268 OA
BRANCH  35  38
HETATM   38  C   UNL     1      -5.007   0.224 -32.909  1.00  0.00     0.035 A 
HETATM   39  C   UNL     1      -4.035  -0.719 -32.569  1.00  0.00     0.029 A 
HETATM   40  C   UNL     1      -4.019  -1.977 -33.181  1.00  0.00     0.002 A 
HETATM   41  C   UNL     1      -4.977  -2.305 -34.138  1.00  0.00     0.000 A 
HETATM   42  C   UNL     1      -5.949  -1.373 -34.486  1.00  0.00     0.002 A 
HETATM   43  C   UNL     1      -5.961  -0.115 -33.878  1.00  0.00     0.029 A 
ENDBRANCH  35  38
ENDBRANCH   9  34
TORSDOF 9
ENDMDL
MODEL 9
REMARK VINA RESULT:      -8.5      2.583      3.429
REMARK  9 active torsions:
REMARK  status: ('A' for Active; 'I' for Inactive)
REMARK    1  A    between atoms: C_4  and  S_5 
REMARK    2  A    between atoms: S_5  and  C_6 
REMARK    3  A    between atoms: C_6  and  C_7 
REMARK       I    between atoms: C_7  and  N_8 
REMARK    4  A    between atoms: N_8  and  C_9 
REMARK    5  A    between atoms: C_10  and  O_11 
REMARK    6  A    between atoms: C_16  and  O_17 
REMARK    7  A    between atoms: C_24  and  C_25 
REMARK    8  A    between atoms: C_31  and  C_32 
REMARK       I    between atoms: C_32  and  N_33 
REMARK    9  A    between atoms: N_33  and  C_34 
ROOT
HETATM    1  C   UNL     1      -5.272   1.674 -31.366  1.00  0.00     0.069 C 
HETATM    2  C   UNL     1      -6.533   2.410 -31.757  1.00  0.00     0.019 A 
HETATM    3  N   UNL     1      -6.961   3.362 -30.849  1.00  0.00    -0.353 N 
HETATM    4  C   UNL     1      -8.062   4.180 -31.005  1.00  0.00     0.087 A 
HETATM    5  C   UNL     1      -8.776   4.115 -32.152  1.00  0.00     0.055 A 
HETATM    6  C   UNL     1      -9.943   5.051 -32.416  1.00  0.00     0.019 C 
HETATM    7  N   UNL     1     -10.912   5.828 -32.636  1.00  0.00    -0.096 N 
HETATM    8  C   UNL     1      -8.455   3.070 -33.226  1.00  0.00     0.104 A 
HETATM    9  C   UNL     1      -7.229   2.202 -32.904  1.00  0.00     0.046 A 
HETATM   10  H   UNL     1      -6.318   3.635 -30.112  1.00  0.00     0.166 HD
ENDROOT
BRANCH   4  11
HETATM   11  S   UNL     1      -8.518   5.300 -29.738  1.00  0.00    -0.102 SA
BRANCH  11  12
HETATM   12  C   UNL     1      -7.155   6.495 -29.803  1.00  0.00     0.184 C 
BRANCH  12  13
HETATM   13  C   UNL     1      -5.774   5.853 -29.697  1.00  0.00     0.231 C 
HETATM   14  N   UNL     1      -4.922   6.252 -30.722  1.00  0.00    -0.324 N 
HETATM   15  H   UNL     1      -5.274   6.978 -31.332  1.00  0.00     0.169 HD
HETATM   16  O   UNL     1      -5.482   5.165 -28.723  1.00  0.00    -0.272 OA
BRANCH  14  17
HETATM   17  C   UNL     1      -3.542   5.965 -30.874  1.00  0.00     0.071 A 
HETATM   18  C   UNL     1      -2.982   5.051 -31.788  1.00  0.00     0.096 A 
HETATM   19  C   UNL     1      -1.592   4.855 -31.805  1.00  0.00     0.065 A 
HETATM   20  C   UNL     1      -0.761   5.558 -30.932  1.00  0.00     0.070 A 
HETATM   21 CL   UNL     1       0.942   5.272 -31.000  1.00  0.00    -0.081 Cl
HETATM   22  C   UNL     1      -1.306   6.472 -30.034  1.00  0.00     0.092 A 
HETATM   23  C   UNL     1      -2.685   6.699 -30.034  1.00  0.00     0.071 A 
BRANCH  18  24
HETATM   24  O   UNL     1      -3.802   4.512 -32.739  1.00  0.00    -0.354 OA
HETATM   25  C   UNL     1      -3.921   5.218 -33.968  1.00  0.00     0.210 C 
ENDBRANCH  18  24
BRANCH  22  26
HETATM   26  O   UNL     1      -0.479   7.198 -29.217  1.00  0.00    -0.354 OA
HETATM   27  C   UNL     1      -0.414   6.656 -27.899  1.00  0.00     0.210 C 
ENDBRANCH  22  26
ENDBRANCH  14  17
ENDBRANCH  12  13
ENDBRANCH  11  12
ENDBRANCH   4  11
BRANCH   8  28
HETATM   28  C   UNL     1      -9.698   2.242 -33.565  1.00  0.00    -0.044 A 
HETATM   29  C   UNL     1      -9.972   1.060 -32.854  1.00  0.00     0.008 A 
HETATM   30  C   UNL     1     -11.095   0.289 -33.158  1.00  0.00     0.001 A 
HETATM   31  C   UNL     1     -11.961   0.688 -34.173  1.00  0.00     0.000 A 
HETATM   32  C   UNL     1     -11.701   1.851 -34.890  1.00  0.00     0.001 A 
HETATM   33  C   UNL     1     -10.571   2.618 -34.598  1.00  0.00     0.008 A 
ENDBRANCH   8  28
BRANCH   9  34
HETATM   34  C   UNL     1      -6.862   1.046 -33.804  1.00  0.00     0.255 C 
HETATM   35  N   UNL     1      -6.675  -0.163 -33.167  1.00  0.00    -0.323 N 
HETATM   36  H   UNL     1      -6.779  -0.197 -32.164  1.00  0.00     0.169 HD
HETATM   37  O   UNL     1      -6.707   1.243 -35.006  1.00  0.00    -0.268 OA
BRANCH  35  38
HETATM   38  C   UNL     1      -6.221  -1.371 -33.745  1.00  0.00     0.035 A 
HETATM   39  C   UNL     1      -4.878  -1.739 -33.849  1.00  0.00     0.029 A 
HETATM   40  C   UNL     1      -4.518  -2.963 -34.425  1.00  0.00     0.002 A 
HETATM   41  C   UNL     1      -5.498  -3.831 -34.900  1.00  0.00     0.000 A 
HETATM   42  C   UNL     1      -6.839  -3.474 -34.804  1.00  0.00     0.002 A 
HETATM   43  C   UNL     1      -7.198  -2.250 -34.234  1.00  0.00     0.029 A 
ENDBRANCH  35  38
ENDBRANCH   9  34
TORSDOF 9
ENDMDL
MODEL 10
REMARK VINA RESULT:      -8.5      2.707      4.124
REMARK  9 active torsions:
REMARK  status: ('A' for Active; 'I' for Inactive)
REMARK    1  A    between atoms: C_4  and  S_5 
REMARK    2  A    between atoms: S_5  and  C_6 
REMARK    3  A    between atoms: C_6  and  C_7 
REMARK       I    between atoms: C_7  and  N_8 
REMARK    4  A    between atoms: N_8  and  C_9 
REMARK    5  A    between atoms: C_10  and  O_11 
REMARK    6  A    between atoms: C_16  and  O_17 
REMARK    7  A    between atoms: C_24  and  C_25 
REMARK    8  A    between atoms: C_31  and  C_32 
REMARK       I    between atoms: C_32  and  N_33 
REMARK    9  A    between atoms: N_33  and  C_34 
ROOT
HETATM    1  C   UNL     1      -6.121   3.206 -29.928  1.00  0.00     0.069 C 
HETATM    2  C   UNL     1      -7.065   3.814 -30.940  1.00  0.00     0.019 A 
HETATM    3  N   UNL     1      -7.391   5.140 -30.714  1.00  0.00    -0.353 N 
HETATM    4  C   UNL     1      -8.203   5.914 -31.518  1.00  0.00     0.087 A 
HETATM    5  C   UNL     1      -8.696   5.385 -32.662  1.00  0.00     0.055 A 
HETATM    6  C   UNL     1      -9.522   6.215 -33.629  1.00  0.00     0.019 C 
HETATM    7  N   UNL     1     -10.209   6.904 -34.433  1.00  0.00    -0.096 N 
HETATM    8  C   UNL     1      -8.468   3.912 -33.016  1.00  0.00     0.104 A 
HETATM    9  C   UNL     1      -7.578   3.160 -32.013  1.00  0.00     0.046 A 
HETATM   10  H   UNL     1      -6.839   5.653 -30.033  1.00  0.00     0.166 HD
ENDROOT
BRANCH   4  11
HETATM   11  S   UNL     1      -8.574   7.566 -31.071  1.00  0.00    -0.102 SA
BRANCH  11  12
HETATM   12  C   UNL     1      -7.070   8.431 -31.596  1.00  0.00     0.184 C 
BRANCH  12  13
HETATM   13  C   UNL     1      -5.791   7.852 -30.997  1.00  0.00     0.231 C 
HETATM   14  N   UNL     1      -4.843   7.540 -31.966  1.00  0.00    -0.324 N 
HETATM   15  H   UNL     1      -5.066   7.825 -32.911  1.00  0.00     0.169 HD
HETATM   16  O   UNL     1      -5.640   7.807 -29.779  1.00  0.00    -0.272 OA
BRANCH  14  17
HETATM   17  C   UNL     1      -3.506   7.109 -31.777  1.00  0.00     0.071 A 
HETATM   18  C   UNL     1      -2.368   7.938 -31.724  1.00  0.00     0.096 A 
HETATM   19  C   UNL     1      -1.100   7.361 -31.555  1.00  0.00     0.065 A 
HETATM   20  C   UNL     1      -0.955   5.979 -31.434  1.00  0.00     0.070 A 
HETATM   21 CL   UNL     1       0.633   5.328 -31.229  1.00  0.00    -0.081 Cl
HETATM   22  C   UNL     1      -2.076   5.154 -31.472  1.00  0.00     0.092 A 
HETATM   23  C   UNL     1      -3.345   5.722 -31.605  1.00  0.00     0.071 A 
BRANCH  18  24
HETATM   24  O   UNL     1      -2.562   9.290 -31.673  1.00  0.00    -0.354 OA
HETATM   25  C   UNL     1      -2.538   9.900 -30.389  1.00  0.00     0.210 C 
ENDBRANCH  18  24
BRANCH  22  26
HETATM   26  O   UNL     1      -1.931   3.801 -31.298  1.00  0.00    -0.354 OA
HETATM   27  C   UNL     1      -3.047   3.071 -31.805  1.00  0.00     0.210 C 
ENDBRANCH  22  26
ENDBRANCH  14  17
ENDBRANCH  12  13
ENDBRANCH  11  12
ENDBRANCH   4  11
BRANCH   8  28
HETATM   28  C   UNL     1      -9.800   3.204 -33.276  1.00  0.00    -0.044 A 
HETATM   29  C   UNL     1      -9.928   2.324 -34.365  1.00  0.00     0.008 A 
HETATM   30  C   UNL     1     -11.140   1.680 -34.622  1.00  0.00     0.001 A 
HETATM   31  C   UNL     1     -12.238   1.902 -33.797  1.00  0.00     0.000 A 
HETATM   32  C   UNL     1     -12.130   2.776 -32.719  1.00  0.00     0.001 A 
HETATM   33  C   UNL     1     -10.923   3.433 -32.466  1.00  0.00     0.008 A 
ENDBRANCH   8  28
BRANCH   9  34
HETATM   34  C   UNL     1      -7.364   1.673 -32.158  1.00  0.00     0.255 C 
HETATM   35  N   UNL     1      -6.529   1.293 -33.188  1.00  0.00    -0.323 N 
HETATM   36  H   UNL     1      -6.133   2.012 -33.774  1.00  0.00     0.169 HD
HETATM   37  O   UNL     1      -7.961   0.902 -31.411  1.00  0.00    -0.268 OA
BRANCH  35  38
HETATM   38  C   UNL     1      -6.247  -0.025 -33.616  1.00  0.00     0.035 A 
HETATM   39  C   UNL     1      -7.153  -0.845 -34.291  1.00  0.00     0.029 A 
HETATM   40  C   UNL     1      -6.784  -2.135 -34.691  1.00  0.00     0.002 A 
HETATM   41  C   UNL     1      -5.505  -2.616 -34.421  1.00  0.00     0.000 A 
HETATM   42  C   UNL     1      -4.595  -1.808 -33.747  1.00  0.00     0.002 A 
HETATM   43  C   UNL     1      -4.965  -0.522 -33.343  1.00  0.00     0.029 A 
ENDBRANCH  35  38
ENDBRANCH   9  34
TORSDOF 9
ENDMDL
