MODEL 1
REMARK VINA RESULT:      -9.2      0.000      0.000
REMARK  5 active torsions:
REMARK  status: ('A' for Active; 'I' for Inactive)
REMARK    1  A    between atoms: O_2  and  C_3 
REMARK    2  A    between atoms: C_5  and  C_6 
REMARK       I    between atoms: C_6  and  N_7 
REMARK    3  A    between atoms: N_7  and  C_8 
REMARK    4  A    between atoms: C_8  and  C_9 
REMARK       I    between atoms: C_9  and  N_10 
REMARK    5  A    between atoms: N_10  and  N_11 
ROOT
HETATM    1  C   UNL     1      -5.712   1.829 -30.961  1.00  0.00     0.255 C 
HETATM    2  N   UNL     1      -4.874   1.491 -32.012  1.00  0.00    -0.245 N 
HETATM    3  O   UNL     1      -6.663   1.145 -30.577  1.00  0.00    -0.270 OA
HETATM    4  H   UNL     1      -4.024   2.036 -32.189  1.00  0.00     0.192 HD
ENDROOT
BRANCH   1   5
HETATM    5  C   UNL     1      -5.290   3.076 -30.189  1.00  0.00     0.227 C 
BRANCH   5   6
HETATM    6  N   UNL     1      -4.202   3.833 -30.788  1.00  0.00    -0.348 N 
HETATM    7  C   UNL     1      -4.438   4.913 -31.608  1.00  0.00     0.252 C 
HETATM    8  O   UNL     1      -5.560   5.388 -31.745  1.00  0.00    -0.268 OA
HETATM    9  H   UNL     1      -3.259   3.584 -30.525  1.00  0.00     0.163 HD
BRANCH   7  10
HETATM   10  C   UNL     1      -3.265   5.495 -32.323  1.00  0.00     0.034 A 
HETATM   11  C   UNL     1      -2.962   6.846 -32.110  1.00  0.00     0.053 A 
HETATM   12  C   UNL     1      -1.924   7.464 -32.814  1.00  0.00     0.069 A 
HETATM   13  C   UNL     1      -1.164   6.718 -33.715  1.00  0.00     0.037 A 
HETATM   14  C   UNL     1      -1.458   5.370 -33.932  1.00  0.00     0.004 A 
HETATM   15  C   UNL     1      -2.513   4.761 -33.248  1.00  0.00     0.017 A 
BRANCH  12  16
HETATM   16  O   UNL     1      -1.743   8.791 -32.533  1.00  0.00    -0.356 OA
HETATM   17  C   UNL     1      -2.210   9.236 -31.265  1.00  0.00     0.210 C 
ENDBRANCH  12  16
ENDBRANCH   7  10
ENDBRANCH   5   6
ENDBRANCH   1   5
BRANCH   2  18
HETATM   18  N   UNL     1      -5.106   0.335 -32.698  1.00  0.00    -0.166 NA
HETATM   19  C   UNL     1      -4.316  -0.663 -32.480  1.00  0.00     0.157 A 
HETATM   20  C   UNL     1      -3.091  -0.751 -31.568  1.00  0.00     0.277 A 
HETATM   21  C   UNL     1      -4.449  -1.977 -33.100  1.00  0.00     0.028 A 
HETATM   22  O   UNL     1      -2.640   0.163 -30.914  1.00  0.00    -0.266 OA
HETATM   23  N   UNL     1      -2.635  -2.048 -31.688  1.00  0.00    -0.321 N 
HETATM   24  C   UNL     1      -3.421  -2.766 -32.585  1.00  0.00     0.048 A 
HETATM   25  H   UNL     1      -1.827  -2.397 -31.193  1.00  0.00     0.169 HD
HETATM   26  C   UNL     1      -3.270  -4.080 -32.974  1.00  0.00     0.032 A 
HETATM   27  C   UNL     1      -4.189  -4.586 -33.904  1.00  0.00     0.021 A 
HETATM   28  C   UNL     1      -5.223  -3.774 -34.416  1.00  0.00     0.012 A 
HETATM   29 BR   UNL     1      -6.436  -4.502 -35.672  1.00  0.00    -0.051 Br
HETATM   30  C   UNL     1      -5.369  -2.447 -34.015  1.00  0.00     0.035 A 
ENDBRANCH   2  18
TORSDOF 5
ENDMDL
MODEL 2
REMARK VINA RESULT:      -9.0      1.508      1.713
REMARK  5 active torsions:
REMARK  status: ('A' for Active; 'I' for Inactive)
REMARK    1  A    between atoms: O_2  and  C_3 
REMARK    2  A    between atoms: C_5  and  C_6 
REMARK       I    between atoms: C_6  and  N_7 
REMARK    3  A    between atoms: N_7  and  C_8 
REMARK    4  A    between atoms: C_8  and  C_9 
REMARK       I    between atoms: C_9  and  N_10 
REMARK    5  A    between atoms: N_10  and  N_11 
ROOT
HETATM    1  C   UNL     1      -5.826   1.885 -31.104  1.00  0.00     0.255 C 
HETATM    2  N   UNL     1      -4.928   1.525 -32.095  1.00  0.00    -0.245 N 
HETATM    3  O   UNL     1      -6.800   1.211 -30.764  1.00  0.00    -0.270 OA
HETATM    4  H   UNL     1      -4.067   2.064 -32.231  1.00  0.00     0.192 HD
ENDROOT
BRANCH   1   5
HETATM    5  C   UNL     1      -5.448   3.148 -30.334  1.00  0.00     0.227 C 
BRANCH   5   6
HETATM    6  N   UNL     1      -4.196   3.767 -30.742  1.00  0.00    -0.348 N 
HETATM    7  C   UNL     1      -4.126   5.097 -31.087  1.00  0.00     0.252 C 
HETATM    8  O   UNL     1      -5.070   5.860 -30.917  1.00  0.00    -0.268 OA
HETATM    9  H   UNL     1      -3.359   3.203 -30.695  1.00  0.00     0.163 HD
BRANCH   7  10
HETATM   10  C   UNL     1      -2.843   5.582 -31.675  1.00  0.00     0.034 A 
HETATM   11  C   UNL     1      -1.648   5.011 -31.221  1.00  0.00     0.053 A 
HETATM   12  C   UNL     1      -0.413   5.482 -31.678  1.00  0.00     0.069 A 
HETATM   13  C   UNL     1      -0.375   6.510 -32.620  1.00  0.00     0.037 A 
HETATM   14  C   UNL     1      -1.562   7.084 -33.080  1.00  0.00     0.004 A 
HETATM   15  C   UNL     1      -2.794   6.631 -32.602  1.00  0.00     0.017 A 
BRANCH  12  16
HETATM   16  O   UNL     1       0.680   4.857 -31.142  1.00  0.00    -0.356 OA
HETATM   17  C   UNL     1       0.758   4.830 -29.722  1.00  0.00     0.210 C 
ENDBRANCH  12  16
ENDBRANCH   7  10
ENDBRANCH   5   6
ENDBRANCH   1   5
BRANCH   2  18
HETATM   18  N   UNL     1      -5.120   0.355 -32.769  1.00  0.00    -0.166 NA
HETATM   19  C   UNL     1      -4.334  -0.634 -32.498  1.00  0.00     0.157 A 
HETATM   20  C   UNL     1      -3.151  -0.697 -31.532  1.00  0.00     0.277 A 
HETATM   21  C   UNL     1      -4.431  -1.959 -33.099  1.00  0.00     0.028 A 
HETATM   22  O   UNL     1      -2.735   0.233 -30.875  1.00  0.00    -0.266 OA
HETATM   23  N   UNL     1      -2.681  -1.992 -31.608  1.00  0.00    -0.321 N 
HETATM   24  C   UNL     1      -3.422  -2.731 -32.526  1.00  0.00     0.048 A 
HETATM   25  H   UNL     1      -1.893  -2.326 -31.071  1.00  0.00     0.169 HD
HETATM   26  C   UNL     1      -3.245  -4.051 -32.883  1.00  0.00     0.032 A 
HETATM   27  C   UNL     1      -4.118  -4.580 -33.844  1.00  0.00     0.021 A 
HETATM   28  C   UNL     1      -5.134  -3.785 -34.415  1.00  0.00     0.012 A 
HETATM   29 BR   UNL     1      -6.285  -4.545 -35.711  1.00  0.00    -0.051 Br
HETATM   30  C   UNL     1      -5.306  -2.452 -34.045  1.00  0.00     0.035 A 
ENDBRANCH   2  18
TORSDOF 5
ENDMDL
MODEL 3
REMARK VINA RESULT:      -8.6      3.551      8.731
REMARK  5 active torsions:
REMARK  status: ('A' for Active; 'I' for Inactive)
REMARK    1  A    between atoms: O_2  and  C_3 
REMARK    2  A    between atoms: C_5  and  C_6 
REMARK       I    between atoms: C_6  and  N_7 
REMARK    3  A    between atoms: N_7  and  C_8 
REMARK    4  A    between atoms: C_8  and  C_9 
REMARK       I    between atoms: C_9  and  N_10 
REMARK    5  A    between atoms: N_10  and  N_11 
ROOT
HETATM    1  C   UNL     1      -5.929   2.151 -31.499  1.00  0.00     0.255 C 
HETATM    2  N   UNL     1      -4.820   2.115 -32.329  1.00  0.00    -0.245 N 
HETATM    3  O   UNL     1      -6.080   2.943 -30.568  1.00  0.00    -0.270 OA
HETATM    4  H   UNL     1      -4.821   1.523 -33.166  1.00  0.00     0.192 HD
ENDROOT
BRANCH   1   5
HETATM    5  C   UNL     1      -7.057   1.206 -31.908  1.00  0.00     0.227 C 
BRANCH   5   6
HETATM    6  N   UNL     1      -6.629  -0.120 -32.328  1.00  0.00    -0.348 N 
HETATM    7  C   UNL     1      -6.358  -0.408 -33.646  1.00  0.00     0.252 C 
HETATM    8  O   UNL     1      -6.307   0.467 -34.502  1.00  0.00    -0.268 OA
HETATM    9  H   UNL     1      -6.467  -0.808 -31.607  1.00  0.00     0.163 HD
BRANCH   7  10
HETATM   10  C   UNL     1      -6.118  -1.838 -33.995  1.00  0.00     0.034 A 
HETATM   11  C   UNL     1      -4.905  -2.421 -33.607  1.00  0.00     0.053 A 
HETATM   12  C   UNL     1      -4.593  -3.733 -33.977  1.00  0.00     0.069 A 
HETATM   13  C   UNL     1      -5.515  -4.478 -34.713  1.00  0.00     0.037 A 
HETATM   14  C   UNL     1      -6.728  -3.905 -35.102  1.00  0.00     0.004 A 
HETATM   15  C   UNL     1      -7.027  -2.586 -34.756  1.00  0.00     0.017 A 
BRANCH  12  16
HETATM   16  O   UNL     1      -3.370  -4.178 -33.556  1.00  0.00    -0.356 OA
HETATM   17  C   UNL     1      -3.019  -3.879 -32.210  1.00  0.00     0.210 C 
ENDBRANCH  12  16
ENDBRANCH   7  10
ENDBRANCH   5   6
ENDBRANCH   1   5
BRANCH   2  18
HETATM   18  N   UNL     1      -3.801   2.996 -32.111  1.00  0.00    -0.166 NA
HETATM   19  C   UNL     1      -3.702   4.011 -32.903  1.00  0.00     0.157 A 
HETATM   20  C   UNL     1      -4.554   4.380 -34.119  1.00  0.00     0.277 A 
HETATM   21  C   UNL     1      -2.699   5.062 -32.784  1.00  0.00     0.028 A 
HETATM   22  O   UNL     1      -5.468   3.718 -34.559  1.00  0.00    -0.266 OA
HETATM   23  N   UNL     1      -4.036   5.572 -34.583  1.00  0.00    -0.321 N 
HETATM   24  C   UNL     1      -2.949   5.972 -33.810  1.00  0.00     0.048 A 
HETATM   25  H   UNL     1      -4.405   6.059 -35.388  1.00  0.00     0.169 HD
HETATM   26  C   UNL     1      -2.168   7.096 -33.972  1.00  0.00     0.032 A 
HETATM   27  C   UNL     1      -1.115   7.284 -33.065  1.00  0.00     0.021 A 
HETATM   28  C   UNL     1      -0.874   6.353 -32.032  1.00  0.00     0.012 A 
HETATM   29 BR   UNL     1       0.562   6.650 -30.836  1.00  0.00    -0.051 Br
HETATM   30  C   UNL     1      -1.672   5.221 -31.876  1.00  0.00     0.035 A 
ENDBRANCH   2  18
TORSDOF 5
ENDMDL
MODEL 4
REMARK VINA RESULT:      -8.6      1.904      2.020
REMARK  5 active torsions:
REMARK  status: ('A' for Active; 'I' for Inactive)
REMARK    1  A    between atoms: O_2  and  C_3 
REMARK    2  A    between atoms: C_5  and  C_6 
REMARK       I    between atoms: C_6  and  N_7 
REMARK    3  A    between atoms: N_7  and  C_8 
REMARK    4  A    between atoms: C_8  and  C_9 
REMARK       I    between atoms: C_9  and  N_10 
REMARK    5  A    between atoms: N_10  and  N_11 
ROOT
HETATM    1  C   UNL     1      -5.490   2.536 -32.661  1.00  0.00     0.255 C 
HETATM    2  N   UNL     1      -5.105   1.336 -32.085  1.00  0.00    -0.245 N 
HETATM    3  O   UNL     1      -6.005   2.645 -33.775  1.00  0.00    -0.270 OA
HETATM    4  H   UNL     1      -4.810   1.306 -31.104  1.00  0.00     0.192 HD
ENDROOT
BRANCH   1   5
HETATM    5  C   UNL     1      -5.361   3.750 -31.743  1.00  0.00     0.227 C 
BRANCH   5   6
HETATM    6  N   UNL     1      -4.182   4.572 -31.970  1.00  0.00    -0.348 N 
HETATM    7  C   UNL     1      -2.923   4.144 -31.616  1.00  0.00     0.252 C 
HETATM    8  O   UNL     1      -2.711   2.995 -31.243  1.00  0.00    -0.268 OA
HETATM    9  H   UNL     1      -4.308   5.444 -32.465  1.00  0.00     0.163 HD
BRANCH   7  10
HETATM   10  C   UNL     1      -1.813   5.136 -31.712  1.00  0.00     0.034 A 
HETATM   11  C   UNL     1      -1.001   5.333 -30.588  1.00  0.00     0.053 A 
HETATM   12  C   UNL     1       0.002   6.308 -30.594  1.00  0.00     0.069 A 
HETATM   13  C   UNL     1       0.215   7.068 -31.744  1.00  0.00     0.037 A 
HETATM   14  C   UNL     1      -0.589   6.877 -32.870  1.00  0.00     0.004 A 
HETATM   15  C   UNL     1      -1.609   5.923 -32.853  1.00  0.00     0.017 A 
BRANCH  12  16
HETATM   16  O   UNL     1       0.711   6.417 -29.429  1.00  0.00    -0.356 OA
HETATM   17  C   UNL     1       0.600   7.655 -28.737  1.00  0.00     0.210 C 
ENDBRANCH  12  16
ENDBRANCH   7  10
ENDBRANCH   5   6
ENDBRANCH   1   5
BRANCH   2  18
HETATM   18  N   UNL     1      -5.281   0.179 -32.786  1.00  0.00    -0.166 NA
HETATM   19  C   UNL     1      -4.475  -0.800 -32.544  1.00  0.00     0.157 A 
HETATM   20  C   UNL     1      -3.283  -0.864 -31.588  1.00  0.00     0.277 A 
HETATM   21  C   UNL     1      -4.550  -2.113 -33.176  1.00  0.00     0.028 A 
HETATM   22  O   UNL     1      -2.880   0.058 -30.911  1.00  0.00    -0.266 OA
HETATM   23  N   UNL     1      -2.789  -2.147 -31.698  1.00  0.00    -0.321 N 
HETATM   24  C   UNL     1      -3.523  -2.879 -32.628  1.00  0.00     0.048 A 
HETATM   25  H   UNL     1      -1.992  -2.479 -31.174  1.00  0.00     0.169 HD
HETATM   26  C   UNL     1      -3.324  -4.186 -33.018  1.00  0.00     0.032 A 
HETATM   27  C   UNL     1      -4.194  -4.709 -33.986  1.00  0.00     0.021 A 
HETATM   28  C   UNL     1      -5.229  -3.920 -34.531  1.00  0.00     0.012 A 
HETATM   29 BR   UNL     1      -6.375  -4.670 -35.836  1.00  0.00    -0.051 Br
HETATM   30  C   UNL     1      -5.423  -2.599 -34.128  1.00  0.00     0.035 A 
ENDBRANCH   2  18
TORSDOF 5
ENDMDL
MODEL 5
REMARK VINA RESULT:      -8.5      2.230      3.050
REMARK  5 active torsions:
REMARK  status: ('A' for Active; 'I' for Inactive)
REMARK    1  A    between atoms: O_2  and  C_3 
REMARK    2  A    between atoms: C_5  and  C_6 
REMARK       I    between atoms: C_6  and  N_7 
REMARK    3  A    between atoms: N_7  and  C_8 
REMARK    4  A    between atoms: C_8  and  C_9 
REMARK       I    between atoms: C_9  and  N_10 
REMARK    5  A    between atoms: N_10  and  N_11 
ROOT
HETATM    1  C   UNL     1      -5.437   2.304 -30.796  1.00  0.00     0.255 C 
HETATM    2  N   UNL     1      -5.114   2.004 -32.110  1.00  0.00    -0.245 N 
HETATM    3  O   UNL     1      -5.495   1.478 -29.884  1.00  0.00    -0.270 OA
HETATM    4  H   UNL     1      -4.951   2.758 -32.786  1.00  0.00     0.192 HD
ENDROOT
BRANCH   1   5
HETATM    5  C   UNL     1      -5.588   3.796 -30.505  1.00  0.00     0.227 C 
BRANCH   5   6
HETATM    6  N   UNL     1      -4.360   4.570 -30.600  1.00  0.00    -0.348 N 
HETATM    7  C   UNL     1      -3.952   5.137 -31.786  1.00  0.00     0.252 C 
HETATM    8  O   UNL     1      -4.675   5.155 -32.776  1.00  0.00    -0.268 OA
HETATM    9  H   UNL     1      -3.848   4.740 -29.746  1.00  0.00     0.163 HD
BRANCH   7  10
HETATM   10  C   UNL     1      -2.589   5.740 -31.820  1.00  0.00     0.034 A 
HETATM   11  C   UNL     1      -1.509   4.964 -31.381  1.00  0.00     0.053 A 
HETATM   12  C   UNL     1      -0.221   5.505 -31.315  1.00  0.00     0.069 A 
HETATM   13  C   UNL     1      -0.007   6.822 -31.722  1.00  0.00     0.037 A 
HETATM   14  C   UNL     1      -1.078   7.603 -32.162  1.00  0.00     0.004 A 
HETATM   15  C   UNL     1      -2.368   7.070 -32.202  1.00  0.00     0.017 A 
BRANCH  12  16
HETATM   16  O   UNL     1       0.742   4.652 -30.849  1.00  0.00    -0.356 OA
HETATM   17  C   UNL     1       1.001   4.696 -29.451  1.00  0.00     0.210 C 
ENDBRANCH  12  16
ENDBRANCH   7  10
ENDBRANCH   5   6
ENDBRANCH   1   5
BRANCH   2  18
HETATM   18  N   UNL     1      -4.854   0.709 -32.448  1.00  0.00    -0.166 NA
HETATM   19  C   UNL     1      -5.706   0.101 -33.205  1.00  0.00     0.157 A 
HETATM   20  C   UNL     1      -7.032   0.607 -33.775  1.00  0.00     0.277 A 
HETATM   21  C   UNL     1      -5.559  -1.267 -33.688  1.00  0.00     0.028 A 
HETATM   22  O   UNL     1      -7.517   1.696 -33.556  1.00  0.00    -0.266 OA
HETATM   23  N   UNL     1      -7.527  -0.433 -34.535  1.00  0.00    -0.321 N 
HETATM   24  C   UNL     1      -6.673  -1.531 -34.483  1.00  0.00     0.048 A 
HETATM   25  H   UNL     1      -8.402  -0.382 -35.038  1.00  0.00     0.169 HD
HETATM   26  C   UNL     1      -6.834  -2.754 -35.100  1.00  0.00     0.032 A 
HETATM   27  C   UNL     1      -5.835  -3.716 -34.892  1.00  0.00     0.021 A 
HETATM   28  C   UNL     1      -4.714  -3.433 -34.084  1.00  0.00     0.012 A 
HETATM   29 BR   UNL     1      -3.395  -4.765 -33.832  1.00  0.00    -0.051 Br
HETATM   30  C   UNL     1      -4.559  -2.192 -33.467  1.00  0.00     0.035 A 
ENDBRANCH   2  18
TORSDOF 5
ENDMDL
MODEL 6
REMARK VINA RESULT:      -8.3      3.901      8.726
REMARK  5 active torsions:
REMARK  status: ('A' for Active; 'I' for Inactive)
REMARK    1  A    between atoms: O_2  and  C_3 
REMARK    2  A    between atoms: C_5  and  C_6 
REMARK       I    between atoms: C_6  and  N_7 
REMARK    3  A    between atoms: N_7  and  C_8 
REMARK    4  A    between atoms: C_8  and  C_9 
REMARK       I    between atoms: C_9  and  N_10 
REMARK    5  A    between atoms: N_10  and  N_11 
ROOT
HETATM    1  C   UNL     1      -5.714   3.852 -31.234  1.00  0.00     0.255 C 
HETATM    2  N   UNL     1      -5.079   4.956 -31.780  1.00  0.00    -0.245 N 
HETATM    3  O   UNL     1      -5.568   3.463 -30.073  1.00  0.00    -0.270 OA
HETATM    4  H   UNL     1      -5.351   5.302 -32.706  1.00  0.00     0.192 HD
ENDROOT
BRANCH   1   5
HETATM    5  C   UNL     1      -6.750   3.201 -32.147  1.00  0.00     0.227 C 
BRANCH   5   6
HETATM    6  N   UNL     1      -6.324   1.960 -32.777  1.00  0.00    -0.348 N 
HETATM    7  C   UNL     1      -6.675   0.732 -32.265  1.00  0.00     0.252 C 
HETATM    8  O   UNL     1      -7.488   0.619 -31.355  1.00  0.00    -0.268 OA
HETATM    9  H   UNL     1      -5.819   2.029 -33.649  1.00  0.00     0.163 HD
BRANCH   7  10
HETATM   10  C   UNL     1      -6.028  -0.468 -32.870  1.00  0.00     0.034 A 
HETATM   11  C   UNL     1      -4.849  -0.951 -32.288  1.00  0.00     0.053 A 
HETATM   12  C   UNL     1      -4.157  -2.022 -32.860  1.00  0.00     0.069 A 
HETATM   13  C   UNL     1      -4.665  -2.636 -34.005  1.00  0.00     0.037 A 
HETATM   14  C   UNL     1      -5.841  -2.163 -34.592  1.00  0.00     0.004 A 
HETATM   15  C   UNL     1      -6.516  -1.075 -34.034  1.00  0.00     0.017 A 
BRANCH  12  16
HETATM   16  O   UNL     1      -3.009  -2.384 -32.209  1.00  0.00    -0.356 OA
HETATM   17  C   UNL     1      -2.917  -3.743 -31.800  1.00  0.00     0.210 C 
ENDBRANCH  12  16
ENDBRANCH   7  10
ENDBRANCH   5   6
ENDBRANCH   1   5
BRANCH   2  18
HETATM   18  N   UNL     1      -4.213   5.671 -31.006  1.00  0.00    -0.166 NA
HETATM   19  C   UNL     1      -2.951   5.571 -31.264  1.00  0.00     0.157 A 
HETATM   20  C   UNL     1      -2.239   4.717 -32.314  1.00  0.00     0.277 A 
HETATM   21  C   UNL     1      -1.900   6.296 -30.559  1.00  0.00     0.028 A 
HETATM   22  O   UNL     1      -2.783   3.941 -33.070  1.00  0.00    -0.266 OA
HETATM   23  N   UNL     1      -0.897   5.008 -32.179  1.00  0.00    -0.321 N 
HETATM   24  C   UNL     1      -0.694   5.925 -31.152  1.00  0.00     0.048 A 
HETATM   25  H   UNL     1      -0.180   4.584 -32.750  1.00  0.00     0.169 HD
HETATM   26  C   UNL     1       0.505   6.445 -30.712  1.00  0.00     0.032 A 
HETATM   27  C   UNL     1       0.460   7.356 -29.647  1.00  0.00     0.021 A 
HETATM   28  C   UNL     1      -0.770   7.720 -29.058  1.00  0.00     0.012 A 
HETATM   29 BR   UNL     1      -0.778   8.952 -27.621  1.00  0.00    -0.051 Br
HETATM   30  C   UNL     1      -1.977   7.191 -29.512  1.00  0.00     0.035 A 
ENDBRANCH   2  18
TORSDOF 5
ENDMDL
MODEL 7
REMARK VINA RESULT:      -8.3      2.182      2.905
REMARK  5 active torsions:
REMARK  status: ('A' for Active; 'I' for Inactive)
REMARK    1  A    between atoms: O_2  and  C_3 
REMARK    2  A    between atoms: C_5  and  C_6 
REMARK       I    between atoms: C_6  and  N_7 
REMARK    3  A    between atoms: N_7  and  C_8 
REMARK    4  A    between atoms: C_8  and  C_9 
REMARK       I    between atoms: C_9  and  N_10 
REMARK    5  A    between atoms: N_10  and  N_11 
ROOT
HETATM    1  C   UNL     1      -5.335   2.494 -30.989  1.00  0.00     0.255 C 
HETATM    2  N   UNL     1      -5.033   2.142 -32.296  1.00  0.00    -0.245 N 
HETATM    3  O   UNL     1      -5.382   1.703 -30.046  1.00  0.00    -0.270 OA
HETATM    4  H   UNL     1      -4.877   2.869 -33.002  1.00  0.00     0.192 HD
ENDROOT
BRANCH   1   5
HETATM    5  C   UNL     1      -5.474   3.996 -30.753  1.00  0.00     0.227 C 
BRANCH   5   6
HETATM    6  N   UNL     1      -4.231   4.690 -30.452  1.00  0.00    -0.348 N 
HETATM    7  C   UNL     1      -3.403   5.155 -31.447  1.00  0.00     0.252 C 
HETATM    8  O   UNL     1      -3.742   5.151 -32.625  1.00  0.00    -0.268 OA
HETATM    9  H   UNL     1      -4.029   4.886 -29.481  1.00  0.00     0.163 HD
BRANCH   7  10
HETATM   10  C   UNL     1      -2.067   5.675 -31.035  1.00  0.00     0.034 A 
HETATM   11  C   UNL     1      -2.023   6.778 -30.172  1.00  0.00     0.053 A 
HETATM   12  C   UNL     1      -0.801   7.358 -29.817  1.00  0.00     0.069 A 
HETATM   13  C   UNL     1       0.387   6.810 -30.302  1.00  0.00     0.037 A 
HETATM   14  C   UNL     1       0.352   5.709 -31.162  1.00  0.00     0.004 A 
HETATM   15  C   UNL     1      -0.871   5.149 -31.538  1.00  0.00     0.017 A 
BRANCH  12  16
HETATM   16  O   UNL     1      -0.894   8.442 -28.987  1.00  0.00    -0.356 OA
HETATM   17  C   UNL     1      -1.869   9.419 -29.332  1.00  0.00     0.210 C 
ENDBRANCH  12  16
ENDBRANCH   7  10
ENDBRANCH   5   6
ENDBRANCH   1   5
BRANCH   2  18
HETATM   18  N   UNL     1      -4.785   0.834 -32.588  1.00  0.00    -0.166 NA
HETATM   19  C   UNL     1      -5.636   0.211 -33.335  1.00  0.00     0.157 A 
HETATM   20  C   UNL     1      -6.949   0.713 -33.937  1.00  0.00     0.277 A 
HETATM   21  C   UNL     1      -5.499  -1.174 -33.772  1.00  0.00     0.028 A 
HETATM   22  O   UNL     1      -7.424   1.814 -33.760  1.00  0.00    -0.266 OA
HETATM   23  N   UNL     1      -7.447  -0.345 -34.669  1.00  0.00    -0.321 N 
HETATM   24  C   UNL     1      -6.607  -1.451 -34.572  1.00  0.00     0.048 A 
HETATM   25  H   UNL     1      -8.315  -0.300 -35.183  1.00  0.00     0.169 HD
HETATM   26  C   UNL     1      -6.776  -2.691 -35.150  1.00  0.00     0.032 A 
HETATM   27  C   UNL     1      -5.791  -3.657 -34.899  1.00  0.00     0.021 A 
HETATM   28  C   UNL     1      -4.676  -3.360 -34.087  1.00  0.00     0.012 A 
HETATM   29 BR   UNL     1      -3.375  -4.699 -33.776  1.00  0.00    -0.051 Br
HETATM   30  C   UNL     1      -4.513  -2.103 -33.509  1.00  0.00     0.035 A 
ENDBRANCH   2  18
TORSDOF 5
ENDMDL
MODEL 8
REMARK VINA RESULT:      -8.0      3.659      5.312
REMARK  5 active torsions:
REMARK  status: ('A' for Active; 'I' for Inactive)
REMARK    1  A    between atoms: O_2  and  C_3 
REMARK    2  A    between atoms: C_5  and  C_6 
REMARK       I    between atoms: C_6  and  N_7 
REMARK    3  A    between atoms: N_7  and  C_8 
REMARK    4  A    between atoms: C_8  and  C_9 
REMARK       I    between atoms: C_9  and  N_10 
REMARK    5  A    between atoms: N_10  and  N_11 
ROOT
HETATM    1  C   UNL     1      -2.117   4.930 -31.690  1.00  0.00     0.255 C 
HETATM    2  N   UNL     1      -3.198   4.226 -31.182  1.00  0.00    -0.245 N 
HETATM    3  O   UNL     1      -1.176   4.421 -32.301  1.00  0.00    -0.270 OA
HETATM    4  H   UNL     1      -4.009   4.728 -30.806  1.00  0.00     0.192 HD
ENDROOT
BRANCH   1   5
HETATM    5  C   UNL     1      -2.232   6.447 -31.562  1.00  0.00     0.227 C 
BRANCH   5   6
HETATM    6  N   UNL     1      -1.751   6.998 -30.305  1.00  0.00    -0.348 N 
HETATM    7  C   UNL     1      -0.408   7.169 -30.057  1.00  0.00     0.252 C 
HETATM    8  O   UNL     1       0.436   7.018 -30.933  1.00  0.00    -0.268 OA
HETATM    9  H   UNL     1      -2.442   7.321 -29.642  1.00  0.00     0.163 HD
BRANCH   7  10
HETATM   10  C   UNL     1      -0.015   7.556 -28.671  1.00  0.00     0.034 A 
HETATM   11  C   UNL     1      -0.958   7.404 -27.647  1.00  0.00     0.053 A 
HETATM   12  C   UNL     1      -0.673   7.825 -26.344  1.00  0.00     0.069 A 
HETATM   13  C   UNL     1       0.578   8.373 -26.057  1.00  0.00     0.037 A 
HETATM   14  C   UNL     1       1.525   8.528 -27.072  1.00  0.00     0.004 A 
HETATM   15  C   UNL     1       1.228   8.132 -28.378  1.00  0.00     0.017 A 
BRANCH  12  16
HETATM   16  O   UNL     1      -1.684   7.642 -25.441  1.00  0.00    -0.356 OA
HETATM   17  C   UNL     1      -2.170   8.811 -24.792  1.00  0.00     0.210 C 
ENDBRANCH  12  16
ENDBRANCH   7  10
ENDBRANCH   5   6
ENDBRANCH   1   5
BRANCH   2  18
HETATM   18  N   UNL     1      -3.240   2.872 -31.342  1.00  0.00    -0.166 NA
HETATM   19  C   UNL     1      -4.169   2.382 -32.093  1.00  0.00     0.157 A 
HETATM   20  C   UNL     1      -5.299   3.100 -32.832  1.00  0.00     0.277 A 
HETATM   21  C   UNL     1      -4.329   0.965 -32.397  1.00  0.00     0.028 A 
HETATM   22  O   UNL     1      -5.519   4.291 -32.786  1.00  0.00    -0.266 OA
HETATM   23  N   UNL     1      -5.987   2.111 -33.504  1.00  0.00    -0.321 N 
HETATM   24  C   UNL     1      -5.428   0.861 -33.249  1.00  0.00     0.048 A 
HETATM   25  H   UNL     1      -6.794   2.295 -34.083  1.00  0.00     0.169 HD
HETATM   26  C   UNL     1      -5.844  -0.362 -33.729  1.00  0.00     0.032 A 
HETATM   27  C   UNL     1      -5.120  -1.493 -33.324  1.00  0.00     0.021 A 
HETATM   28  C   UNL     1      -4.011  -1.371 -32.460  1.00  0.00     0.012 A 
HETATM   29 BR   UNL     1      -3.069  -2.927 -31.939  1.00  0.00    -0.051 Br
HETATM   30  C   UNL     1      -3.597  -0.129 -31.982  1.00  0.00     0.035 A 
ENDBRANCH   2  18
TORSDOF 5
ENDMDL
MODEL 9
REMARK VINA RESULT:      -7.9      4.610      8.796
REMARK  5 active torsions:
REMARK  status: ('A' for Active; 'I' for Inactive)
REMARK    1  A    between atoms: O_2  and  C_3 
REMARK    2  A    between atoms: C_5  and  C_6 
REMARK       I    between atoms: C_6  and  N_7 
REMARK    3  A    between atoms: N_7  and  C_8 
REMARK    4  A    between atoms: C_8  and  C_9 
REMARK       I    between atoms: C_9  and  N_10 
REMARK    5  A    between atoms: N_10  and  N_11 
ROOT
HETATM    1  C   UNL     1      -4.450   5.947 -32.439  1.00  0.00     0.255 C 
HETATM    2  N   UNL     1      -3.176   6.477 -32.568  1.00  0.00    -0.245 N 
HETATM    3  O   UNL     1      -5.133   6.008 -31.414  1.00  0.00    -0.270 OA
HETATM    4  H   UNL     1      -2.723   6.511 -33.486  1.00  0.00     0.192 HD
ENDROOT
BRANCH   1   5
HETATM    5  C   UNL     1      -5.037   5.384 -33.731  1.00  0.00     0.227 C 
BRANCH   5   6
HETATM    6  N   UNL     1      -5.082   3.932 -33.806  1.00  0.00    -0.348 N 
HETATM    7  C   UNL     1      -6.274   3.247 -33.856  1.00  0.00     0.252 C 
HETATM    8  O   UNL     1      -7.346   3.824 -34.000  1.00  0.00    -0.268 OA
HETATM    9  H   UNL     1      -4.202   3.442 -33.894  1.00  0.00     0.163 HD
BRANCH   7  10
HETATM   10  C   UNL     1      -6.212   1.761 -33.735  1.00  0.00     0.034 A 
HETATM   11  C   UNL     1      -5.384   1.210 -32.749  1.00  0.00     0.053 A 
HETATM   12  C   UNL     1      -5.225  -0.175 -32.642  1.00  0.00     0.069 A 
HETATM   13  C   UNL     1      -5.925  -1.016 -33.508  1.00  0.00     0.037 A 
HETATM   14  C   UNL     1      -6.754  -0.475 -34.493  1.00  0.00     0.004 A 
HETATM   15  C   UNL     1      -6.890   0.909 -34.616  1.00  0.00     0.017 A 
BRANCH  12  16
HETATM   16  O   UNL     1      -4.373  -0.586 -31.654  1.00  0.00    -0.356 OA
HETATM   17  C   UNL     1      -3.389   0.354 -31.238  1.00  0.00     0.210 C 
ENDBRANCH  12  16
ENDBRANCH   7  10
ENDBRANCH   5   6
ENDBRANCH   1   5
BRANCH   2  18
HETATM   18  N   UNL     1      -2.606   7.098 -31.496  1.00  0.00    -0.166 NA
HETATM   19  C   UNL     1      -1.719   6.445 -30.821  1.00  0.00     0.157 A 
HETATM   20  C   UNL     1      -1.211   5.015 -31.015  1.00  0.00     0.277 A 
HETATM   21  C   UNL     1      -0.989   6.977 -29.677  1.00  0.00     0.028 A 
HETATM   22  O   UNL     1      -1.617   4.236 -31.850  1.00  0.00    -0.266 OA
HETATM   23  N   UNL     1      -0.250   4.830 -30.043  1.00  0.00    -0.321 N 
HETATM   24  C   UNL     1      -0.121   5.971 -29.255  1.00  0.00     0.048 A 
HETATM   25  H   UNL     1       0.262   3.967 -29.930  1.00  0.00     0.169 HD
HETATM   26  C   UNL     1       0.722   6.162 -28.181  1.00  0.00     0.032 A 
HETATM   27  C   UNL     1       0.669   7.405 -27.534  1.00  0.00     0.021 A 
HETATM   28  C   UNL     1      -0.216   8.412 -27.973  1.00  0.00     0.012 A 
HETATM   29 BR   UNL     1      -0.254  10.071 -27.064  1.00  0.00    -0.051 Br
HETATM   30  C   UNL     1      -1.063   8.210 -29.061  1.00  0.00     0.035 A 
ENDBRANCH   2  18
TORSDOF 5
ENDMDL
MODEL 10
REMARK VINA RESULT:      -7.8      4.983      8.089
REMARK  5 active torsions:
REMARK  status: ('A' for Active; 'I' for Inactive)
REMARK    1  A    between atoms: O_2  and  C_3 
REMARK    2  A    between atoms: C_5  and  C_6 
REMARK       I    between atoms: C_6  and  N_7 
REMARK    3  A    between atoms: N_7  and  C_8 
REMARK    4  A    between atoms: C_8  and  C_9 
REMARK       I    between atoms: C_9  and  N_10 
REMARK    5  A    between atoms: N_10  and  N_11 
ROOT
HETATM    1  C   UNL     1      -6.472   1.327 -31.574  1.00  0.00     0.255 C 
HETATM    2  N   UNL     1      -6.276   2.660 -31.898  1.00  0.00    -0.245 N 
HETATM    3  O   UNL     1      -5.585   0.563 -31.187  1.00  0.00    -0.270 OA
HETATM    4  H   UNL     1      -7.079   3.270 -32.080  1.00  0.00     0.192 HD
ENDROOT
BRANCH   1   5
HETATM    5  C   UNL     1      -7.931   0.877 -31.594  1.00  0.00     0.227 C 
BRANCH   5   6
HETATM    6  N   UNL     1      -8.814   1.688 -32.418  1.00  0.00    -0.348 N 
HETATM    7  C   UNL     1      -9.856   1.132 -33.124  1.00  0.00     0.252 C 
HETATM    8  O   UNL     1     -10.190  -0.037 -32.971  1.00  0.00    -0.268 OA
HETATM    9  H   UNL     1      -8.682   2.690 -32.400  1.00  0.00     0.163 HD
BRANCH   7  10
HETATM   10  C   UNL     1     -10.576   2.016 -34.086  1.00  0.00     0.034 A 
HETATM   11  C   UNL     1      -9.978   3.230 -34.447  1.00  0.00     0.053 A 
HETATM   12  C   UNL     1     -10.642   4.134 -35.282  1.00  0.00     0.069 A 
HETATM   13  C   UNL     1     -11.902   3.806 -35.785  1.00  0.00     0.037 A 
HETATM   14  C   UNL     1     -12.505   2.597 -35.432  1.00  0.00     0.004 A 
HETATM   15  C   UNL     1     -11.852   1.708 -34.576  1.00  0.00     0.017 A 
BRANCH  12  16
HETATM   16  O   UNL     1      -9.962   5.292 -35.541  1.00  0.00    -0.356 OA
HETATM   17  C   UNL     1     -10.705   6.499 -35.428  1.00  0.00     0.210 C 
ENDBRANCH  12  16
ENDBRANCH   7  10
ENDBRANCH   5   6
ENDBRANCH   1   5
BRANCH   2  18
HETATM   18  N   UNL     1      -5.020   3.185 -31.807  1.00  0.00    -0.166 NA
HETATM   19  C   UNL     1      -4.606   3.929 -32.779  1.00  0.00     0.157 A 
HETATM   20  C   UNL     1      -5.311   4.301 -34.084  1.00  0.00     0.277 A 
HETATM   21  C   UNL     1      -3.310   4.597 -32.819  1.00  0.00     0.028 A 
HETATM   22  O   UNL     1      -6.400   3.899 -34.430  1.00  0.00    -0.266 OA
HETATM   23  N   UNL     1      -4.438   5.138 -34.748  1.00  0.00    -0.321 N 
HETATM   24  C   UNL     1      -3.266   5.310 -34.016  1.00  0.00     0.048 A 
HETATM   25  H   UNL     1      -4.641   5.545 -35.651  1.00  0.00     0.169 HD
HETATM   26  C   UNL     1      -2.161   6.060 -34.357  1.00  0.00     0.032 A 
HETATM   27  C   UNL     1      -1.088   6.074 -33.454  1.00  0.00     0.021 A 
HETATM   28  C   UNL     1      -1.149   5.346 -32.247  1.00  0.00     0.012 A 
HETATM   29 BR   UNL     1       0.326   5.394 -31.063  1.00  0.00    -0.051 Br
HETATM   30  C   UNL     1      -2.272   4.592 -31.910  1.00  0.00     0.035 A 
ENDBRANCH   2  18
TORSDOF 5
ENDMDL
