MODEL 1
REMARK VINA RESULT:      -9.6      0.000      0.000
REMARK  4 active torsions:
REMARK  status: ('A' for Active; 'I' for Inactive)
REMARK    1  A    between atoms: N_3  and  C_4 
REMARK    2  A    between atoms: C_4  and  C_5 
REMARK    3  A    between atoms: C_5  and  C_6 
REMARK       I    between atoms: C_6  and  N_7 
REMARK    4  A    between atoms: N_7  and  C_8 
ROOT
HETATM    1  C   UNL     1      -3.362   3.161 -32.288  1.00  0.00     0.035 A 
HETATM    2  C   UNL     1      -2.250   3.729 -31.669  1.00  0.00     0.049 A 
HETATM    3  C   UNL     1      -2.000   5.111 -31.747  1.00  0.00     0.061 A 
HETATM    4  C   UNL     1      -2.873   5.940 -32.464  1.00  0.00     0.050 A 
HETATM    5  N   UNL     1      -2.832   7.345 -32.501  1.00  0.00    -0.324 N 
HETATM    6  C   UNL     1      -2.443   8.197 -31.497  1.00  0.00     0.245 C 
HETATM    7  O   UNL     1      -2.692   9.397 -31.630  1.00  0.00    -0.271 OA
HETATM    8  C   UNL     1      -1.910   7.595 -30.197  1.00  0.00     0.180 C 
HETATM    9  N   UNL     1      -0.736   6.782 -30.467  1.00  0.00    -0.334 N 
HETATM   10  C   UNL     1      -0.738   5.574 -31.119  1.00  0.00     0.256 C 
HETATM   11  O   UNL     1       0.257   4.858 -31.183  1.00  0.00    -0.267 OA
HETATM   12  C   UNL     1      -1.422   8.652 -29.198  1.00  0.00     0.037 C 
HETATM   13  C   UNL     1      -0.215   7.994 -28.542  1.00  0.00     0.022 C 
HETATM   14  C   UNL     1       0.408   7.222 -29.690  1.00  0.00     0.127 C 
HETATM   15  C   UNL     1      -3.911   5.344 -33.194  1.00  0.00     0.033 A 
HETATM   16  C   UNL     1      -4.163   3.971 -33.095  1.00  0.00     0.032 A 
HETATM   17  H   UNL     1      -3.365   7.825 -33.215  1.00  0.00     0.169 HD
ENDROOT
BRANCH   1  18
HETATM   18  N   UNL     1      -3.787   1.832 -32.078  1.00  0.00    -0.327 N 
HETATM   19  C   UNL     1      -4.988   1.427 -31.531  1.00  0.00     0.224 C 
HETATM   20  O   UNL     1      -5.753   2.116 -30.863  1.00  0.00    -0.273 OA
HETATM   21  H   UNL     1      -3.169   1.105 -32.425  1.00  0.00     0.169 HD
BRANCH  19  22
HETATM   22  C   UNL     1      -5.370   0.001 -31.875  1.00  0.00     0.134 C 
BRANCH  22  23
HETATM   23  C   UNL     1      -6.404  -0.150 -33.017  1.00  0.00     0.044 C 
HETATM   24  C   UNL     1      -6.239   1.097 -33.947  1.00  0.00     0.032 C 
HETATM   25  C   UNL     1      -7.316   1.200 -35.024  1.00  0.00     0.002 C 
HETATM   26  C   UNL     1      -8.706   1.242 -34.405  1.00  0.00     0.000 C 
HETATM   27  C   UNL     1      -8.944   0.044 -33.496  1.00  0.00     0.002 C 
HETATM   28  C   UNL     1      -7.849  -0.094 -32.434  1.00  0.00     0.032 C 
BRANCH  23  29
HETATM   29  N   UNL     1      -6.104  -1.400 -33.756  1.00  0.00    -0.356 N 
HETATM   30  C   UNL     1      -4.838  -1.912 -33.957  1.00  0.00     0.091 A 
HETATM   31  C   UNL     1      -4.945  -3.116 -34.617  1.00  0.00     0.019 A 
HETATM   32  C   UNL     1      -6.319  -3.372 -34.794  1.00  0.00     0.019 A 
HETATM   33  C   UNL     1      -7.008  -2.317 -34.237  1.00  0.00     0.091 A 
ENDBRANCH  23  29
ENDBRANCH  22  23
ENDBRANCH  19  22
ENDBRANCH   1  18
TORSDOF 4
ENDMDL
MODEL 2
REMARK VINA RESULT:      -9.4      5.338      8.391
REMARK  4 active torsions:
REMARK  status: ('A' for Active; 'I' for Inactive)
REMARK    1  A    between atoms: N_3  and  C_4 
REMARK    2  A    between atoms: C_4  and  C_5 
REMARK    3  A    between atoms: C_5  and  C_6 
REMARK       I    between atoms: C_6  and  N_7 
REMARK    4  A    between atoms: N_7  and  C_8 
ROOT
HETATM    1  C   UNL     1      -7.776   0.295 -34.129  1.00  0.00     0.035 A 
HETATM    2  C   UNL     1      -7.071  -0.874 -34.412  1.00  0.00     0.049 A 
HETATM    3  C   UNL     1      -5.708  -0.998 -34.085  1.00  0.00     0.061 A 
HETATM    4  C   UNL     1      -5.037   0.067 -33.473  1.00  0.00     0.050 A 
HETATM    5  N   UNL     1      -3.729   0.030 -32.958  1.00  0.00    -0.324 N 
HETATM    6  C   UNL     1      -3.086  -1.037 -32.381  1.00  0.00     0.245 C 
HETATM    7  O   UNL     1      -2.031  -0.820 -31.782  1.00  0.00    -0.271 OA
HETATM    8  C   UNL     1      -3.806  -2.385 -32.342  1.00  0.00     0.180 C 
HETATM    9  N   UNL     1      -4.116  -2.825 -33.692  1.00  0.00    -0.334 N 
HETATM   10  C   UNL     1      -5.055  -2.258 -34.517  1.00  0.00     0.256 C 
HETATM   11  O   UNL     1      -5.385  -2.764 -35.587  1.00  0.00    -0.267 OA
HETATM   12  C   UNL     1      -2.944  -3.513 -31.761  1.00  0.00     0.037 C 
HETATM   13  C   UNL     1      -3.341  -4.729 -32.588  1.00  0.00     0.022 C 
HETATM   14  C   UNL     1      -3.558  -4.136 -33.968  1.00  0.00     0.127 C 
HETATM   15  C   UNL     1      -5.716   1.284 -33.315  1.00  0.00     0.033 A 
HETATM   16  C   UNL     1      -7.076   1.392 -33.626  1.00  0.00     0.032 A 
HETATM   17  H   UNL     1      -3.271   0.907 -32.739  1.00  0.00     0.169 HD
ENDROOT
BRANCH   1  18
HETATM   18  N   UNL     1      -9.179   0.412 -34.235  1.00  0.00    -0.327 N 
HETATM   19  C   UNL     1     -10.083   0.458 -33.193  1.00  0.00     0.224 C 
HETATM   20  O   UNL     1      -9.877   0.105 -32.035  1.00  0.00    -0.273 OA
HETATM   21  H   UNL     1      -9.547   0.540 -35.172  1.00  0.00     0.169 HD
BRANCH  19  22
HETATM   22  C   UNL     1     -11.420   1.068 -33.565  1.00  0.00     0.134 C 
BRANCH  22  23
HETATM   23  C   UNL     1     -11.464   2.616 -33.563  1.00  0.00     0.044 C 
HETATM   24  C   UNL     1     -11.575   3.069 -35.055  1.00  0.00     0.032 C 
HETATM   25  C   UNL     1     -11.440   4.578 -35.245  1.00  0.00     0.002 C 
HETATM   26  C   UNL     1     -10.118   5.083 -34.686  1.00  0.00     0.000 C 
HETATM   27  C   UNL     1      -9.948   4.691 -33.225  1.00  0.00     0.002 C 
HETATM   28  C   UNL     1     -10.119   3.183 -33.014  1.00  0.00     0.032 C 
BRANCH  23  29
HETATM   29  N   UNL     1     -12.656   3.046 -32.793  1.00  0.00    -0.356 N 
HETATM   30  C   UNL     1     -13.923   2.521 -32.942  1.00  0.00     0.091 A 
HETATM   31  C   UNL     1     -14.759   3.105 -32.017  1.00  0.00     0.019 A 
HETATM   32  C   UNL     1     -13.976   3.990 -31.251  1.00  0.00     0.019 A 
HETATM   33  C   UNL     1     -12.686   3.917 -31.730  1.00  0.00     0.091 A 
ENDBRANCH  23  29
ENDBRANCH  22  23
ENDBRANCH  19  22
ENDBRANCH   1  18
TORSDOF 4
ENDMDL
MODEL 3
REMARK VINA RESULT:      -9.0      2.523      8.888
REMARK  4 active torsions:
REMARK  status: ('A' for Active; 'I' for Inactive)
REMARK    1  A    between atoms: N_3  and  C_4 
REMARK    2  A    between atoms: C_4  and  C_5 
REMARK    3  A    between atoms: C_5  and  C_6 
REMARK       I    between atoms: C_6  and  N_7 
REMARK    4  A    between atoms: N_7  and  C_8 
ROOT
HETATM    1  C   UNL     1      -6.386   4.742 -30.699  1.00  0.00     0.035 A 
HETATM    2  C   UNL     1      -5.849   3.492 -31.001  1.00  0.00     0.049 A 
HETATM    3  C   UNL     1      -6.672   2.355 -31.116  1.00  0.00     0.061 A 
HETATM    4  C   UNL     1      -8.054   2.470 -30.917  1.00  0.00     0.050 A 
HETATM    5  N   UNL     1      -9.006   1.461 -31.147  1.00  0.00    -0.324 N 
HETATM    6  C   UNL     1      -8.970   0.479 -32.104  1.00  0.00     0.245 C 
HETATM    7  O   UNL     1      -9.998  -0.171 -32.303  1.00  0.00    -0.271 OA
HETATM    8  C   UNL     1      -7.735   0.381 -33.000  1.00  0.00     0.180 C 
HETATM    9  N   UNL     1      -6.548   0.152 -32.192  1.00  0.00    -0.334 N 
HETATM   10  C   UNL     1      -5.967   1.072 -31.356  1.00  0.00     0.256 C 
HETATM   11  O   UNL     1      -4.881   0.879 -30.817  1.00  0.00    -0.267 OA
HETATM   12  C   UNL     1      -7.779  -0.815 -33.960  1.00  0.00     0.037 C 
HETATM   13  C   UNL     1      -6.329  -1.278 -34.024  1.00  0.00     0.022 C 
HETATM   14  C   UNL     1      -5.845  -1.049 -32.603  1.00  0.00     0.127 C 
HETATM   15  C   UNL     1      -8.566   3.700 -30.482  1.00  0.00     0.033 A 
HETATM   16  C   UNL     1      -7.744   4.829 -30.388  1.00  0.00     0.032 A 
HETATM   17  H   UNL     1      -9.937   1.580 -30.766  1.00  0.00     0.169 HD
ENDROOT
BRANCH   1  18
HETATM   18  N   UNL     1      -5.659   5.949 -30.775  1.00  0.00    -0.327 N 
HETATM   19  C   UNL     1      -4.706   6.394 -29.881  1.00  0.00     0.224 C 
HETATM   20  O   UNL     1      -4.540   5.992 -28.733  1.00  0.00    -0.273 OA
HETATM   21  H   UNL     1      -5.811   6.511 -31.607  1.00  0.00     0.169 HD
BRANCH  19  22
HETATM   22  C   UNL     1      -3.766   7.438 -30.454  1.00  0.00     0.134 C 
BRANCH  22  23
HETATM   23  C   UNL     1      -2.482   6.880 -31.114  1.00  0.00     0.044 C 
HETATM   24  C   UNL     1      -2.240   7.715 -32.414  1.00  0.00     0.032 C 
HETATM   25  C   UNL     1      -1.113   7.170 -33.287  1.00  0.00     0.002 C 
HETATM   26  C   UNL     1      -1.381   5.727 -33.688  1.00  0.00     0.000 C 
HETATM   27  C   UNL     1      -1.611   4.847 -32.466  1.00  0.00     0.002 C 
HETATM   28  C   UNL     1      -2.713   5.404 -31.560  1.00  0.00     0.032 C 
BRANCH  23  29
HETATM   29  N   UNL     1      -1.357   7.050 -30.163  1.00  0.00    -0.356 N 
HETATM   30  C   UNL     1      -1.096   8.202 -29.449  1.00  0.00     0.091 A 
HETATM   31  C   UNL     1      -0.024   7.975 -28.615  1.00  0.00     0.019 A 
HETATM   32  C   UNL     1       0.363   6.632 -28.792  1.00  0.00     0.019 A 
HETATM   33  C   UNL     1      -0.485   6.081 -29.728  1.00  0.00     0.091 A 
ENDBRANCH  23  29
ENDBRANCH  22  23
ENDBRANCH  19  22
ENDBRANCH   1  18
TORSDOF 4
ENDMDL
MODEL 4
REMARK VINA RESULT:      -8.9      1.518      2.870
REMARK  4 active torsions:
REMARK  status: ('A' for Active; 'I' for Inactive)
REMARK    1  A    between atoms: N_3  and  C_4 
REMARK    2  A    between atoms: C_4  and  C_5 
REMARK    3  A    between atoms: C_5  and  C_6 
REMARK       I    between atoms: C_6  and  N_7 
REMARK    4  A    between atoms: N_7  and  C_8 
ROOT
HETATM    1  C   UNL     1      -3.327   3.567 -32.349  1.00  0.00     0.035 A 
HETATM    2  C   UNL     1      -2.262   4.041 -31.585  1.00  0.00     0.049 A 
HETATM    3  C   UNL     1      -1.863   5.390 -31.653  1.00  0.00     0.061 A 
HETATM    4  C   UNL     1      -2.535   6.275 -32.505  1.00  0.00     0.050 A 
HETATM    5  N   UNL     1      -2.345   7.667 -32.561  1.00  0.00    -0.324 N 
HETATM    6  C   UNL     1      -2.018   8.511 -31.529  1.00  0.00     0.245 C 
HETATM    7  O   UNL     1      -2.121   9.724 -31.719  1.00  0.00    -0.271 OA
HETATM    8  C   UNL     1      -1.741   7.903 -30.153  1.00  0.00     0.180 C 
HETATM    9  N   UNL     1      -0.629   6.969 -30.234  1.00  0.00    -0.334 N 
HETATM   10  C   UNL     1      -0.663   5.746 -30.856  1.00  0.00     0.256 C 
HETATM   11  O   UNL     1       0.253   4.933 -30.762  1.00  0.00    -0.267 OA
HETATM   12  C   UNL     1      -1.294   8.939 -29.115  1.00  0.00     0.037 C 
HETATM   13  C   UNL     1      -0.267   8.187 -28.277  1.00  0.00     0.022 C 
HETATM   14  C   UNL     1       0.431   7.319 -29.308  1.00  0.00     0.127 C 
HETATM   15  C   UNL     1      -3.514   5.761 -33.366  1.00  0.00     0.033 A 
HETATM   16  C   UNL     1      -3.917   4.424 -33.279  1.00  0.00     0.032 A 
HETATM   17  H   UNL     1      -2.719   8.174 -33.355  1.00  0.00     0.169 HD
ENDROOT
BRANCH   1  18
HETATM   18  N   UNL     1      -3.911   2.294 -32.177  1.00  0.00    -0.327 N 
HETATM   19  C   UNL     1      -4.791   1.918 -31.182  1.00  0.00     0.224 C 
HETATM   20  O   UNL     1      -4.982   2.503 -30.120  1.00  0.00    -0.273 OA
HETATM   21  H   UNL     1      -3.710   1.608 -32.899  1.00  0.00     0.169 HD
BRANCH  19  22
HETATM   22  C   UNL     1      -5.613   0.690 -31.520  1.00  0.00     0.134 C 
BRANCH  22  23
HETATM   23  C   UNL     1      -6.696   0.897 -32.607  1.00  0.00     0.044 C 
HETATM   24  C   UNL     1      -7.596  -0.382 -32.602  1.00  0.00     0.032 C 
HETATM   25  C   UNL     1      -8.604  -0.422 -33.748  1.00  0.00     0.002 C 
HETATM   26  C   UNL     1      -7.904  -0.333 -35.096  1.00  0.00     0.000 C 
HETATM   27  C   UNL     1      -7.018   0.903 -35.179  1.00  0.00     0.002 C 
HETATM   28  C   UNL     1      -6.027   0.976 -34.014  1.00  0.00     0.032 C 
BRANCH  23  29
HETATM   29  N   UNL     1      -7.488   2.099 -32.252  1.00  0.00    -0.356 N 
HETATM   30  C   UNL     1      -7.517   3.269 -32.984  1.00  0.00     0.091 A 
HETATM   31  C   UNL     1      -8.411   4.137 -32.399  1.00  0.00     0.019 A 
HETATM   32  C   UNL     1      -8.979   3.469 -31.297  1.00  0.00     0.019 A 
HETATM   33  C   UNL     1      -8.414   2.214 -31.243  1.00  0.00     0.091 A 
ENDBRANCH  23  29
ENDBRANCH  22  23
ENDBRANCH  19  22
ENDBRANCH   1  18
TORSDOF 4
ENDMDL
MODEL 5
REMARK VINA RESULT:      -8.9      1.806      2.079
REMARK  4 active torsions:
REMARK  status: ('A' for Active; 'I' for Inactive)
REMARK    1  A    between atoms: N_3  and  C_4 
REMARK    2  A    between atoms: C_4  and  C_5 
REMARK    3  A    between atoms: C_5  and  C_6 
REMARK       I    between atoms: C_6  and  N_7 
REMARK    4  A    between atoms: N_7  and  C_8 
ROOT
HETATM    1  C   UNL     1      -5.032   3.120 -31.611  1.00  0.00     0.035 A 
HETATM    2  C   UNL     1      -4.031   3.919 -32.161  1.00  0.00     0.049 A 
HETATM    3  C   UNL     1      -3.606   5.097 -31.520  1.00  0.00     0.061 A 
HETATM    4  C   UNL     1      -4.197   5.488 -30.312  1.00  0.00     0.050 A 
HETATM    5  N   UNL     1      -3.773   6.548 -29.491  1.00  0.00    -0.324 N 
HETATM    6  C   UNL     1      -2.490   6.996 -29.300  1.00  0.00     0.245 C 
HETATM    7  O   UNL     1      -2.285   7.781 -28.372  1.00  0.00    -0.271 OA
HETATM    8  C   UNL     1      -1.366   6.352 -30.110  1.00  0.00     0.180 C 
HETATM    9  N   UNL     1      -1.610   6.527 -31.532  1.00  0.00    -0.334 N 
HETATM   10  C   UNL     1      -2.596   5.901 -32.252  1.00  0.00     0.256 C 
HETATM   11  O   UNL     1      -2.661   5.965 -33.477  1.00  0.00    -0.267 OA
HETATM   12  C   UNL     1       0.001   7.007 -29.874  1.00  0.00     0.037 C 
HETATM   13  C   UNL     1       0.666   6.953 -31.244  1.00  0.00     0.022 C 
HETATM   14  C   UNL     1      -0.498   7.190 -32.188  1.00  0.00     0.127 C 
HETATM   15  C   UNL     1      -5.293   4.753 -29.836  1.00  0.00     0.033 A 
HETATM   16  C   UNL     1      -5.697   3.573 -30.470  1.00  0.00     0.032 A 
HETATM   17  H   UNL     1      -4.398   6.875 -28.764  1.00  0.00     0.169 HD
ENDROOT
BRANCH   1  18
HETATM   18  N   UNL     1      -5.358   1.831 -32.083  1.00  0.00    -0.327 N 
HETATM   19  C   UNL     1      -4.482   0.786 -32.298  1.00  0.00     0.224 C 
HETATM   20  O   UNL     1      -3.263   0.870 -32.413  1.00  0.00    -0.273 OA
HETATM   21  H   UNL     1      -6.347   1.640 -32.215  1.00  0.00     0.169 HD
BRANCH  19  22
HETATM   22  C   UNL     1      -5.146  -0.577 -32.325  1.00  0.00     0.134 C 
BRANCH  22  23
HETATM   23  C   UNL     1      -6.307  -0.727 -33.338  1.00  0.00     0.044 C 
HETATM   24  C   UNL     1      -6.151   0.425 -34.383  1.00  0.00     0.032 C 
HETATM   25  C   UNL     1      -7.327   0.535 -35.350  1.00  0.00     0.002 C 
HETATM   26  C   UNL     1      -8.634   0.743 -34.598  1.00  0.00     0.000 C 
HETATM   27  C   UNL     1      -8.862  -0.356 -33.569  1.00  0.00     0.002 C 
HETATM   28  C   UNL     1      -7.672  -0.504 -32.617  1.00  0.00     0.032 C 
BRANCH  23  29
HETATM   29  N   UNL     1      -6.185  -2.052 -33.993  1.00  0.00    -0.356 N 
HETATM   30  C   UNL     1      -4.992  -2.679 -34.287  1.00  0.00     0.091 A 
HETATM   31  C   UNL     1      -5.260  -3.918 -34.822  1.00  0.00     0.019 A 
HETATM   32  C   UNL     1      -6.660  -4.076 -34.823  1.00  0.00     0.019 A 
HETATM   33  C   UNL     1      -7.202  -2.928 -34.288  1.00  0.00     0.091 A 
ENDBRANCH  23  29
ENDBRANCH  22  23
ENDBRANCH  19  22
ENDBRANCH   1  18
TORSDOF 4
ENDMDL
MODEL 6
REMARK VINA RESULT:      -8.8      1.926      9.177
REMARK  4 active torsions:
REMARK  status: ('A' for Active; 'I' for Inactive)
REMARK    1  A    between atoms: N_3  and  C_4 
REMARK    2  A    between atoms: C_4  and  C_5 
REMARK    3  A    between atoms: C_5  and  C_6 
REMARK       I    between atoms: C_6  and  N_7 
REMARK    4  A    between atoms: N_7  and  C_8 
ROOT
HETATM    1  C   UNL     1      -3.428   2.877 -31.258  1.00  0.00     0.035 A 
HETATM    2  C   UNL     1      -3.427   1.555 -31.701  1.00  0.00     0.049 A 
HETATM    3  C   UNL     1      -4.626   0.831 -31.832  1.00  0.00     0.061 A 
HETATM    4  C   UNL     1      -5.847   1.436 -31.507  1.00  0.00     0.050 A 
HETATM    5  N   UNL     1      -7.123   0.889 -31.731  1.00  0.00    -0.324 N 
HETATM    6  C   UNL     1      -7.514   0.071 -32.761  1.00  0.00     0.245 C 
HETATM    7  O   UNL     1      -8.721  -0.120 -32.921  1.00  0.00    -0.271 OA
HETATM    8  C   UNL     1      -6.456  -0.392 -33.764  1.00  0.00     0.180 C 
HETATM    9  N   UNL     1      -5.409  -1.133 -33.081  1.00  0.00    -0.334 N 
HETATM   10  C   UNL     1      -4.479  -0.591 -32.229  1.00  0.00     0.256 C 
HETATM   11  O   UNL     1      -3.524  -1.233 -31.801  1.00  0.00    -0.267 OA
HETATM   12  C   UNL     1      -7.003  -1.376 -34.806  1.00  0.00     0.037 C 
HETATM   13  C   UNL     1      -5.845  -2.341 -35.029  1.00  0.00     0.022 C 
HETATM   14  C   UNL     1      -5.241  -2.460 -33.642  1.00  0.00     0.127 C 
HETATM   15  C   UNL     1      -5.827   2.716 -30.936  1.00  0.00     0.033 A 
HETATM   16  C   UNL     1      -4.633   3.436 -30.827  1.00  0.00     0.032 A 
HETATM   17  H   UNL     1      -7.917   1.310 -31.264  1.00  0.00     0.169 HD
ENDROOT
BRANCH   1  18
HETATM   18  N   UNL     1      -2.299   3.722 -31.303  1.00  0.00    -0.327 N 
HETATM   19  C   UNL     1      -2.129   4.828 -32.112  1.00  0.00     0.224 C 
HETATM   20  O   UNL     1      -2.767   5.093 -33.125  1.00  0.00    -0.273 OA
HETATM   21  H   UNL     1      -1.569   3.530 -30.623  1.00  0.00     0.169 HD
BRANCH  19  22
HETATM   22  C   UNL     1      -1.077   5.799 -31.611  1.00  0.00     0.134 C 
BRANCH  22  23
HETATM   23  C   UNL     1      -1.605   6.934 -30.701  1.00  0.00     0.044 C 
HETATM   24  C   UNL     1      -3.037   6.513 -30.233  1.00  0.00     0.032 C 
HETATM   25  C   UNL     1      -3.778   7.612 -29.476  1.00  0.00     0.002 C 
HETATM   26  C   UNL     1      -3.900   8.872 -30.321  1.00  0.00     0.000 C 
HETATM   27  C   UNL     1      -2.536   9.352 -30.800  1.00  0.00     0.002 C 
HETATM   28  C   UNL     1      -1.765   8.246 -31.528  1.00  0.00     0.032 C 
BRANCH  23  29
HETATM   29  N   UNL     1      -0.690   7.065 -29.541  1.00  0.00    -0.356 N 
HETATM   30  C   UNL     1      -0.062   6.010 -28.910  1.00  0.00     0.091 A 
HETATM   31  C   UNL     1       0.764   6.508 -27.927  1.00  0.00     0.019 A 
HETATM   32  C   UNL     1       0.670   7.913 -27.979  1.00  0.00     0.019 A 
HETATM   33  C   UNL     1      -0.208   8.228 -28.991  1.00  0.00     0.091 A 
ENDBRANCH  23  29
ENDBRANCH  22  23
ENDBRANCH  19  22
ENDBRANCH   1  18
TORSDOF 4
ENDMDL
MODEL 7
REMARK VINA RESULT:      -8.8      4.844      8.375
REMARK  4 active torsions:
REMARK  status: ('A' for Active; 'I' for Inactive)
REMARK    1  A    between atoms: N_3  and  C_4 
REMARK    2  A    between atoms: C_4  and  C_5 
REMARK    3  A    between atoms: C_5  and  C_6 
REMARK       I    between atoms: C_6  and  N_7 
REMARK    4  A    between atoms: N_7  and  C_8 
ROOT
HETATM    1  C   UNL     1      -7.542   1.209 -32.868  1.00  0.00     0.035 A 
HETATM    2  C   UNL     1      -7.058   0.020 -33.414  1.00  0.00     0.049 A 
HETATM    3  C   UNL     1      -5.690  -0.305 -33.351  1.00  0.00     0.061 A 
HETATM    4  C   UNL     1      -4.790   0.578 -32.740  1.00  0.00     0.050 A 
HETATM    5  N   UNL     1      -3.434   0.318 -32.473  1.00  0.00    -0.324 N 
HETATM    6  C   UNL     1      -2.860  -0.888 -32.156  1.00  0.00     0.245 C 
HETATM    7  O   UNL     1      -1.703  -0.882 -31.730  1.00  0.00    -0.271 OA
HETATM    8  C   UNL     1      -3.742  -2.137 -32.156  1.00  0.00     0.180 C 
HETATM    9  N   UNL     1      -4.321  -2.339 -33.474  1.00  0.00    -0.334 N 
HETATM   10  C   UNL     1      -5.293  -1.555 -34.044  1.00  0.00     0.256 C 
HETATM   11  O   UNL     1      -5.856  -1.860 -35.092  1.00  0.00    -0.267 OA
HETATM   12  C   UNL     1      -2.961  -3.427 -31.880  1.00  0.00     0.037 C 
HETATM   13  C   UNL     1      -3.647  -4.458 -32.768  1.00  0.00     0.022 C 
HETATM   14  C   UNL     1      -4.000  -3.651 -34.004  1.00  0.00     0.127 C 
HETATM   15  C   UNL     1      -5.263   1.828 -32.316  1.00  0.00     0.033 A 
HETATM   16  C   UNL     1      -6.627   2.134 -32.365  1.00  0.00     0.032 A 
HETATM   17  H   UNL     1      -2.832   1.096 -32.232  1.00  0.00     0.169 HD
ENDROOT
BRANCH   1  18
HETATM   18  N   UNL     1      -8.914   1.499 -32.709  1.00  0.00    -0.327 N 
HETATM   19  C   UNL     1      -9.702   2.248 -33.559  1.00  0.00     0.224 C 
HETATM   20  O   UNL     1      -9.306   3.033 -34.416  1.00  0.00    -0.273 OA
HETATM   21  H   UNL     1      -9.376   1.055 -31.921  1.00  0.00     0.169 HD
BRANCH  19  22
HETATM   22  C   UNL     1     -11.188   1.986 -33.411  1.00  0.00     0.134 C 
BRANCH  22  23
HETATM   23  C   UNL     1     -12.017   3.169 -32.852  1.00  0.00     0.044 C 
HETATM   24  C   UNL     1     -11.238   3.725 -31.616  1.00  0.00     0.032 C 
HETATM   25  C   UNL     1     -12.014   4.779 -30.831  1.00  0.00     0.002 C 
HETATM   26  C   UNL     1     -13.349   4.230 -30.350  1.00  0.00     0.000 C 
HETATM   27  C   UNL     1     -14.173   3.683 -31.509  1.00  0.00     0.002 C 
HETATM   28  C   UNL     1     -13.391   2.652 -32.328  1.00  0.00     0.032 C 
BRANCH  23  29
HETATM   29  N   UNL     1     -12.128   4.200 -33.911  1.00  0.00    -0.356 N 
HETATM   30  C   UNL     1     -12.788   4.030 -35.111  1.00  0.00     0.091 A 
HETATM   31  C   UNL     1     -12.749   5.214 -35.812  1.00  0.00     0.019 A 
HETATM   32  C   UNL     1     -12.079   6.154 -35.004  1.00  0.00     0.019 A 
HETATM   33  C   UNL     1     -11.730   5.514 -33.835  1.00  0.00     0.091 A 
ENDBRANCH  23  29
ENDBRANCH  22  23
ENDBRANCH  19  22
ENDBRANCH   1  18
TORSDOF 4
ENDMDL
MODEL 8
REMARK VINA RESULT:      -8.7      2.711      4.250
REMARK  4 active torsions:
REMARK  status: ('A' for Active; 'I' for Inactive)
REMARK    1  A    between atoms: N_3  and  C_4 
REMARK    2  A    between atoms: C_4  and  C_5 
REMARK    3  A    between atoms: C_5  and  C_6 
REMARK       I    between atoms: C_6  and  N_7 
REMARK    4  A    between atoms: N_7  and  C_8 
ROOT
HETATM    1  C   UNL     1      -5.867   4.146 -33.081  1.00  0.00     0.035 A 
HETATM    2  C   UNL     1      -4.750   4.003 -32.260  1.00  0.00     0.049 A 
HETATM    3  C   UNL     1      -3.476   4.428 -32.683  1.00  0.00     0.061 A 
HETATM    4  C   UNL     1      -3.317   4.999 -33.952  1.00  0.00     0.050 A 
HETATM    5  N   UNL     1      -2.145   5.601 -34.444  1.00  0.00    -0.324 N 
HETATM    6  C   UNL     1      -1.202   6.300 -33.733  1.00  0.00     0.245 C 
HETATM    7  O   UNL     1      -0.366   6.949 -34.365  1.00  0.00    -0.271 OA
HETATM    8  C   UNL     1      -1.358   6.396 -32.215  1.00  0.00     0.180 C 
HETATM    9  N   UNL     1      -1.354   5.067 -31.627  1.00  0.00    -0.334 N 
HETATM   10  C   UNL     1      -2.359   4.140 -31.752  1.00  0.00     0.256 C 
HETATM   11  O   UNL     1      -2.374   3.094 -31.108  1.00  0.00    -0.267 OA
HETATM   12  C   UNL     1      -0.191   7.119 -31.532  1.00  0.00     0.037 C 
HETATM   13  C   UNL     1      -0.020   6.365 -30.219  1.00  0.00     0.022 C 
HETATM   14  C   UNL     1      -0.320   4.932 -30.619  1.00  0.00     0.127 C 
HETATM   15  C   UNL     1      -4.417   5.016 -34.821  1.00  0.00     0.033 A 
HETATM   16  C   UNL     1      -5.683   4.608 -34.385  1.00  0.00     0.032 A 
HETATM   17  H   UNL     1      -2.075   5.781 -35.438  1.00  0.00     0.169 HD
ENDROOT
BRANCH   1  18
HETATM   18  N   UNL     1      -7.193   3.939 -32.647  1.00  0.00    -0.327 N 
HETATM   19  C   UNL     1      -8.345   4.320 -33.305  1.00  0.00     0.224 C 
HETATM   20  O   UNL     1      -8.429   5.153 -34.203  1.00  0.00    -0.273 OA
HETATM   21  H   UNL     1      -7.306   3.398 -31.795  1.00  0.00     0.169 HD
BRANCH  19  22
HETATM   22  C   UNL     1      -9.582   3.556 -32.873  1.00  0.00     0.134 C 
BRANCH  22  23
HETATM   23  C   UNL     1      -9.690   2.111 -33.418  1.00  0.00     0.044 C 
HETATM   24  C   UNL     1      -9.492   1.150 -32.200  1.00  0.00     0.032 C 
HETATM   25  C   UNL     1      -9.383  -0.320 -32.596  1.00  0.00     0.002 C 
HETATM   26  C   UNL     1      -8.236  -0.540 -33.572  1.00  0.00     0.000 C 
HETATM   27  C   UNL     1      -8.372   0.355 -34.797  1.00  0.00     0.002 C 
HETATM   28  C   UNL     1      -8.522   1.830 -34.412  1.00  0.00     0.032 C 
BRANCH  23  29
HETATM   29  N   UNL     1     -11.037   1.936 -34.012  1.00  0.00    -0.356 N 
HETATM   30  C   UNL     1     -11.515   2.636 -35.101  1.00  0.00     0.091 A 
HETATM   31  C   UNL     1     -12.770   2.165 -35.417  1.00  0.00     0.019 A 
HETATM   32  C   UNL     1     -13.058   1.117 -34.520  1.00  0.00     0.019 A 
HETATM   33  C   UNL     1     -11.971   0.982 -33.685  1.00  0.00     0.091 A 
ENDBRANCH  23  29
ENDBRANCH  22  23
ENDBRANCH  19  22
ENDBRANCH   1  18
TORSDOF 4
ENDMDL
MODEL 9
REMARK VINA RESULT:      -8.7      2.027      3.435
REMARK  4 active torsions:
REMARK  status: ('A' for Active; 'I' for Inactive)
REMARK    1  A    between atoms: N_3  and  C_4 
REMARK    2  A    between atoms: C_4  and  C_5 
REMARK    3  A    between atoms: C_5  and  C_6 
REMARK       I    between atoms: C_6  and  N_7 
REMARK    4  A    between atoms: N_7  and  C_8 
ROOT
HETATM    1  C   UNL     1      -5.230   5.182 -32.130  1.00  0.00     0.035 A 
HETATM    2  C   UNL     1      -3.868   4.889 -32.187  1.00  0.00     0.049 A 
HETATM    3  C   UNL     1      -2.911   5.776 -31.659  1.00  0.00     0.061 A 
HETATM    4  C   UNL     1      -3.322   6.979 -31.072  1.00  0.00     0.050 A 
HETATM    5  N   UNL     1      -2.497   7.881 -30.377  1.00  0.00    -0.324 N 
HETATM    6  C   UNL     1      -1.399   7.588 -29.607  1.00  0.00     0.245 C 
HETATM    7  O   UNL     1      -0.941   8.480 -28.891  1.00  0.00    -0.271 OA
HETATM    8  C   UNL     1      -0.932   6.134 -29.530  1.00  0.00     0.180 C 
HETATM    9  N   UNL     1      -0.594   5.646 -30.857  1.00  0.00    -0.334 N 
HETATM   10  C   UNL     1      -1.493   5.387 -31.861  1.00  0.00     0.256 C 
HETATM   11  O   UNL     1      -1.171   4.831 -32.907  1.00  0.00    -0.267 OA
HETATM   12  C   UNL     1       0.358   5.957 -28.718  1.00  0.00     0.037 C 
HETATM   13  C   UNL     1       1.100   4.853 -29.461  1.00  0.00     0.022 C 
HETATM   14  C   UNL     1       0.768   5.148 -30.913  1.00  0.00     0.127 C 
HETATM   15  C   UNL     1      -4.678   7.327 -31.140  1.00  0.00     0.033 A 
HETATM   16  C   UNL     1      -5.625   6.431 -31.649  1.00  0.00     0.032 A 
HETATM   17  H   UNL     1      -2.850   8.811 -30.188  1.00  0.00     0.169 HD
ENDROOT
BRANCH   1  18
HETATM   18  N   UNL     1      -6.247   4.255 -32.444  1.00  0.00    -0.327 N 
HETATM   19  C   UNL     1      -6.373   2.971 -31.952  1.00  0.00     0.224 C 
HETATM   20  O   UNL     1      -5.491   2.309 -31.413  1.00  0.00    -0.273 OA
HETATM   21  H   UNL     1      -6.993   4.596 -33.042  1.00  0.00     0.169 HD
BRANCH  19  22
HETATM   22  C   UNL     1      -7.775   2.405 -32.064  1.00  0.00     0.134 C 
BRANCH  22  23
HETATM   23  C   UNL     1      -7.975   1.349 -33.178  1.00  0.00     0.044 C 
HETATM   24  C   UNL     1      -7.521  -0.026 -32.587  1.00  0.00     0.032 C 
HETATM   25  C   UNL     1      -7.476  -1.149 -33.621  1.00  0.00     0.002 C 
HETATM   26  C   UNL     1      -6.550  -0.793 -34.774  1.00  0.00     0.000 C 
HETATM   27  C   UNL     1      -6.944   0.533 -35.412  1.00  0.00     0.002 C 
HETATM   28  C   UNL     1      -7.030   1.660 -34.379  1.00  0.00     0.032 C 
BRANCH  23  29
HETATM   29  N   UNL     1      -9.412   1.318 -33.539  1.00  0.00    -0.356 N 
HETATM   30  C   UNL     1     -10.333   0.423 -33.032  1.00  0.00     0.091 A 
HETATM   31  C   UNL     1     -11.578   0.735 -33.530  1.00  0.00     0.019 A 
HETATM   32  C   UNL     1     -11.427   1.878 -34.339  1.00  0.00     0.019 A 
HETATM   33  C   UNL     1     -10.095   2.229 -34.308  1.00  0.00     0.091 A 
ENDBRANCH  23  29
ENDBRANCH  22  23
ENDBRANCH  19  22
ENDBRANCH   1  18
TORSDOF 4
ENDMDL
MODEL 10
REMARK VINA RESULT:      -8.7      2.370      3.237
REMARK  4 active torsions:
REMARK  status: ('A' for Active; 'I' for Inactive)
REMARK    1  A    between atoms: N_3  and  C_4 
REMARK    2  A    between atoms: C_4  and  C_5 
REMARK    3  A    between atoms: C_5  and  C_6 
REMARK       I    between atoms: C_6  and  N_7 
REMARK    4  A    between atoms: N_7  and  C_8 
ROOT
HETATM    1  C   UNL     1      -5.858   4.350 -29.913  1.00  0.00     0.035 A 
HETATM    2  C   UNL     1      -4.845   4.780 -30.769  1.00  0.00     0.049 A 
HETATM    3  C   UNL     1      -4.066   5.912 -30.463  1.00  0.00     0.061 A 
HETATM    4  C   UNL     1      -4.310   6.630 -29.286  1.00  0.00     0.050 A 
HETATM    5  N   UNL     1      -3.521   7.680 -28.782  1.00  0.00    -0.324 N 
HETATM    6  C   UNL     1      -2.161   7.831 -28.892  1.00  0.00     0.245 C 
HETATM    7  O   UNL     1      -1.617   8.688 -28.193  1.00  0.00    -0.271 OA
HETATM    8  C   UNL     1      -1.379   6.807 -29.716  1.00  0.00     0.180 C 
HETATM    9  N   UNL     1      -1.862   6.795 -31.087  1.00  0.00    -0.334 N 
HETATM   10  C   UNL     1      -3.080   6.313 -31.496  1.00  0.00     0.256 C 
HETATM   11  O   UNL     1      -3.374   6.184 -32.682  1.00  0.00    -0.267 OA
HETATM   12  C   UNL     1       0.112   7.144 -29.839  1.00  0.00     0.037 C 
HETATM   13  C   UNL     1       0.464   6.701 -31.254  1.00  0.00     0.022 C 
HETATM   14  C   UNL     1      -0.792   7.050 -32.033  1.00  0.00     0.127 C 
HETATM   15  C   UNL     1      -5.416   6.273 -28.501  1.00  0.00     0.033 A 
HETATM   16  C   UNL     1      -6.173   5.136 -28.802  1.00  0.00     0.032 A 
HETATM   17  H   UNL     1      -3.906   8.265 -28.051  1.00  0.00     0.169 HD
ENDROOT
BRANCH   1  18
HETATM   18  N   UNL     1      -6.531   3.118 -30.048  1.00  0.00    -0.327 N 
HETATM   19  C   UNL     1      -7.605   2.851 -30.874  1.00  0.00     0.224 C 
HETATM   20  O   UNL     1      -8.346   3.679 -31.394  1.00  0.00    -0.273 OA
HETATM   21  H   UNL     1      -6.141   2.336 -29.531  1.00  0.00     0.169 HD
BRANCH  19  22
HETATM   22  C   UNL     1      -7.795   1.377 -31.178  1.00  0.00     0.134 C 
BRANCH  22  23
HETATM   23  C   UNL     1      -7.040   0.855 -32.425  1.00  0.00     0.044 C 
HETATM   24  C   UNL     1      -7.219   1.930 -33.546  1.00  0.00     0.032 C 
HETATM   25  C   UNL     1      -6.692   1.483 -34.907  1.00  0.00     0.002 C 
HETATM   26  C   UNL     1      -7.369   0.198 -35.361  1.00  0.00     0.000 C 
HETATM   27  C   UNL     1      -7.221  -0.903 -34.320  1.00  0.00     0.002 C 
HETATM   28  C   UNL     1      -7.711  -0.455 -32.940  1.00  0.00     0.032 C 
BRANCH  23  29
HETATM   29  N   UNL     1      -5.609   0.698 -32.071  1.00  0.00    -0.356 N 
HETATM   30  C   UNL     1      -4.603   1.564 -32.449  1.00  0.00     0.091 A 
HETATM   31  C   UNL     1      -3.420   1.146 -31.883  1.00  0.00     0.019 A 
HETATM   32  C   UNL     1      -3.712   0.011 -31.102  1.00  0.00     0.019 A 
HETATM   33  C   UNL     1      -5.064  -0.229 -31.215  1.00  0.00     0.091 A 
ENDBRANCH  23  29
ENDBRANCH  22  23
ENDBRANCH  19  22
ENDBRANCH   1  18
TORSDOF 4
ENDMDL
