MODEL 1
REMARK VINA RESULT:      -8.9      0.000      0.000
REMARK  7 active torsions:
REMARK  status: ('A' for Active; 'I' for Inactive)
REMARK    1  A    between atoms: O_2  and  C_3 
REMARK    2  A    between atoms: C_7  and  C_8 
REMARK    3  A    between atoms: C_8  and  C_9 
REMARK       I    between atoms: C_9  and  N_10 
REMARK    4  A    between atoms: N_10  and  C_11 
REMARK    5  A    between atoms: C_11  and  C_12 
REMARK    6  A    between atoms: C_12  and  N_13 
REMARK    7  A    between atoms: C_12  and  C_19 
ROOT
HETATM    1  C   UNL     1      -4.829   2.854 -31.281  1.00  0.00     0.222 C 
HETATM    2  N   UNL     1      -4.152   3.797 -30.531  1.00  0.00    -0.358 N 
HETATM    3  O   UNL     1      -5.149   3.099 -32.443  1.00  0.00    -0.273 OA
HETATM    4  H   UNL     1      -3.730   3.476 -29.667  1.00  0.00     0.162 HD
ENDROOT
BRANCH   2   5
HETATM    5  C   UNL     1      -3.522   4.947 -31.157  1.00  0.00     0.160 C 
BRANCH   5   6
HETATM    6  C   UNL     1      -1.957   5.024 -31.157  1.00  0.00     0.240 C 
BRANCH   6   7
HETATM    7  N   UNL     1      -1.358   5.092 -32.572  1.00  0.00    -0.061 N 
HETATM    8  H   UNL     1      -0.484   4.555 -32.490  1.00  0.00     0.280 HD
HETATM    9  C   UNL     1      -0.971   6.447 -33.106  1.00  0.00     0.236 C 
HETATM   10  C   UNL     1      -1.897   6.661 -34.283  1.00  0.00     0.029 C 
HETATM   11  C   UNL     1      -2.036   5.269 -34.868  1.00  0.00     0.029 C 
HETATM   12  C   UNL     1      -2.134   4.366 -33.653  1.00  0.00     0.236 C 
ENDBRANCH   6   7
BRANCH   6  13
HETATM   13  C   UNL     1      -1.407   6.169 -30.298  1.00  0.00    -0.004 A 
HETATM   14  C   UNL     1      -0.124   6.082 -29.717  1.00  0.00     0.042 A 
HETATM   15 CL   UNL     1       0.903   4.718 -29.995  1.00  0.00    -0.084 Cl
HETATM   16  C   UNL     1       0.388   7.115 -28.926  1.00  0.00     0.024 A 
HETATM   17  C   UNL     1      -0.366   8.264 -28.702  1.00  0.00     0.002 A 
HETATM   18  C   UNL     1      -1.626   8.382 -29.274  1.00  0.00     0.001 A 
HETATM   19  C   UNL     1      -2.141   7.351 -30.066  1.00  0.00     0.011 A 
ENDBRANCH   6  13
ENDBRANCH   5   6
ENDBRANCH   2   5
BRANCH   1  20
HETATM   20  C   UNL     1      -5.126   1.508 -30.615  1.00  0.00     0.144 C 
BRANCH  20  21
HETATM   21  C   UNL     1      -4.467   0.350 -31.291  1.00  0.00    -0.014 A 
HETATM   22  C   UNL     1      -5.047  -0.542 -32.247  1.00  0.00     0.006 A 
HETATM   23  C   UNL     1      -4.014  -1.357 -32.690  1.00  0.00     0.088 A 
HETATM   24  C   UNL     1      -6.319  -0.701 -32.826  1.00  0.00     0.017 A 
HETATM   25  C   UNL     1      -4.136  -2.309 -33.702  1.00  0.00     0.074 A 
HETATM   26  O   UNL     1      -2.869  -1.069 -32.012  1.00  0.00    -0.321 OA
HETATM   27  C   UNL     1      -5.394  -2.417 -34.304  1.00  0.00     0.070 A 
HETATM   28  C   UNL     1      -6.468  -1.638 -33.857  1.00  0.00     0.038 A 
HETATM   29  C   UNL     1      -3.155  -0.058 -31.153  1.00  0.00     0.151 A 
BRANCH  27  30
HETATM   30  O   UNL     1      -5.705  -3.248 -35.349  1.00  0.00    -0.356 OA
HETATM   31  C   UNL     1      -6.627  -4.299 -35.086  1.00  0.00     0.210 C 
ENDBRANCH  27  30
ENDBRANCH  20  21
ENDBRANCH   1  20
TORSDOF 7
ENDMDL
MODEL 2
REMARK VINA RESULT:      -8.5      2.556      4.434
REMARK  7 active torsions:
REMARK  status: ('A' for Active; 'I' for Inactive)
REMARK    1  A    between atoms: O_2  and  C_3 
REMARK    2  A    between atoms: C_7  and  C_8 
REMARK    3  A    between atoms: C_8  and  C_9 
REMARK       I    between atoms: C_9  and  N_10 
REMARK    4  A    between atoms: N_10  and  C_11 
REMARK    5  A    between atoms: C_11  and  C_12 
REMARK    6  A    between atoms: C_12  and  N_13 
REMARK    7  A    between atoms: C_12  and  C_19 
ROOT
HETATM    1  C   UNL     1      -3.193  -0.049 -31.519  1.00  0.00     0.222 C 
HETATM    2  N   UNL     1      -3.731   1.078 -32.111  1.00  0.00    -0.358 N 
HETATM    3  O   UNL     1      -2.128   0.020 -30.906  1.00  0.00    -0.273 OA
HETATM    4  H   UNL     1      -4.696   1.018 -32.414  1.00  0.00     0.162 HD
ENDROOT
BRANCH   2   5
HETATM    5  C   UNL     1      -3.253   2.408 -31.772  1.00  0.00     0.160 C 
BRANCH   5   6
HETATM    6  C   UNL     1      -3.836   3.628 -32.564  1.00  0.00     0.240 C 
BRANCH   6   7
HETATM    7  N   UNL     1      -5.081   4.238 -31.897  1.00  0.00    -0.061 N 
HETATM    8  H   UNL     1      -5.011   5.239 -32.127  1.00  0.00     0.280 HD
HETATM    9  C   UNL     1      -5.182   4.159 -30.395  1.00  0.00     0.236 C 
HETATM   10  C   UNL     1      -6.389   3.278 -30.150  1.00  0.00     0.029 C 
HETATM   11  C   UNL     1      -7.327   3.661 -31.278  1.00  0.00     0.029 C 
HETATM   12  C   UNL     1      -6.416   3.820 -32.480  1.00  0.00     0.236 C 
ENDBRANCH   6   7
BRANCH   6  13
HETATM   13  C   UNL     1      -2.798   4.722 -32.840  1.00  0.00    -0.004 A 
HETATM   14  C   UNL     1      -2.805   5.429 -34.062  1.00  0.00     0.042 A 
HETATM   15 CL   UNL     1      -4.012   5.139 -35.267  1.00  0.00    -0.084 Cl
HETATM   16  C   UNL     1      -1.860   6.424 -34.332  1.00  0.00     0.024 A 
HETATM   17  C   UNL     1      -0.892   6.743 -33.385  1.00  0.00     0.002 A 
HETATM   18  C   UNL     1      -0.871   6.073 -32.168  1.00  0.00     0.001 A 
HETATM   19  C   UNL     1      -1.814   5.079 -31.895  1.00  0.00     0.011 A 
ENDBRANCH   6  13
ENDBRANCH   5   6
ENDBRANCH   2   5
BRANCH   1  20
HETATM   20  C   UNL     1      -3.989  -1.352 -31.636  1.00  0.00     0.144 C 
BRANCH  20  21
HETATM   21  C   UNL     1      -4.886  -1.397 -32.829  1.00  0.00    -0.014 A 
HETATM   22  C   UNL     1      -6.177  -0.796 -32.968  1.00  0.00     0.006 A 
HETATM   23  C   UNL     1      -6.552  -0.990 -34.291  1.00  0.00     0.088 A 
HETATM   24  C   UNL     1      -7.033  -0.058 -32.132  1.00  0.00     0.017 A 
HETATM   25  C   UNL     1      -7.711  -0.471 -34.868  1.00  0.00     0.074 A 
HETATM   26  O   UNL     1      -5.612  -1.731 -34.938  1.00  0.00    -0.321 OA
HETATM   27  C   UNL     1      -8.525   0.305 -34.037  1.00  0.00     0.070 A 
HETATM   28  C   UNL     1      -8.197   0.489 -32.688  1.00  0.00     0.038 A 
HETATM   29  C   UNL     1      -4.624  -1.995 -34.046  1.00  0.00     0.151 A 
BRANCH  27  30
HETATM   30  O   UNL     1      -9.672   0.947 -34.424  1.00  0.00    -0.356 OA
HETATM   31  C   UNL     1     -10.733   1.000 -33.479  1.00  0.00     0.210 C 
ENDBRANCH  27  30
ENDBRANCH  20  21
ENDBRANCH   1  20
TORSDOF 7
ENDMDL
MODEL 3
REMARK VINA RESULT:      -8.2      3.105      8.855
REMARK  7 active torsions:
REMARK  status: ('A' for Active; 'I' for Inactive)
REMARK    1  A    between atoms: O_2  and  C_3 
REMARK    2  A    between atoms: C_7  and  C_8 
REMARK    3  A    between atoms: C_8  and  C_9 
REMARK       I    between atoms: C_9  and  N_10 
REMARK    4  A    between atoms: N_10  and  C_11 
REMARK    5  A    between atoms: C_11  and  C_12 
REMARK    6  A    between atoms: C_12  and  N_13 
REMARK    7  A    between atoms: C_12  and  C_19 
ROOT
HETATM    1  C   UNL     1      -2.963   4.964 -34.241  1.00  0.00     0.222 C 
HETATM    2  N   UNL     1      -3.343   4.068 -33.260  1.00  0.00    -0.358 N 
HETATM    3  O   UNL     1      -3.708   5.197 -35.192  1.00  0.00    -0.273 OA
HETATM    4  H   UNL     1      -2.800   4.073 -32.404  1.00  0.00     0.162 HD
ENDROOT
BRANCH   2   5
HETATM    5  C   UNL     1      -4.722   3.627 -33.136  1.00  0.00     0.160 C 
BRANCH   5   6
HETATM    6  C   UNL     1      -5.000   2.263 -32.417  1.00  0.00     0.240 C 
BRANCH   6   7
HETATM    7  N   UNL     1      -5.783   2.425 -31.102  1.00  0.00    -0.061 N 
HETATM    8  H   UNL     1      -5.504   1.601 -30.553  1.00  0.00     0.280 HD
HETATM    9  C   UNL     1      -7.288   2.394 -31.173  1.00  0.00     0.236 C 
HETATM   10  C   UNL     1      -7.710   3.781 -30.738  1.00  0.00     0.029 C 
HETATM   11  C   UNL     1      -6.686   4.133 -29.677  1.00  0.00     0.029 C 
HETATM   12  C   UNL     1      -5.379   3.599 -30.233  1.00  0.00     0.236 C 
ENDBRANCH   6   7
BRANCH   6  13
HETATM   13  C   UNL     1      -5.694   1.234 -33.318  1.00  0.00    -0.004 A 
HETATM   14  C   UNL     1      -5.494  -0.149 -33.118  1.00  0.00     0.042 A 
HETATM   15 CL   UNL     1      -4.518  -0.742 -31.820  1.00  0.00    -0.084 Cl
HETATM   16  C   UNL     1      -6.114  -1.098 -33.936  1.00  0.00     0.024 A 
HETATM   17  C   UNL     1      -6.954  -0.690 -34.968  1.00  0.00     0.002 A 
HETATM   18  C   UNL     1      -7.179   0.664 -35.178  1.00  0.00     0.001 A 
HETATM   19  C   UNL     1      -6.562   1.616 -34.361  1.00  0.00     0.011 A 
ENDBRANCH   6  13
ENDBRANCH   5   6
ENDBRANCH   2   5
BRANCH   1  20
HETATM   20  C   UNL     1      -1.609   5.660 -34.072  1.00  0.00     0.144 C 
BRANCH  20  21
HETATM   21  C   UNL     1      -1.530   6.521 -32.854  1.00  0.00    -0.014 A 
HETATM   22  C   UNL     1      -0.894   6.209 -31.611  1.00  0.00     0.006 A 
HETATM   23  C   UNL     1      -0.961   7.364 -30.844  1.00  0.00     0.088 A 
HETATM   24  C   UNL     1      -0.219   5.094 -31.083  1.00  0.00     0.017 A 
HETATM   25  C   UNL     1      -0.371   7.516 -29.589  1.00  0.00     0.074 A 
HETATM   26  O   UNL     1      -1.659   8.326 -31.508  1.00  0.00    -0.321 OA
HETATM   27  C   UNL     1       0.343   6.416 -29.102  1.00  0.00     0.070 A 
HETATM   28  C   UNL     1       0.399   5.222 -29.832  1.00  0.00     0.038 A 
HETATM   29  C   UNL     1      -2.021   7.803 -32.707  1.00  0.00     0.151 A 
BRANCH  27  30
HETATM   30  O   UNL     1       1.039   6.381 -27.922  1.00  0.00    -0.356 OA
HETATM   31  C   UNL     1       1.134   7.598 -27.192  1.00  0.00     0.210 C 
ENDBRANCH  27  30
ENDBRANCH  20  21
ENDBRANCH   1  20
TORSDOF 7
ENDMDL
MODEL 4
REMARK VINA RESULT:      -8.2      3.367      8.425
REMARK  7 active torsions:
REMARK  status: ('A' for Active; 'I' for Inactive)
REMARK    1  A    between atoms: O_2  and  C_3 
REMARK    2  A    between atoms: C_7  and  C_8 
REMARK    3  A    between atoms: C_8  and  C_9 
REMARK       I    between atoms: C_9  and  N_10 
REMARK    4  A    between atoms: N_10  and  C_11 
REMARK    5  A    between atoms: C_11  and  C_12 
REMARK    6  A    between atoms: C_12  and  N_13 
REMARK    7  A    between atoms: C_12  and  C_19 
ROOT
HETATM    1  C   UNL     1      -8.001   3.021 -33.818  1.00  0.00     0.222 C 
HETATM    2  N   UNL     1      -7.116   2.111 -34.365  1.00  0.00    -0.358 N 
HETATM    3  O   UNL     1      -9.069   2.639 -33.341  1.00  0.00    -0.273 OA
HETATM    4  H   UNL     1      -6.176   2.442 -34.546  1.00  0.00     0.162 HD
ENDROOT
BRANCH   2   5
HETATM    5  C   UNL     1      -7.251   0.686 -34.115  1.00  0.00     0.160 C 
BRANCH   5   6
HETATM    6  C   UNL     1      -6.062  -0.059 -33.417  1.00  0.00     0.240 C 
BRANCH   6   7
HETATM    7  N   UNL     1      -6.141  -0.011 -31.882  1.00  0.00    -0.061 N 
HETATM    8  H   UNL     1      -6.027  -0.995 -31.604  1.00  0.00     0.280 HD
HETATM    9  C   UNL     1      -7.433   0.455 -31.260  1.00  0.00     0.236 C 
HETATM   10  C   UNL     1      -7.061   1.737 -30.547  1.00  0.00     0.029 C 
HETATM   11  C   UNL     1      -5.660   1.456 -30.043  1.00  0.00     0.029 C 
HETATM   12  C   UNL     1      -5.001   0.702 -31.183  1.00  0.00     0.236 C 
ENDBRANCH   6   7
BRANCH   6  13
HETATM   13  C   UNL     1      -5.895  -1.508 -33.890  1.00  0.00    -0.004 A 
HETATM   14  C   UNL     1      -4.630  -2.134 -33.859  1.00  0.00     0.042 A 
HETATM   15 CL   UNL     1      -3.236  -1.324 -33.234  1.00  0.00    -0.084 Cl
HETATM   16  C   UNL     1      -4.461  -3.452 -34.293  1.00  0.00     0.024 A 
HETATM   17  C   UNL     1      -5.552  -4.180 -34.761  1.00  0.00     0.002 A 
HETATM   18  C   UNL     1      -6.810  -3.593 -34.789  1.00  0.00     0.001 A 
HETATM   19  C   UNL     1      -6.983  -2.275 -34.354  1.00  0.00     0.011 A 
ENDBRANCH   6  13
ENDBRANCH   5   6
ENDBRANCH   2   5
BRANCH   1  20
HETATM   20  C   UNL     1      -7.579   4.493 -33.809  1.00  0.00     0.144 C 
BRANCH  20  21
HETATM   21  C   UNL     1      -6.713   4.858 -32.648  1.00  0.00    -0.014 A 
HETATM   22  C   UNL     1      -5.343   4.502 -32.441  1.00  0.00     0.006 A 
HETATM   23  C   UNL     1      -4.935   5.184 -31.303  1.00  0.00     0.088 A 
HETATM   24  C   UNL     1      -4.394   3.726 -33.131  1.00  0.00     0.017 A 
HETATM   25  C   UNL     1      -3.631   5.188 -30.807  1.00  0.00     0.074 A 
HETATM   26  O   UNL     1      -5.984   5.867 -30.767  1.00  0.00    -0.321 OA
HETATM   27  C   UNL     1      -2.688   4.454 -31.536  1.00  0.00     0.070 A 
HETATM   28  C   UNL     1      -3.073   3.722 -32.666  1.00  0.00     0.038 A 
HETATM   29  C   UNL     1      -7.058   5.645 -31.566  1.00  0.00     0.151 A 
BRANCH  27  30
HETATM   30  O   UNL     1      -1.351   4.375 -31.250  1.00  0.00    -0.356 OA
HETATM   31  C   UNL     1      -0.504   5.351 -31.844  1.00  0.00     0.210 C 
ENDBRANCH  27  30
ENDBRANCH  20  21
ENDBRANCH   1  20
TORSDOF 7
ENDMDL
MODEL 5
REMARK VINA RESULT:      -8.1      3.062      4.964
REMARK  7 active torsions:
REMARK  status: ('A' for Active; 'I' for Inactive)
REMARK    1  A    between atoms: O_2  and  C_3 
REMARK    2  A    between atoms: C_7  and  C_8 
REMARK    3  A    between atoms: C_8  and  C_9 
REMARK       I    between atoms: C_9  and  N_10 
REMARK    4  A    between atoms: N_10  and  C_11 
REMARK    5  A    between atoms: C_11  and  C_12 
REMARK    6  A    between atoms: C_12  and  N_13 
REMARK    7  A    between atoms: C_12  and  C_19 
ROOT
HETATM    1  C   UNL     1      -3.518   0.640 -31.889  1.00  0.00     0.222 C 
HETATM    2  N   UNL     1      -3.672   1.902 -32.432  1.00  0.00    -0.358 N 
HETATM    3  O   UNL     1      -2.597   0.409 -31.107  1.00  0.00    -0.273 OA
HETATM    4  H   UNL     1      -4.553   2.095 -32.893  1.00  0.00     0.162 HD
ENDROOT
BRANCH   2   5
HETATM    5  C   UNL     1      -2.982   3.051 -31.872  1.00  0.00     0.160 C 
BRANCH   5   6
HETATM    6  C   UNL     1      -3.707   4.441 -31.913  1.00  0.00     0.240 C 
BRANCH   6   7
HETATM    7  N   UNL     1      -3.010   5.455 -32.836  1.00  0.00    -0.061 N 
HETATM    8  H   UNL     1      -3.553   5.398 -33.709  1.00  0.00     0.280 HD
HETATM    9  C   UNL     1      -1.576   5.189 -33.215  1.00  0.00     0.236 C 
HETATM   10  C   UNL     1      -0.809   6.338 -32.595  1.00  0.00     0.029 C 
HETATM   11  C   UNL     1      -1.766   7.506 -32.739  1.00  0.00     0.029 C 
HETATM   12  C   UNL     1      -3.126   6.909 -32.427  1.00  0.00     0.236 C 
ENDBRANCH   6   7
BRANCH   6  13
HETATM   13  C   UNL     1      -5.194   4.338 -32.272  1.00  0.00    -0.004 A 
HETATM   14  C   UNL     1      -6.154   4.032 -31.283  1.00  0.00     0.042 A 
HETATM   15 CL   UNL     1      -5.709   3.824 -29.625  1.00  0.00    -0.084 Cl
HETATM   16  C   UNL     1      -7.513   3.928 -31.597  1.00  0.00     0.024 A 
HETATM   17  C   UNL     1      -7.946   4.133 -32.904  1.00  0.00     0.002 A 
HETATM   18  C   UNL     1      -7.024   4.450 -33.893  1.00  0.00     0.001 A 
HETATM   19  C   UNL     1      -5.666   4.556 -33.583  1.00  0.00     0.011 A 
ENDBRANCH   6  13
ENDBRANCH   5   6
ENDBRANCH   2   5
BRANCH   1  20
HETATM   20  C   UNL     1      -4.547  -0.424 -32.281  1.00  0.00     0.144 C 
BRANCH  20  21
HETATM   21  C   UNL     1      -5.951  -0.053 -31.928  1.00  0.00    -0.014 A 
HETATM   22  C   UNL     1      -6.986   0.372 -32.818  1.00  0.00     0.006 A 
HETATM   23  C   UNL     1      -8.140   0.462 -32.052  1.00  0.00     0.088 A 
HETATM   24  C   UNL     1      -7.079   0.628 -34.198  1.00  0.00     0.017 A 
HETATM   25  C   UNL     1      -9.406   0.756 -32.559  1.00  0.00     0.074 A 
HETATM   26  O   UNL     1      -7.856   0.195 -30.748  1.00  0.00    -0.321 OA
HETATM   27  C   UNL     1      -9.490   0.955 -33.941  1.00  0.00     0.070 A 
HETATM   28  C   UNL     1      -8.340   0.909 -34.739  1.00  0.00     0.038 A 
HETATM   29  C   UNL     1      -6.531  -0.089 -30.675  1.00  0.00     0.151 A 
BRANCH  27  30
HETATM   30  O   UNL     1     -10.643   1.198 -34.640  1.00  0.00    -0.356 OA
HETATM   31  C   UNL     1     -11.326   2.413 -34.357  1.00  0.00     0.210 C 
ENDBRANCH  27  30
ENDBRANCH  20  21
ENDBRANCH   1  20
TORSDOF 7
ENDMDL
MODEL 6
REMARK VINA RESULT:      -8.0      5.265      8.007
REMARK  7 active torsions:
REMARK  status: ('A' for Active; 'I' for Inactive)
REMARK    1  A    between atoms: O_2  and  C_3 
REMARK    2  A    between atoms: C_7  and  C_8 
REMARK    3  A    between atoms: C_8  and  C_9 
REMARK       I    between atoms: C_9  and  N_10 
REMARK    4  A    between atoms: N_10  and  C_11 
REMARK    5  A    between atoms: C_11  and  C_12 
REMARK    6  A    between atoms: C_12  and  N_13 
REMARK    7  A    between atoms: C_12  and  C_19 
ROOT
HETATM    1  C   UNL     1      -7.138   4.818 -33.655  1.00  0.00     0.222 C 
HETATM    2  N   UNL     1      -8.449   4.558 -34.009  1.00  0.00    -0.358 N 
HETATM    3  O   UNL     1      -6.871   5.765 -32.917  1.00  0.00    -0.273 OA
HETATM    4  H   UNL     1      -8.635   3.658 -34.436  1.00  0.00     0.162 HD
ENDROOT
BRANCH   2   5
HETATM    5  C   UNL     1      -9.557   5.163 -33.292  1.00  0.00     0.160 C 
BRANCH   5   6
HETATM    6  C   UNL     1     -10.252   4.327 -32.163  1.00  0.00     0.240 C 
BRANCH   6   7
HETATM    7  N   UNL     1     -11.737   4.684 -31.978  1.00  0.00    -0.061 N 
HETATM    8  H   UNL     1     -12.207   4.152 -32.723  1.00  0.00     0.280 HD
HETATM    9  C   UNL     1     -12.142   6.123 -32.171  1.00  0.00     0.236 C 
HETATM   10  C   UNL     1     -12.626   6.559 -30.804  1.00  0.00     0.029 C 
HETATM   11  C   UNL     1     -13.297   5.311 -30.265  1.00  0.00     0.029 C 
HETATM   12  C   UNL     1     -12.384   4.181 -30.704  1.00  0.00     0.236 C 
ENDBRANCH   6   7
BRANCH   6  13
HETATM   13  C   UNL     1     -10.095   2.813 -32.347  1.00  0.00    -0.004 A 
HETATM   14  C   UNL     1     -10.779   2.138 -33.382  1.00  0.00     0.042 A 
HETATM   15 CL   UNL     1     -11.766   2.990 -34.517  1.00  0.00    -0.084 Cl
HETATM   16  C   UNL     1     -10.651   0.757 -33.557  1.00  0.00     0.024 A 
HETATM   17  C   UNL     1      -9.831   0.017 -32.710  1.00  0.00     0.002 A 
HETATM   18  C   UNL     1      -9.135   0.658 -31.692  1.00  0.00     0.001 A 
HETATM   19  C   UNL     1      -9.260   2.039 -31.514  1.00  0.00     0.011 A 
ENDBRANCH   6  13
ENDBRANCH   5   6
ENDBRANCH   2   5
BRANCH   1  20
HETATM   20  C   UNL     1      -6.063   3.869 -34.192  1.00  0.00     0.144 C 
BRANCH  20  21
HETATM   21  C   UNL     1      -5.952   2.595 -33.420  1.00  0.00    -0.014 A 
HETATM   22  C   UNL     1      -6.339   1.285 -33.846  1.00  0.00     0.006 A 
HETATM   23  C   UNL     1      -5.914   0.415 -32.851  1.00  0.00     0.088 A 
HETATM   24  C   UNL     1      -6.947   0.744 -34.993  1.00  0.00     0.017 A 
HETATM   25  C   UNL     1      -6.013  -0.974 -32.921  1.00  0.00     0.074 A 
HETATM   26  O   UNL     1      -5.366   1.116 -31.821  1.00  0.00    -0.321 OA
HETATM   27  C   UNL     1      -6.570  -1.499 -34.092  1.00  0.00     0.070 A 
HETATM   28  C   UNL     1      -7.045  -0.650 -35.099  1.00  0.00     0.038 A 
HETATM   29  C   UNL     1      -5.416   2.430 -32.158  1.00  0.00     0.151 A 
BRANCH  27  30
HETATM   30  O   UNL     1      -6.704  -2.832 -34.378  1.00  0.00    -0.356 OA
HETATM   31  C   UNL     1      -5.659  -3.440 -35.127  1.00  0.00     0.210 C 
ENDBRANCH  27  30
ENDBRANCH  20  21
ENDBRANCH   1  20
TORSDOF 7
ENDMDL
MODEL 7
REMARK VINA RESULT:      -7.9      2.000      2.650
REMARK  7 active torsions:
REMARK  status: ('A' for Active; 'I' for Inactive)
REMARK    1  A    between atoms: O_2  and  C_3 
REMARK    2  A    between atoms: C_7  and  C_8 
REMARK    3  A    between atoms: C_8  and  C_9 
REMARK       I    between atoms: C_9  and  N_10 
REMARK    4  A    between atoms: N_10  and  C_11 
REMARK    5  A    between atoms: C_11  and  C_12 
REMARK    6  A    between atoms: C_12  and  N_13 
REMARK    7  A    between atoms: C_12  and  C_19 
ROOT
HETATM    1  C   UNL     1      -4.179   2.560 -31.734  1.00  0.00     0.222 C 
HETATM    2  N   UNL     1      -3.581   3.377 -30.793  1.00  0.00    -0.358 N 
HETATM    3  O   UNL     1      -4.609   3.033 -32.784  1.00  0.00    -0.273 OA
HETATM    4  H   UNL     1      -3.061   2.917 -30.055  1.00  0.00     0.162 HD
ENDROOT
BRANCH   2   5
HETATM    5  C   UNL     1      -3.152   4.723 -31.130  1.00  0.00     0.160 C 
BRANCH   5   6
HETATM    6  C   UNL     1      -1.613   5.015 -31.197  1.00  0.00     0.240 C 
BRANCH   6   7
HETATM    7  N   UNL     1      -1.121   5.322 -32.621  1.00  0.00    -0.061 N 
HETATM    8  H   UNL     1      -0.180   4.907 -32.646  1.00  0.00     0.280 HD
HETATM    9  C   UNL     1      -0.951   6.769 -33.008  1.00  0.00     0.236 C 
HETATM   10  C   UNL     1      -1.971   6.983 -34.105  1.00  0.00     0.029 C 
HETATM   11  C   UNL     1      -1.962   5.659 -34.845  1.00  0.00     0.029 C 
HETATM   12  C   UNL     1      -1.861   4.621 -33.743  1.00  0.00     0.236 C 
ENDBRANCH   6   7
BRANCH   6  13
HETATM   13  C   UNL     1      -1.164   6.121 -30.235  1.00  0.00    -0.004 A 
HETATM   14  C   UNL     1       0.083   6.044 -29.580  1.00  0.00     0.042 A 
HETATM   15 CL   UNL     1       1.180   4.740 -29.877  1.00  0.00    -0.084 Cl
HETATM   16  C   UNL     1       0.503   7.042 -28.695  1.00  0.00     0.024 A 
HETATM   17  C   UNL     1      -0.309   8.145 -28.449  1.00  0.00     0.002 A 
HETATM   18  C   UNL     1      -1.536   8.254 -29.092  1.00  0.00     0.001 A 
HETATM   19  C   UNL     1      -1.958   7.258 -29.978  1.00  0.00     0.011 A 
ENDBRANCH   6  13
ENDBRANCH   5   6
ENDBRANCH   2   5
BRANCH   1  20
HETATM   20  C   UNL     1      -4.250   1.062 -31.420  1.00  0.00     0.144 C 
BRANCH  20  21
HETATM   21  C   UNL     1      -5.202   0.315 -32.295  1.00  0.00    -0.014 A 
HETATM   22  C   UNL     1      -6.630   0.297 -32.208  1.00  0.00     0.006 A 
HETATM   23  C   UNL     1      -7.075  -0.418 -33.312  1.00  0.00     0.088 A 
HETATM   24  C   UNL     1      -7.588   0.861 -31.346  1.00  0.00     0.017 A 
HETATM   25  C   UNL     1      -8.416  -0.590 -33.655  1.00  0.00     0.074 A 
HETATM   26  O   UNL     1      -6.013  -0.896 -34.017  1.00  0.00    -0.321 OA
HETATM   27  C   UNL     1      -9.354   0.023 -32.818  1.00  0.00     0.070 A 
HETATM   28  C   UNL     1      -8.943   0.718 -31.674  1.00  0.00     0.038 A 
HETATM   29  C   UNL     1      -4.888  -0.473 -33.385  1.00  0.00     0.151 A 
BRANCH  27  30
HETATM   30  O   UNL     1     -10.711   0.021 -33.011  1.00  0.00    -0.356 OA
HETATM   31  C   UNL     1     -11.258   1.099 -33.760  1.00  0.00     0.210 C 
ENDBRANCH  27  30
ENDBRANCH  20  21
ENDBRANCH   1  20
TORSDOF 7
ENDMDL
MODEL 8
REMARK VINA RESULT:      -7.9     17.002     19.963
REMARK  7 active torsions:
REMARK  status: ('A' for Active; 'I' for Inactive)
REMARK    1  A    between atoms: O_2  and  C_3 
REMARK    2  A    between atoms: C_7  and  C_8 
REMARK    3  A    between atoms: C_8  and  C_9 
REMARK       I    between atoms: C_9  and  N_10 
REMARK    4  A    between atoms: N_10  and  C_11 
REMARK    5  A    between atoms: C_11  and  C_12 
REMARK    6  A    between atoms: C_12  and  N_13 
REMARK    7  A    between atoms: C_12  and  C_19 
ROOT
HETATM    1  C   UNL     1      -3.340 -12.194 -38.194  1.00  0.00     0.222 C 
HETATM    2  N   UNL     1      -3.983 -12.098 -39.414  1.00  0.00    -0.358 N 
HETATM    3  O   UNL     1      -3.991 -12.248 -37.152  1.00  0.00    -0.273 OA
HETATM    4  H   UNL     1      -3.422 -12.270 -40.240  1.00  0.00     0.162 HD
ENDROOT
BRANCH   2   5
HETATM    5  C   UNL     1      -5.403 -12.377 -39.541  1.00  0.00     0.160 C 
BRANCH   5   6
HETATM    6  C   UNL     1      -5.836 -13.805 -40.020  1.00  0.00     0.240 C 
BRANCH   6   7
HETATM    7  N   UNL     1      -7.325 -13.887 -40.397  1.00  0.00    -0.061 N 
HETATM    8  H   UNL     1      -7.309 -14.224 -41.369  1.00  0.00     0.280 HD
HETATM    9  C   UNL     1      -8.117 -12.605 -40.410  1.00  0.00     0.236 C 
HETATM   10  C   UNL     1      -9.142 -12.790 -39.312  1.00  0.00     0.029 C 
HETATM   11  C   UNL     1      -9.475 -14.267 -39.399  1.00  0.00     0.029 C 
HETATM   12  C   UNL     1      -8.137 -14.933 -39.660  1.00  0.00     0.236 C 
ENDBRANCH   6   7
BRANCH   6  13
HETATM   13  C   UNL     1      -4.973 -14.347 -41.166  1.00  0.00    -0.004 A 
HETATM   14  C   UNL     1      -3.871 -15.189 -40.902  1.00  0.00     0.042 A 
HETATM   15 CL   UNL     1      -3.486 -15.696 -39.294  1.00  0.00    -0.084 Cl
HETATM   16  C   UNL     1      -3.071 -15.684 -41.936  1.00  0.00     0.024 A 
HETATM   17  C   UNL     1      -3.355 -15.357 -43.259  1.00  0.00     0.002 A 
HETATM   18  C   UNL     1      -4.442 -14.542 -43.548  1.00  0.00     0.001 A 
HETATM   19  C   UNL     1      -5.245 -14.045 -42.516  1.00  0.00     0.011 A 
ENDBRANCH   6  13
ENDBRANCH   5   6
ENDBRANCH   2   5
BRANCH   1  20
HETATM   20  C   UNL     1      -1.810 -12.260 -38.209  1.00  0.00     0.144 C 
BRANCH  20  21
HETATM   21  C   UNL     1      -1.264 -13.547 -37.686  1.00  0.00    -0.014 A 
HETATM   22  C   UNL     1      -0.276 -14.383 -38.296  1.00  0.00     0.006 A 
HETATM   23  C   UNL     1       0.005 -15.383 -37.375  1.00  0.00     0.088 A 
HETATM   24  C   UNL     1       0.449 -14.361 -39.501  1.00  0.00     0.017 A 
HETATM   25  C   UNL     1       0.990 -16.357 -37.541  1.00  0.00     0.074 A 
HETATM   26  O   UNL     1      -0.798 -15.252 -36.284  1.00  0.00    -0.321 OA
HETATM   27  C   UNL     1       1.738 -16.288 -38.721  1.00  0.00     0.070 A 
HETATM   28  C   UNL     1       1.456 -15.317 -39.690  1.00  0.00     0.038 A 
HETATM   29  C   UNL     1      -1.578 -14.160 -36.489  1.00  0.00     0.151 A 
BRANCH  27  30
HETATM   30  O   UNL     1       2.783 -17.113 -39.048  1.00  0.00    -0.356 OA
HETATM   31  C   UNL     1       2.909 -18.320 -38.307  1.00  0.00     0.210 C 
ENDBRANCH  27  30
ENDBRANCH  20  21
ENDBRANCH   1  20
TORSDOF 7
ENDMDL
MODEL 9
REMARK VINA RESULT:      -7.9      2.922      8.773
REMARK  7 active torsions:
REMARK  status: ('A' for Active; 'I' for Inactive)
REMARK    1  A    between atoms: O_2  and  C_3 
REMARK    2  A    between atoms: C_7  and  C_8 
REMARK    3  A    between atoms: C_8  and  C_9 
REMARK       I    between atoms: C_9  and  N_10 
REMARK    4  A    between atoms: N_10  and  C_11 
REMARK    5  A    between atoms: C_11  and  C_12 
REMARK    6  A    between atoms: C_12  and  N_13 
REMARK    7  A    between atoms: C_12  and  C_19 
ROOT
HETATM    1  C   UNL     1      -5.361   4.752 -33.687  1.00  0.00     0.222 C 
HETATM    2  N   UNL     1      -5.578   3.587 -34.399  1.00  0.00    -0.358 N 
HETATM    3  O   UNL     1      -6.129   5.078 -32.783  1.00  0.00    -0.273 OA
HETATM    4  H   UNL     1      -4.814   3.258 -34.977  1.00  0.00     0.162 HD
ENDROOT
BRANCH   2   5
HETATM    5  C   UNL     1      -6.494   2.569 -33.916  1.00  0.00     0.160 C 
BRANCH   5   6
HETATM    6  C   UNL     1      -5.959   1.524 -32.878  1.00  0.00     0.240 C 
BRANCH   6   7
HETATM    7  N   UNL     1      -6.761   1.515 -31.565  1.00  0.00    -0.061 N 
HETATM    8  H   UNL     1      -6.702   0.536 -31.254  1.00  0.00     0.280 HD
HETATM    9  C   UNL     1      -8.230   1.844 -31.639  1.00  0.00     0.236 C 
HETATM   10  C   UNL     1      -8.363   3.131 -30.853  1.00  0.00     0.029 C 
HETATM   11  C   UNL     1      -7.349   2.957 -29.739  1.00  0.00     0.029 C 
HETATM   12  C   UNL     1      -6.161   2.303 -30.418  1.00  0.00     0.236 C 
ENDBRANCH   6   7
BRANCH   6  13
HETATM   13  C   UNL     1      -5.862   0.102 -33.444  1.00  0.00    -0.004 A 
HETATM   14  C   UNL     1      -4.665  -0.638 -33.332  1.00  0.00     0.042 A 
HETATM   15 CL   UNL     1      -3.285  -0.004 -32.503  1.00  0.00    -0.084 Cl
HETATM   16  C   UNL     1      -4.559  -1.932 -33.850  1.00  0.00     0.024 A 
HETATM   17  C   UNL     1      -5.648  -2.522 -34.485  1.00  0.00     0.002 A 
HETATM   18  C   UNL     1      -6.843  -1.822 -34.596  1.00  0.00     0.001 A 
HETATM   19  C   UNL     1      -6.952  -0.528 -34.079  1.00  0.00     0.011 A 
ENDBRANCH   6  13
ENDBRANCH   5   6
ENDBRANCH   2   5
BRANCH   1  20
HETATM   20  C   UNL     1      -4.127   5.580 -34.053  1.00  0.00     0.144 C 
BRANCH  20  21
HETATM   21  C   UNL     1      -2.970   5.365 -33.132  1.00  0.00    -0.014 A 
HETATM   22  C   UNL     1      -2.378   6.317 -32.244  1.00  0.00     0.006 A 
HETATM   23  C   UNL     1      -1.436   5.619 -31.501  1.00  0.00     0.088 A 
HETATM   24  C   UNL     1      -2.585   7.677 -31.952  1.00  0.00     0.017 A 
HETATM   25  C   UNL     1      -0.697   6.161 -30.450  1.00  0.00     0.074 A 
HETATM   26  O   UNL     1      -1.366   4.329 -31.932  1.00  0.00    -0.321 OA
HETATM   27  C   UNL     1      -0.954   7.500 -30.137  1.00  0.00     0.070 A 
HETATM   28  C   UNL     1      -1.869   8.246 -30.890  1.00  0.00     0.038 A 
HETATM   29  C   UNL     1      -2.273   4.189 -32.931  1.00  0.00     0.151 A 
BRANCH  27  30
HETATM   30  O   UNL     1      -0.377   8.199 -29.109  1.00  0.00    -0.356 OA
HETATM   31  C   UNL     1      -1.235   8.627 -28.058  1.00  0.00     0.210 C 
ENDBRANCH  27  30
ENDBRANCH  20  21
ENDBRANCH   1  20
TORSDOF 7
ENDMDL
MODEL 10
REMARK VINA RESULT:      -7.8      3.173      9.012
REMARK  7 active torsions:
REMARK  status: ('A' for Active; 'I' for Inactive)
REMARK    1  A    between atoms: O_2  and  C_3 
REMARK    2  A    between atoms: C_7  and  C_8 
REMARK    3  A    between atoms: C_8  and  C_9 
REMARK       I    between atoms: C_9  and  N_10 
REMARK    4  A    between atoms: N_10  and  C_11 
REMARK    5  A    between atoms: C_11  and  C_12 
REMARK    6  A    between atoms: C_12  and  N_13 
REMARK    7  A    between atoms: C_12  and  C_19 
ROOT
HETATM    1  C   UNL     1      -2.866   5.224 -34.150  1.00  0.00     0.222 C 
HETATM    2  N   UNL     1      -3.293   4.138 -33.409  1.00  0.00    -0.358 N 
HETATM    3  O   UNL     1      -3.647   5.812 -34.896  1.00  0.00    -0.273 OA
HETATM    4  H   UNL     1      -2.683   3.827 -32.662  1.00  0.00     0.162 HD
ENDROOT
BRANCH   2   5
HETATM    5  C   UNL     1      -4.707   3.855 -33.233  1.00  0.00     0.160 C 
BRANCH   5   6
HETATM    6  C   UNL     1      -5.111   2.577 -32.421  1.00  0.00     0.240 C 
BRANCH   6   7
HETATM    7  N   UNL     1      -6.064   2.883 -31.254  1.00  0.00    -0.061 N 
HETATM    8  H   UNL     1      -5.429   3.077 -30.468  1.00  0.00     0.280 HD
HETATM    9  C   UNL     1      -6.981   1.780 -30.789  1.00  0.00     0.236 C 
HETATM   10  C   UNL     1      -8.370   2.299 -31.094  1.00  0.00     0.029 C 
HETATM   11  C   UNL     1      -8.248   3.786 -30.827  1.00  0.00     0.029 C 
HETATM   12  C   UNL     1      -6.884   4.151 -31.385  1.00  0.00     0.236 C 
ENDBRANCH   6   7
BRANCH   6  13
HETATM   13  C   UNL     1      -5.694   1.463 -33.298  1.00  0.00    -0.004 A 
HETATM   14  C   UNL     1      -5.291   0.121 -33.121  1.00  0.00     0.042 A 
HETATM   15 CL   UNL     1      -4.178  -0.330 -31.877  1.00  0.00    -0.084 Cl
HETATM   16  C   UNL     1      -5.808  -0.905 -33.918  1.00  0.00     0.024 A 
HETATM   17  C   UNL     1      -6.747  -0.618 -34.905  1.00  0.00     0.002 A 
HETATM   18  C   UNL     1      -7.172   0.691 -35.091  1.00  0.00     0.001 A 
HETATM   19  C   UNL     1      -6.657   1.719 -34.296  1.00  0.00     0.011 A 
ENDBRANCH   6  13
ENDBRANCH   5   6
ENDBRANCH   2   5
BRANCH   1  20
HETATM   20  C   UNL     1      -1.411   5.666 -33.973  1.00  0.00     0.144 C 
BRANCH  20  21
HETATM   21  C   UNL     1      -1.046   5.964 -32.556  1.00  0.00    -0.014 A 
HETATM   22  C   UNL     1      -1.385   7.129 -31.798  1.00  0.00     0.006 A 
HETATM   23  C   UNL     1      -0.949   6.886 -30.502  1.00  0.00     0.088 A 
HETATM   24  C   UNL     1      -2.066   8.331 -32.060  1.00  0.00     0.017 A 
HETATM   25  C   UNL     1      -1.171   7.738 -29.420  1.00  0.00     0.074 A 
HETATM   26  O   UNL     1      -0.305   5.689 -30.443  1.00  0.00    -0.321 OA
HETATM   27  C   UNL     1      -1.897   8.904 -29.687  1.00  0.00     0.070 A 
HETATM   28  C   UNL     1      -2.318   9.200 -30.990  1.00  0.00     0.038 A 
HETATM   29  C   UNL     1      -0.343   5.150 -31.688  1.00  0.00     0.151 A 
BRANCH  27  30
HETATM   30  O   UNL     1      -2.267   9.839 -28.757  1.00  0.00    -0.356 OA
HETATM   31  C   UNL     1      -1.313  10.165 -27.754  1.00  0.00     0.210 C 
ENDBRANCH  27  30
ENDBRANCH  20  21
ENDBRANCH   1  20
TORSDOF 7
ENDMDL
