MODEL 1
REMARK VINA RESULT:      -8.8      0.000      0.000
REMARK  4 active torsions:
REMARK  status: ('A' for Active; 'I' for Inactive)
REMARK    1  A    between atoms: C_5  and  C_6 
REMARK    2  A    between atoms: C_6  and  N_7 
REMARK    3  A    between atoms: N_13  and  C_15 
REMARK    4  A    between atoms: C_19  and  C_20 
ROOT
HETATM    1  N   UNL     1      -5.177   4.917 -33.690  1.00  0.00    -0.064 N 
HETATM    2  H   UNL     1      -5.163   5.712 -34.358  1.00  0.00     0.280 HD
HETATM    3  C   UNL     1      -5.763   3.769 -34.455  1.00  0.00     0.236 C 
HETATM    4  C   UNL     1      -6.038   2.575 -33.533  1.00  0.00     0.039 C 
HETATM    5  C   UNL     1      -6.830   2.894 -32.230  1.00  0.00    -0.013 C 
HETATM    6  C   UNL     1      -8.343   3.115 -32.499  1.00  0.00     0.245 C 
HETATM    7  N   UNL     1      -9.060   1.824 -32.815  1.00  0.00    -0.065 N 
HETATM    8  H   UNL     1      -8.664   1.407 -33.668  1.00  0.00     0.280 HD
HETATM    9  C   UNL     1      -8.920   0.786 -31.704  1.00  0.00     0.244 C 
HETATM   10  C   UNL     1      -7.439   0.432 -31.491  1.00  0.00     0.045 C 
HETATM   11  C   UNL     1      -6.673   1.745 -31.186  1.00  0.00     0.022 C 
HETATM   12  C   UNL     1      -6.218   4.175 -31.580  1.00  0.00     0.039 C 
HETATM   13  C   UNL     1      -6.018   5.345 -32.535  1.00  0.00     0.236 C 
ENDROOT
BRANCH   7  14
HETATM   14  C   UNL     1     -10.516   2.073 -33.091  1.00  0.00     0.188 A 
HETATM   15  C   UNL     1     -10.977   1.924 -34.513  1.00  0.00     0.035 A 
HETATM   16  C   UNL     1     -11.350   0.890 -33.489  1.00  0.00     0.035 A 
ENDBRANCH   7  14
BRANCH  10  17
HETATM   17  C   UNL     1      -6.778  -0.432 -32.563  1.00  0.00    -0.052 A 
HETATM   18  C   UNL     1      -7.460  -0.946 -33.679  1.00  0.00     0.007 A 
HETATM   19  C   UNL     1      -6.802  -1.735 -34.628  1.00  0.00     0.001 A 
HETATM   20  C   UNL     1      -5.458  -2.052 -34.468  1.00  0.00     0.000 A 
HETATM   21  C   UNL     1      -4.775  -1.601 -33.347  1.00  0.00     0.001 A 
HETATM   22  C   UNL     1      -5.431  -0.812 -32.400  1.00  0.00     0.007 A 
ENDBRANCH  10  17
BRANCH   1  23
HETATM   23  C   UNL     1      -3.673   4.767 -33.368  1.00  0.00     0.323 C 
BRANCH  23  24
HETATM   24  C   UNL     1      -3.026   6.078 -33.127  1.00  0.00     0.198 A 
HETATM   25  O   UNL     1      -2.345   6.641 -34.156  1.00  0.00    -0.194 OA
HETATM   26  N   UNL     1      -1.820   7.831 -33.663  1.00  0.00    -0.112 NA
HETATM   27  C   UNL     1      -2.234   7.859 -32.389  1.00  0.00     0.152 A 
HETATM   28  C   UNL     1      -1.864   8.944 -31.457  1.00  0.00     0.096 C 
HETATM   29  N   UNL     1      -3.014   6.784 -32.017  1.00  0.00    -0.208 NA
ENDBRANCH  23  24
ENDBRANCH   1  23
TORSDOF 4
ENDMDL
MODEL 2
REMARK VINA RESULT:      -8.3      3.531      7.505
REMARK  4 active torsions:
REMARK  status: ('A' for Active; 'I' for Inactive)
REMARK    1  A    between atoms: C_5  and  C_6 
REMARK    2  A    between atoms: C_6  and  N_7 
REMARK    3  A    between atoms: N_13  and  C_15 
REMARK    4  A    between atoms: C_19  and  C_20 
ROOT
HETATM    1  N   UNL     1      -6.363  -0.641 -34.679  1.00  0.00    -0.064 N 
HETATM    2  H   UNL     1      -5.572  -0.890 -35.303  1.00  0.00     0.280 HD
HETATM    3  C   UNL     1      -7.126   0.419 -35.413  1.00  0.00     0.236 C 
HETATM    4  C   UNL     1      -8.210   1.036 -34.522  1.00  0.00     0.039 C 
HETATM    5  C   UNL     1      -7.744   1.503 -33.111  1.00  0.00    -0.013 C 
HETATM    6  C   UNL     1      -6.944   2.832 -33.164  1.00  0.00     0.245 C 
HETATM    7  N   UNL     1      -7.832   4.020 -33.444  1.00  0.00    -0.065 N 
HETATM    8  H   UNL     1      -8.284   3.907 -34.362  1.00  0.00     0.280 HD
HETATM    9  C   UNL     1      -8.948   4.176 -32.414  1.00  0.00     0.244 C 
HETATM   10  C   UNL     1      -9.854   2.933 -32.418  1.00  0.00     0.045 C 
HETATM   11  C   UNL     1      -8.962   1.693 -32.154  1.00  0.00     0.022 C 
HETATM   12  C   UNL     1      -6.857   0.379 -32.487  1.00  0.00     0.039 C 
HETATM   13  C   UNL     1      -5.762  -0.156 -33.401  1.00  0.00     0.236 C 
ENDROOT
BRANCH   7  14
HETATM   14  C   UNL     1      -7.028   5.288 -33.510  1.00  0.00     0.188 A 
HETATM   15  C   UNL     1      -5.962   5.475 -32.468  1.00  0.00     0.035 A 
HETATM   16  C   UNL     1      -5.580   5.162 -33.887  1.00  0.00     0.035 A 
ENDBRANCH   7  14
BRANCH  10  17
HETATM   17  C   UNL     1     -10.795   2.773 -33.609  1.00  0.00    -0.052 A 
HETATM   18  C   UNL     1     -10.956   3.745 -34.611  1.00  0.00     0.007 A 
HETATM   19  C   UNL     1     -11.837   3.544 -35.680  1.00  0.00     0.001 A 
HETATM   20  C   UNL     1     -12.598   2.383 -35.753  1.00  0.00     0.000 A 
HETATM   21  C   UNL     1     -12.497   1.431 -34.748  1.00  0.00     0.001 A 
HETATM   22  C   UNL     1     -11.617   1.631 -33.682  1.00  0.00     0.007 A 
ENDBRANCH  10  17
BRANCH   1  23
HETATM   23  C   UNL     1      -7.099  -1.995 -34.568  1.00  0.00     0.323 C 
BRANCH  23  24
HETATM   24  C   UNL     1      -6.155  -3.138 -34.553  1.00  0.00     0.198 A 
HETATM   25  O   UNL     1      -6.601  -4.327 -35.027  1.00  0.00    -0.194 OA
HETATM   26  N   UNL     1      -5.547  -5.221 -34.876  1.00  0.00    -0.112 NA
HETATM   27  C   UNL     1      -4.578  -4.480 -34.321  1.00  0.00     0.152 A 
HETATM   28  C   UNL     1      -3.268  -5.044 -33.937  1.00  0.00     0.096 C 
HETATM   29  N   UNL     1      -4.913  -3.157 -34.121  1.00  0.00    -0.208 NA
ENDBRANCH  23  24
ENDBRANCH   1  23
TORSDOF 4
ENDMDL
MODEL 3
REMARK VINA RESULT:      -8.3      3.241      7.506
REMARK  4 active torsions:
REMARK  status: ('A' for Active; 'I' for Inactive)
REMARK    1  A    between atoms: C_5  and  C_6 
REMARK    2  A    between atoms: C_6  and  N_7 
REMARK    3  A    between atoms: N_13  and  C_15 
REMARK    4  A    between atoms: C_19  and  C_20 
ROOT
HETATM    1  N   UNL     1      -4.649  -0.108 -32.352  1.00  0.00    -0.064 N 
HETATM    2  H   UNL     1      -4.538  -0.851 -31.635  1.00  0.00     0.280 HD
HETATM    3  C   UNL     1      -3.979   1.102 -31.775  1.00  0.00     0.236 C 
HETATM    4  C   UNL     1      -4.243   2.343 -32.636  1.00  0.00     0.039 C 
HETATM    5  C   UNL     1      -5.732   2.604 -33.010  1.00  0.00    -0.013 C 
HETATM    6  C   UNL     1      -6.547   3.179 -31.821  1.00  0.00     0.245 C 
HETATM    7  N   UNL     1      -6.195   4.619 -31.534  1.00  0.00    -0.065 N 
HETATM    8  H   UNL     1      -5.201   4.690 -31.276  1.00  0.00     0.280 HD
HETATM    9  C   UNL     1      -6.407   5.529 -32.742  1.00  0.00     0.244 C 
HETATM   10  C   UNL     1      -5.516   5.077 -33.910  1.00  0.00     0.045 C 
HETATM   11  C   UNL     1      -5.841   3.592 -34.213  1.00  0.00     0.022 C 
HETATM   12  C   UNL     1      -6.367   1.257 -33.481  1.00  0.00     0.039 C 
HETATM   13  C   UNL     1      -6.116   0.072 -32.556  1.00  0.00     0.236 C 
ENDROOT
BRANCH   7  14
HETATM   14  C   UNL     1      -6.984   5.142 -30.366  1.00  0.00     0.188 A 
HETATM   15  C   UNL     1      -7.517   4.128 -29.394  1.00  0.00     0.035 A 
HETATM   16  C   UNL     1      -6.363   5.008 -29.005  1.00  0.00     0.035 A 
ENDBRANCH   7  14
BRANCH  10  17
HETATM   17  C   UNL     1      -4.022   5.369 -33.787  1.00  0.00    -0.052 A 
HETATM   18  C   UNL     1      -3.438   5.985 -32.667  1.00  0.00     0.007 A 
HETATM   19  C   UNL     1      -2.062   6.229 -32.611  1.00  0.00     0.001 A 
HETATM   20  C   UNL     1      -1.245   5.892 -33.683  1.00  0.00     0.000 A 
HETATM   21  C   UNL     1      -1.805   5.330 -34.823  1.00  0.00     0.001 A 
HETATM   22  C   UNL     1      -3.178   5.085 -34.879  1.00  0.00     0.007 A 
ENDBRANCH  10  17
BRANCH   1  23
HETATM   23  C   UNL     1      -3.907  -0.735 -33.554  1.00  0.00     0.323 C 
BRANCH  23  24
HETATM   24  C   UNL     1      -4.455  -2.065 -33.910  1.00  0.00     0.198 A 
HETATM   25  O   UNL     1      -3.824  -3.158 -33.413  1.00  0.00    -0.194 OA
HETATM   26  N   UNL     1      -4.510  -4.259 -33.913  1.00  0.00    -0.112 NA
HETATM   27  C   UNL     1      -5.479  -3.716 -34.663  1.00  0.00     0.152 A 
HETATM   28  C   UNL     1      -6.438  -4.533 -35.435  1.00  0.00     0.096 C 
HETATM   29  N   UNL     1      -5.492  -2.336 -34.671  1.00  0.00    -0.208 NA
ENDBRANCH  23  24
ENDBRANCH   1  23
TORSDOF 4
ENDMDL
MODEL 4
REMARK VINA RESULT:      -8.3      1.756      2.150
REMARK  4 active torsions:
REMARK  status: ('A' for Active; 'I' for Inactive)
REMARK    1  A    between atoms: C_5  and  C_6 
REMARK    2  A    between atoms: C_6  and  N_7 
REMARK    3  A    between atoms: N_13  and  C_15 
REMARK    4  A    between atoms: C_19  and  C_20 
ROOT
HETATM    1  N   UNL     1      -6.792   5.409 -32.900  1.00  0.00    -0.064 N 
HETATM    2  H   UNL     1      -6.668   6.268 -33.471  1.00  0.00     0.280 HD
HETATM    3  C   UNL     1      -6.757   4.276 -33.879  1.00  0.00     0.236 C 
HETATM    4  C   UNL     1      -7.136   2.952 -33.204  1.00  0.00     0.039 C 
HETATM    5  C   UNL     1      -8.444   2.973 -32.358  1.00  0.00    -0.013 C 
HETATM    6  C   UNL     1      -9.720   2.959 -33.243  1.00  0.00     0.245 C 
HETATM    7  N   UNL     1      -9.957   1.610 -33.878  1.00  0.00    -0.065 N 
HETATM    8  H   UNL     1      -9.166   1.370 -34.491  1.00  0.00     0.280 HD
HETATM    9  C   UNL     1     -10.078   0.488 -32.849  1.00  0.00     0.244 C 
HETATM   10  C   UNL     1      -8.780   0.373 -32.032  1.00  0.00     0.045 C 
HETATM   11  C   UNL     1      -8.500   1.754 -31.385  1.00  0.00     0.022 C 
HETATM   12  C   UNL     1      -8.435   4.255 -31.466  1.00  0.00     0.039 C 
HETATM   13  C   UNL     1      -8.105   5.547 -32.204  1.00  0.00     0.236 C 
ENDROOT
BRANCH   7  14
HETATM   14  C   UNL     1     -11.185   1.633 -34.744  1.00  0.00     0.188 A 
HETATM   15  C   UNL     1     -12.479   2.014 -34.083  1.00  0.00     0.035 A 
HETATM   16  C   UNL     1     -11.803   2.973 -35.021  1.00  0.00     0.035 A 
ENDBRANCH   7  14
BRANCH  10  17
HETATM   17  C   UNL     1      -7.572  -0.231 -32.744  1.00  0.00    -0.052 A 
HETATM   18  C   UNL     1      -7.607  -0.718 -34.062  1.00  0.00     0.007 A 
HETATM   19  C   UNL     1      -6.467  -1.264 -34.662  1.00  0.00     0.001 A 
HETATM   20  C   UNL     1      -5.278  -1.363 -33.949  1.00  0.00     0.000 A 
HETATM   21  C   UNL     1      -5.231  -0.938 -32.628  1.00  0.00     0.001 A 
HETATM   22  C   UNL     1      -6.368  -0.391 -32.030  1.00  0.00     0.007 A 
ENDBRANCH  10  17
BRANCH   1  23
HETATM   23  C   UNL     1      -5.562   5.486 -31.968  1.00  0.00     0.323 C 
BRANCH  23  24
HETATM   24  C   UNL     1      -4.310   5.123 -32.674  1.00  0.00     0.198 A 
HETATM   25  O   UNL     1      -3.694   3.972 -32.309  1.00  0.00    -0.194 OA
HETATM   26  N   UNL     1      -2.548   3.884 -33.092  1.00  0.00    -0.112 NA
HETATM   27  C   UNL     1      -2.589   4.993 -33.843  1.00  0.00     0.152 A 
HETATM   28  C   UNL     1      -1.526   5.339 -34.807  1.00  0.00     0.096 C 
HETATM   29  N   UNL     1      -3.694   5.790 -33.626  1.00  0.00    -0.208 NA
ENDBRANCH  23  24
ENDBRANCH   1  23
TORSDOF 4
ENDMDL
MODEL 5
REMARK VINA RESULT:      -8.1      1.552      2.053
REMARK  4 active torsions:
REMARK  status: ('A' for Active; 'I' for Inactive)
REMARK    1  A    between atoms: C_5  and  C_6 
REMARK    2  A    between atoms: C_6  and  N_7 
REMARK    3  A    between atoms: N_13  and  C_15 
REMARK    4  A    between atoms: C_19  and  C_20 
ROOT
HETATM    1  N   UNL     1      -5.953   5.185 -31.879  1.00  0.00    -0.064 N 
HETATM    2  H   UNL     1      -5.622   6.092 -32.261  1.00  0.00     0.280 HD
HETATM    3  C   UNL     1      -6.050   4.271 -33.062  1.00  0.00     0.236 C 
HETATM    4  C   UNL     1      -6.726   2.948 -32.684  1.00  0.00     0.039 C 
HETATM    5  C   UNL     1      -8.072   3.072 -31.910  1.00  0.00    -0.013 C 
HETATM    6  C   UNL     1      -9.249   3.480 -32.836  1.00  0.00     0.245 C 
HETATM    7  N   UNL     1      -9.682   2.349 -33.738  1.00  0.00    -0.065 N 
HETATM    8  H   UNL     1      -8.901   2.075 -34.351  1.00  0.00     0.280 HD
HETATM    9  C   UNL     1     -10.097   1.102 -32.961  1.00  0.00     0.244 C 
HETATM   10  C   UNL     1      -8.916   0.578 -32.126  1.00  0.00     0.045 C 
HETATM   11  C   UNL     1      -8.436   1.729 -31.204  1.00  0.00     0.022 C 
HETATM   12  C   UNL     1      -7.897   4.136 -30.780  1.00  0.00     0.039 C 
HETATM   13  C   UNL     1      -7.269   5.450 -31.229  1.00  0.00     0.236 C 
ENDROOT
BRANCH   7  14
HETATM   14  C   UNL     1     -10.807   2.780 -34.636  1.00  0.00     0.188 A 
HETATM   15  C   UNL     1     -11.862   1.757 -34.947  1.00  0.00     0.035 A 
HETATM   16  C   UNL     1     -12.171   2.897 -34.019  1.00  0.00     0.035 A 
ENDBRANCH   7  14
BRANCH  10  17
HETATM   17  C   UNL     1      -7.788  -0.112 -32.889  1.00  0.00    -0.052 A 
HETATM   18  C   UNL     1      -6.575  -0.505 -32.299  1.00  0.00     0.007 A 
HETATM   19  C   UNL     1      -5.575  -1.132 -33.050  1.00  0.00     0.001 A 
HETATM   20  C   UNL     1      -5.753  -1.352 -34.411  1.00  0.00     0.000 A 
HETATM   21  C   UNL     1      -6.920  -0.925 -35.029  1.00  0.00     0.001 A 
HETATM   22  C   UNL     1      -7.919  -0.300 -34.280  1.00  0.00     0.007 A 
ENDBRANCH  10  17
BRANCH   1  23
HETATM   23  C   UNL     1      -4.811   4.837 -30.896  1.00  0.00     0.323 C 
BRANCH  23  24
HETATM   24  C   UNL     1      -3.477   5.106 -31.482  1.00  0.00     0.198 A 
HETATM   25  O   UNL     1      -2.567   4.101 -31.459  1.00  0.00    -0.194 OA
HETATM   26  N   UNL     1      -1.410   4.616 -32.033  1.00  0.00    -0.112 NA
HETATM   27  C   UNL     1      -1.740   5.879 -32.338  1.00  0.00     0.152 A 
HETATM   28  C   UNL     1      -0.782   6.828 -32.937  1.00  0.00     0.096 C 
HETATM   29  N   UNL     1      -3.040   6.221 -32.026  1.00  0.00    -0.208 NA
ENDBRANCH  23  24
ENDBRANCH   1  23
TORSDOF 4
ENDMDL
MODEL 6
REMARK VINA RESULT:      -8.0     16.959     18.825
REMARK  4 active torsions:
REMARK  status: ('A' for Active; 'I' for Inactive)
REMARK    1  A    between atoms: C_5  and  C_6 
REMARK    2  A    between atoms: C_6  and  N_7 
REMARK    3  A    between atoms: N_13  and  C_15 
REMARK    4  A    between atoms: C_19  and  C_20 
ROOT
HETATM    1  N   UNL     1      -3.972 -14.152 -36.395  1.00  0.00    -0.064 N 
HETATM    2  H   UNL     1      -3.480 -14.836 -35.789  1.00  0.00     0.280 HD
HETATM    3  C   UNL     1      -4.975 -14.957 -37.164  1.00  0.00     0.236 C 
HETATM    4  C   UNL     1      -5.640 -14.112 -38.257  1.00  0.00     0.039 C 
HETATM    5  C   UNL     1      -4.672 -13.318 -39.184  1.00  0.00    -0.013 C 
HETATM    6  C   UNL     1      -3.974 -14.231 -40.228  1.00  0.00     0.245 C 
HETATM    7  N   UNL     1      -4.918 -14.674 -41.319  1.00  0.00    -0.065 N 
HETATM    8  H   UNL     1      -5.688 -15.222 -40.911  1.00  0.00     0.280 HD
HETATM    9  C   UNL     1      -5.552 -13.500 -42.061  1.00  0.00     0.244 C 
HETATM   10  C   UNL     1      -6.371 -12.635 -41.087  1.00  0.00     0.045 C 
HETATM   11  C   UNL     1      -5.428 -12.183 -39.942  1.00  0.00     0.022 C 
HETATM   12  C   UNL     1      -3.597 -12.619 -38.292  1.00  0.00     0.039 C 
HETATM   13  C   UNL     1      -2.932 -13.524 -37.261  1.00  0.00     0.236 C 
ENDROOT
BRANCH   7  14
HETATM   14  C   UNL     1      -4.220 -15.572 -42.301  1.00  0.00     0.188 A 
HETATM   15  C   UNL     1      -3.828 -14.968 -43.619  1.00  0.00     0.035 A 
HETATM   16  C   UNL     1      -2.777 -15.278 -42.592  1.00  0.00     0.035 A 
ENDBRANCH   7  14
BRANCH  10  17
HETATM   17  C   UNL     1      -7.697 -13.215 -40.602  1.00  0.00    -0.052 A 
HETATM   18  C   UNL     1      -8.143 -14.510 -40.917  1.00  0.00     0.007 A 
HETATM   19  C   UNL     1      -9.370 -14.987 -40.445  1.00  0.00     0.001 A 
HETATM   20  C   UNL     1     -10.191 -14.172 -39.675  1.00  0.00     0.000 A 
HETATM   21  C   UNL     1      -9.798 -12.870 -39.394  1.00  0.00     0.001 A 
HETATM   22  C   UNL     1      -8.572 -12.394 -39.863  1.00  0.00     0.007 A 
ENDBRANCH  10  17
BRANCH   1  23
HETATM   23  C   UNL     1      -4.589 -13.203 -35.343  1.00  0.00     0.323 C 
BRANCH  23  24
HETATM   24  C   UNL     1      -5.533 -13.910 -34.446  1.00  0.00     0.198 A 
HETATM   25  O   UNL     1      -6.817 -13.474 -34.416  1.00  0.00    -0.194 OA
HETATM   26  N   UNL     1      -7.474 -14.276 -33.489  1.00  0.00    -0.112 NA
HETATM   27  C   UNL     1      -6.517 -15.108 -33.053  1.00  0.00     0.152 A 
HETATM   28  C   UNL     1      -6.762 -16.121 -32.007  1.00  0.00     0.096 C 
HETATM   29  N   UNL     1      -5.285 -14.924 -33.646  1.00  0.00    -0.208 NA
ENDBRANCH  23  24
ENDBRANCH   1  23
TORSDOF 4
ENDMDL
MODEL 7
REMARK VINA RESULT:      -7.7      2.986      8.431
REMARK  4 active torsions:
REMARK  status: ('A' for Active; 'I' for Inactive)
REMARK    1  A    between atoms: C_5  and  C_6 
REMARK    2  A    between atoms: C_6  and  N_7 
REMARK    3  A    between atoms: N_13  and  C_15 
REMARK    4  A    between atoms: C_19  and  C_20 
ROOT
HETATM    1  N   UNL     1      -4.974   3.072 -32.019  1.00  0.00    -0.064 N 
HETATM    2  H   UNL     1      -5.866   2.682 -31.659  1.00  0.00     0.280 HD
HETATM    3  C   UNL     1      -4.364   3.800 -30.861  1.00  0.00     0.236 C 
HETATM    4  C   UNL     1      -3.136   4.605 -31.299  1.00  0.00     0.039 C 
HETATM    5  C   UNL     1      -3.335   5.520 -32.544  1.00  0.00    -0.013 C 
HETATM    6  C   UNL     1      -4.136   6.807 -32.208  1.00  0.00     0.245 C 
HETATM    7  N   UNL     1      -3.319   7.793 -31.409  1.00  0.00    -0.065 N 
HETATM    8  H   UNL     1      -3.045   7.370 -30.511  1.00  0.00     0.280 HD
HETATM    9  C   UNL     1      -2.032   8.205 -32.119  1.00  0.00     0.244 C 
HETATM   10  C   UNL     1      -1.139   6.976 -32.355  1.00  0.00     0.045 C 
HETATM   11  C   UNL     1      -1.961   5.935 -33.158  1.00  0.00     0.022 C 
HETATM   12  C   UNL     1      -4.086   4.703 -33.643  1.00  0.00     0.039 C 
HETATM   13  C   UNL     1      -5.329   3.968 -33.158  1.00  0.00     0.236 C 
ENDROOT
BRANCH   7  14
HETATM   14  C   UNL     1      -4.127   9.018 -31.081  1.00  0.00     0.188 A 
HETATM   15  C   UNL     1      -4.364   9.311 -29.627  1.00  0.00     0.035 A 
HETATM   16  C   UNL     1      -3.407  10.157 -30.419  1.00  0.00     0.035 A 
ENDBRANCH   7  14
BRANCH  10  17
HETATM   17  C   UNL     1      -0.433   6.394 -31.132  1.00  0.00    -0.052 A 
HETATM   18  C   UNL     1       0.342   5.223 -31.164  1.00  0.00     0.007 A 
HETATM   19  C   UNL     1       0.963   4.735 -30.009  1.00  0.00     0.001 A 
HETATM   20  C   UNL     1       0.800   5.390 -28.794  1.00  0.00     0.000 A 
HETATM   21  C   UNL     1      -0.004   6.520 -28.726  1.00  0.00     0.001 A 
HETATM   22  C   UNL     1      -0.624   7.008 -29.878  1.00  0.00     0.007 A 
ENDBRANCH  10  17
BRANCH   1  23
HETATM   23  C   UNL     1      -4.225   1.783 -32.428  1.00  0.00     0.323 C 
BRANCH  23  24
HETATM   24  C   UNL     1      -5.159   0.705 -32.831  1.00  0.00     0.198 A 
HETATM   25  O   UNL     1      -6.392   0.699 -32.268  1.00  0.00    -0.194 OA
HETATM   26  N   UNL     1      -7.047  -0.413 -32.786  1.00  0.00    -0.112 NA
HETATM   27  C   UNL     1      -6.139  -0.965 -33.602  1.00  0.00     0.152 A 
HETATM   28  C   UNL     1      -6.394  -2.217 -34.343  1.00  0.00     0.096 C 
HETATM   29  N   UNL     1      -4.943  -0.280 -33.675  1.00  0.00    -0.208 NA
ENDBRANCH  23  24
ENDBRANCH   1  23
TORSDOF 4
ENDMDL
MODEL 8
REMARK VINA RESULT:      -7.5      3.491      7.136
REMARK  4 active torsions:
REMARK  status: ('A' for Active; 'I' for Inactive)
REMARK    1  A    between atoms: C_5  and  C_6 
REMARK    2  A    between atoms: C_6  and  N_7 
REMARK    3  A    between atoms: N_13  and  C_15 
REMARK    4  A    between atoms: C_19  and  C_20 
ROOT
HETATM    1  N   UNL     1     -11.044   4.577 -33.001  1.00  0.00    -0.064 N 
HETATM    2  H   UNL     1     -11.900   4.762 -32.443  1.00  0.00     0.280 HD
HETATM    3  C   UNL     1     -10.446   3.338 -32.409  1.00  0.00     0.236 C 
HETATM    4  C   UNL     1      -9.059   3.057 -32.999  1.00  0.00     0.039 C 
HETATM    5  C   UNL     1      -8.068   4.259 -33.001  1.00  0.00    -0.013 C 
HETATM    6  C   UNL     1      -7.480   4.540 -31.592  1.00  0.00     0.245 C 
HETATM    7  N   UNL     1      -6.471   3.496 -31.178  1.00  0.00    -0.065 N 
HETATM    8  H   UNL     1      -6.925   2.573 -31.133  1.00  0.00     0.280 HD
HETATM    9  C   UNL     1      -5.311   3.374 -32.163  1.00  0.00     0.244 C 
HETATM   10  C   UNL     1      -5.833   2.963 -33.551  1.00  0.00     0.045 C 
HETATM   11  C   UNL     1      -6.889   4.008 -33.992  1.00  0.00     0.022 C 
HETATM   12  C   UNL     1      -8.825   5.523 -33.518  1.00  0.00     0.039 C 
HETATM   13  C   UNL     1     -10.173   5.780 -32.855  1.00  0.00     0.236 C 
ENDROOT
BRANCH   7  14
HETATM   14  C   UNL     1      -5.935   3.783 -29.803  1.00  0.00     0.188 A 
HETATM   15  C   UNL     1      -5.250   5.104 -29.600  1.00  0.00     0.035 A 
HETATM   16  C   UNL     1      -6.614   4.867 -29.017  1.00  0.00     0.035 A 
ENDBRANCH   7  14
BRANCH  10  17
HETATM   17  C   UNL     1      -6.293   1.516 -33.710  1.00  0.00    -0.052 A 
HETATM   18  C   UNL     1      -6.079   0.519 -32.743  1.00  0.00     0.007 A 
HETATM   19  C   UNL     1      -6.522  -0.792 -32.945  1.00  0.00     0.001 A 
HETATM   20  C   UNL     1      -7.160  -1.143 -34.129  1.00  0.00     0.000 A 
HETATM   21  C   UNL     1      -7.337  -0.189 -35.123  1.00  0.00     0.001 A 
HETATM   22  C   UNL     1      -6.896   1.120 -34.920  1.00  0.00     0.007 A 
ENDBRANCH  10  17
BRANCH   1  23
HETATM   23  C   UNL     1     -11.641   4.385 -34.414  1.00  0.00     0.323 C 
BRANCH  23  24
HETATM   24  C   UNL     1     -12.456   3.151 -34.507  1.00  0.00     0.198 A 
HETATM   25  O   UNL     1     -12.028   2.178 -35.349  1.00  0.00    -0.194 OA
HETATM   26  N   UNL     1     -12.972   1.159 -35.270  1.00  0.00    -0.112 NA
HETATM   27  C   UNL     1     -13.872   1.626 -34.395  1.00  0.00     0.152 A 
HETATM   28  C   UNL     1     -15.094   0.878 -34.036  1.00  0.00     0.096 C 
HETATM   29  N   UNL     1     -13.574   2.869 -33.874  1.00  0.00    -0.208 NA
ENDBRANCH  23  24
ENDBRANCH   1  23
TORSDOF 4
ENDMDL
MODEL 9
REMARK VINA RESULT:      -7.4      2.910      4.917
REMARK  4 active torsions:
REMARK  status: ('A' for Active; 'I' for Inactive)
REMARK    1  A    between atoms: C_5  and  C_6 
REMARK    2  A    between atoms: C_6  and  N_7 
REMARK    3  A    between atoms: N_13  and  C_15 
REMARK    4  A    between atoms: C_19  and  C_20 
ROOT
HETATM    1  N   UNL     1      -5.054   3.512 -30.265  1.00  0.00    -0.064 N 
HETATM    2  H   UNL     1      -4.674   3.451 -29.301  1.00  0.00     0.280 HD
HETATM    3  C   UNL     1      -6.172   2.515 -30.312  1.00  0.00     0.236 C 
HETATM    4  C   UNL     1      -6.699   2.344 -31.742  1.00  0.00     0.039 C 
HETATM    5  C   UNL     1      -5.620   2.086 -32.835  1.00  0.00    -0.013 C 
HETATM    6  C   UNL     1      -5.075   0.633 -32.795  1.00  0.00     0.245 C 
HETATM    7  N   UNL     1      -6.079  -0.366 -33.318  1.00  0.00    -0.065 N 
HETATM    8  H   UNL     1      -6.925  -0.348 -32.731  1.00  0.00     0.280 HD
HETATM    9  C   UNL     1      -6.523  -0.062 -34.747  1.00  0.00     0.244 C 
HETATM   10  C   UNL     1      -7.195   1.320 -34.813  1.00  0.00     0.045 C 
HETATM   11  C   UNL     1      -6.191   2.365 -34.260  1.00  0.00     0.022 C 
HETATM   12  C   UNL     1      -4.447   3.095 -32.619  1.00  0.00     0.039 C 
HETATM   13  C   UNL     1      -3.930   3.181 -31.189  1.00  0.00     0.236 C 
ENDROOT
BRANCH   7  14
HETATM   14  C   UNL     1      -5.532  -1.764 -33.247  1.00  0.00     0.188 A 
HETATM   15  C   UNL     1      -5.699  -2.625 -34.467  1.00  0.00     0.035 A 
HETATM   16  C   UNL     1      -4.345  -2.080 -34.111  1.00  0.00     0.035 A 
ENDBRANCH   7  14
BRANCH  10  17
HETATM   17  C   UNL     1      -8.594   1.433 -34.214  1.00  0.00    -0.052 A 
HETATM   18  C   UNL     1      -9.293   0.348 -33.657  1.00  0.00     0.007 A 
HETATM   19  C   UNL     1     -10.577   0.511 -33.124  1.00  0.00     0.001 A 
HETATM   20  C   UNL     1     -11.200   1.753 -33.163  1.00  0.00     0.000 A 
HETATM   21  C   UNL     1     -10.552   2.829 -33.755  1.00  0.00     0.001 A 
HETATM   22  C   UNL     1      -9.271   2.667 -34.286  1.00  0.00     0.007 A 
ENDBRANCH  10  17
BRANCH   1  23
HETATM   23  C   UNL     1      -5.513   4.987 -30.315  1.00  0.00     0.323 C 
BRANCH  23  24
HETATM   24  C   UNL     1      -5.189   5.710 -29.063  1.00  0.00     0.198 A 
HETATM   25  O   UNL     1      -5.843   5.336 -27.935  1.00  0.00    -0.194 OA
HETATM   26  N   UNL     1      -5.383   6.177 -26.928  1.00  0.00    -0.112 NA
HETATM   27  C   UNL     1      -4.506   6.974 -27.553  1.00  0.00     0.152 A 
HETATM   28  C   UNL     1      -3.796   8.069 -26.864  1.00  0.00     0.096 C 
HETATM   29  N   UNL     1      -4.339   6.699 -28.895  1.00  0.00    -0.208 NA
ENDBRANCH  23  24
ENDBRANCH   1  23
TORSDOF 4
ENDMDL
MODEL 10
REMARK VINA RESULT:      -7.3      2.000      4.297
REMARK  4 active torsions:
REMARK  status: ('A' for Active; 'I' for Inactive)
REMARK    1  A    between atoms: C_5  and  C_6 
REMARK    2  A    between atoms: C_6  and  N_7 
REMARK    3  A    between atoms: N_13  and  C_15 
REMARK    4  A    between atoms: C_19  and  C_20 
ROOT
HETATM    1  N   UNL     1      -4.949   3.681 -30.356  1.00  0.00    -0.064 N 
HETATM    2  H   UNL     1      -4.583   3.672 -29.384  1.00  0.00     0.280 HD
HETATM    3  C   UNL     1      -6.088   2.708 -30.359  1.00  0.00     0.236 C 
HETATM    4  C   UNL     1      -6.600   2.461 -31.783  1.00  0.00     0.039 C 
HETATM    5  C   UNL     1      -5.512   2.113 -32.842  1.00  0.00    -0.013 C 
HETATM    6  C   UNL     1      -5.001   0.653 -32.705  1.00  0.00     0.245 C 
HETATM    7  N   UNL     1      -6.021  -0.354 -33.180  1.00  0.00    -0.065 N 
HETATM    8  H   UNL     1      -6.873  -0.281 -32.608  1.00  0.00     0.280 HD
HETATM    9  C   UNL     1      -6.438  -0.129 -34.631  1.00  0.00     0.244 C 
HETATM   10  C   UNL     1      -7.077   1.261 -34.792  1.00  0.00     0.045 C 
HETATM   11  C   UNL     1      -6.057   2.315 -34.290  1.00  0.00     0.022 C 
HETATM   12  C   UNL     1      -4.320   3.107 -32.671  1.00  0.00     0.039 C 
HETATM   13  C   UNL     1      -3.820   3.270 -31.241  1.00  0.00     0.236 C 
ENDROOT
BRANCH   7  14
HETATM   14  C   UNL     1      -5.506  -1.756 -33.016  1.00  0.00     0.188 A 
HETATM   15  C   UNL     1      -4.888  -2.403 -34.223  1.00  0.00     0.035 A 
HETATM   16  C   UNL     1      -4.019  -1.953 -33.083  1.00  0.00     0.035 A 
ENDBRANCH   7  14
BRANCH  10  17
HETATM   17  C   UNL     1      -8.482   1.441 -34.222  1.00  0.00    -0.052 A 
HETATM   18  C   UNL     1      -9.151   2.675 -34.176  1.00  0.00     0.007 A 
HETATM   19  C   UNL     1     -10.439   2.780 -33.639  1.00  0.00     0.001 A 
HETATM   20  C   UNL     1     -11.072   1.662 -33.110  1.00  0.00     0.000 A 
HETATM   21  C   UNL     1     -10.411   0.441 -33.095  1.00  0.00     0.001 A 
HETATM   22  C   UNL     1      -9.127   0.335 -33.633  1.00  0.00     0.007 A 
ENDBRANCH  10  17
BRANCH   1  23
HETATM   23  C   UNL     1      -5.373   5.160 -30.504  1.00  0.00     0.323 C 
BRANCH  23  24
HETATM   24  C   UNL     1      -4.205   6.056 -30.673  1.00  0.00     0.198 A 
HETATM   25  O   UNL     1      -3.504   6.391 -29.562  1.00  0.00    -0.194 OA
HETATM   26  N   UNL     1      -2.495   7.248 -29.987  1.00  0.00    -0.112 NA
HETATM   27  C   UNL     1      -2.695   7.345 -31.309  1.00  0.00     0.152 A 
HETATM   28  C   UNL     1      -1.867   8.206 -32.177  1.00  0.00     0.096 C 
HETATM   29  N   UNL     1      -3.750   6.593 -31.784  1.00  0.00    -0.208 NA
ENDBRANCH  23  24
ENDBRANCH   1  23
TORSDOF 4
ENDMDL
