MODEL 1
REMARK VINA RESULT:      -8.5      0.000      0.000
REMARK  7 active torsions:
REMARK  status: ('A' for Active; 'I' for Inactive)
REMARK    1  A    between atoms: O_2  and  C_3 
REMARK    2  A    between atoms: C_4  and  C_5 
REMARK    3  A    between atoms: C_5  and  N_6 
REMARK    4  A    between atoms: C_5  and  C_12 
REMARK    5  A    between atoms: C_12  and  N_13 
REMARK       I    between atoms: N_13  and  C_14 
REMARK       I    between atoms: C_14  and  N_15 
REMARK    6  A    between atoms: N_15  and  C_16 
REMARK    7  A    between atoms: C_17  and  O_18 
ROOT
HETATM    1  N   UNL     1      -5.752   2.971 -32.362  1.00  0.00    -0.341 N 
HETATM    2  C   UNL     1      -4.416   2.946 -32.668  1.00  0.00     0.316 C 
HETATM    3  N   UNL     1      -3.960   4.160 -33.079  1.00  0.00    -0.332 N 
HETATM    4  O   UNL     1      -3.707   1.969 -32.471  1.00  0.00    -0.247 OA
HETATM    5  H   UNL     1      -6.286   3.671 -32.861  1.00  0.00     0.164 HD
HETATM    6  H   UNL     1      -4.578   4.711 -33.659  1.00  0.00     0.165 HD
ENDROOT
BRANCH   1   7
HETATM    7  C   UNL     1      -6.447   1.749 -31.977  1.00  0.00     0.162 C 
BRANCH   7   8
HETATM    8  C   UNL     1      -7.061   0.883 -33.131  1.00  0.00     0.241 C 
BRANCH   8   9
HETATM    9  C   UNL     1      -8.580   1.017 -33.273  1.00  0.00     0.007 A 
HETATM   10  C   UNL     1      -9.112   2.208 -33.816  1.00  0.00     0.076 A 
HETATM   11  C   UNL     1     -10.490   2.357 -33.993  1.00  0.00     0.037 A 
HETATM   12  C   UNL     1     -11.357   1.332 -33.620  1.00  0.00     0.003 A 
HETATM   13  C   UNL     1     -10.851   0.153 -33.084  1.00  0.00     0.001 A 
HETATM   14  C   UNL     1      -9.474  -0.008 -32.916  1.00  0.00     0.012 A 
BRANCH  10  15
HETATM   15  O   UNL     1      -8.197   3.149 -34.221  1.00  0.00    -0.355 OA
HETATM   16  C   UNL     1      -8.569   4.505 -33.953  1.00  0.00     0.210 C 
ENDBRANCH  10  15
ENDBRANCH   8   9
BRANCH   8  17
HETATM   17  N   UNL     1      -6.692  -0.607 -33.044  1.00  0.00    -0.061 N 
HETATM   18  H   UNL     1      -7.539  -1.011 -32.617  1.00  0.00     0.280 HD
HETATM   19  C   UNL     1      -5.532  -0.983 -32.170  1.00  0.00     0.236 C 
HETATM   20  C   UNL     1      -4.446  -1.369 -33.150  1.00  0.00     0.029 C 
HETATM   21  C   UNL     1      -5.206  -2.061 -34.264  1.00  0.00     0.029 C 
HETATM   22  C   UNL     1      -6.536  -1.333 -34.360  1.00  0.00     0.236 C 
ENDBRANCH   8  17
ENDBRANCH   7   8
ENDBRANCH   1   7
BRANCH   3  23
HETATM   23  C   UNL     1      -2.556   4.339 -33.406  1.00  0.00     0.149 C 
HETATM   24  C   UNL     1      -2.328   5.097 -34.749  1.00  0.00     0.149 C 
HETATM   25  C   UNL     1      -1.076   5.973 -34.554  1.00  0.00     0.073 C 
HETATM   26  C   UNL     1      -1.041   6.157 -33.065  1.00  0.00    -0.047 A 
HETATM   27  C   UNL     1      -1.867   5.234 -32.415  1.00  0.00    -0.026 A 
HETATM   28  C   UNL     1      -0.273   7.060 -32.348  1.00  0.00     0.008 A 
HETATM   29  C   UNL     1      -1.931   5.194 -31.028  1.00  0.00     0.010 A 
HETATM   30  C   UNL     1      -1.170   6.109 -30.298  1.00  0.00     0.001 A 
HETATM   31  C   UNL     1      -0.347   7.036 -30.954  1.00  0.00     0.001 A 
BRANCH  24  32
HETATM   32  O   UNL     1      -3.451   5.943 -35.063  1.00  0.00    -0.393 OA
HETATM   33  H   UNL     1      -3.667   6.421 -34.243  1.00  0.00     0.210 HD
ENDBRANCH  24  32
ENDBRANCH   3  23
TORSDOF 7
ENDMDL
MODEL 2
REMARK VINA RESULT:      -8.4      2.326      8.602
REMARK  7 active torsions:
REMARK  status: ('A' for Active; 'I' for Inactive)
REMARK    1  A    between atoms: O_2  and  C_3 
REMARK    2  A    between atoms: C_4  and  C_5 
REMARK    3  A    between atoms: C_5  and  N_6 
REMARK    4  A    between atoms: C_5  and  C_12 
REMARK    5  A    between atoms: C_12  and  N_13 
REMARK       I    between atoms: N_13  and  C_14 
REMARK       I    between atoms: C_14  and  N_15 
REMARK    6  A    between atoms: N_15  and  C_16 
REMARK    7  A    between atoms: C_17  and  O_18 
ROOT
HETATM    1  N   UNL     1      -3.367   2.741 -32.106  1.00  0.00    -0.341 N 
HETATM    2  C   UNL     1      -4.500   2.001 -31.886  1.00  0.00     0.316 C 
HETATM    3  N   UNL     1      -4.598   0.945 -32.737  1.00  0.00    -0.332 N 
HETATM    4  O   UNL     1      -5.259   2.210 -30.950  1.00  0.00    -0.247 OA
HETATM    5  H   UNL     1      -3.018   2.705 -33.055  1.00  0.00     0.164 HD
HETATM    6  H   UNL     1      -4.296   1.093 -33.690  1.00  0.00     0.165 HD
ENDROOT
BRANCH   1   7
HETATM    7  C   UNL     1      -3.120   3.961 -31.348  1.00  0.00     0.162 C 
BRANCH   7   8
HETATM    8  C   UNL     1      -2.206   5.045 -32.017  1.00  0.00     0.241 C 
BRANCH   8   9
HETATM    9  C   UNL     1      -1.598   6.047 -31.031  1.00  0.00     0.007 A 
HETATM   10  C   UNL     1      -0.377   5.726 -30.397  1.00  0.00     0.076 A 
HETATM   11  C   UNL     1       0.226   6.627 -29.515  1.00  0.00     0.037 A 
HETATM   12  C   UNL     1      -0.383   7.851 -29.242  1.00  0.00     0.003 A 
HETATM   13  C   UNL     1      -1.585   8.183 -29.857  1.00  0.00     0.001 A 
HETATM   14  C   UNL     1      -2.187   7.292 -30.748  1.00  0.00     0.012 A 
BRANCH  10  15
HETATM   15  O   UNL     1       0.198   4.533 -30.762  1.00  0.00    -0.355 OA
HETATM   16  C   UNL     1       1.625   4.561 -30.869  1.00  0.00     0.210 C 
ENDBRANCH  10  15
ENDBRANCH   8   9
BRANCH   8  17
HETATM   17  N   UNL     1      -2.897   5.813 -33.155  1.00  0.00    -0.061 N 
HETATM   18  H   UNL     1      -2.536   6.768 -33.017  1.00  0.00     0.280 HD
HETATM   19  C   UNL     1      -4.395   5.896 -33.125  1.00  0.00     0.236 C 
HETATM   20  C   UNL     1      -4.834   4.989 -34.252  1.00  0.00     0.029 C 
HETATM   21  C   UNL     1      -3.778   5.211 -35.317  1.00  0.00     0.029 C 
HETATM   22  C   UNL     1      -2.481   5.440 -34.559  1.00  0.00     0.236 C 
ENDBRANCH   8  17
ENDBRANCH   7   8
ENDBRANCH   1   7
BRANCH   3  23
HETATM   23  C   UNL     1      -5.714   0.021 -32.627  1.00  0.00     0.149 C 
HETATM   24  C   UNL     1      -7.007   0.528 -33.333  1.00  0.00     0.149 C 
HETATM   25  C   UNL     1      -7.699  -0.712 -33.931  1.00  0.00     0.073 C 
HETATM   26  C   UNL     1      -6.556  -1.671 -34.092  1.00  0.00    -0.047 A 
HETATM   27  C   UNL     1      -5.439  -1.266 -33.353  1.00  0.00    -0.026 A 
HETATM   28  C   UNL     1      -6.547  -2.854 -34.813  1.00  0.00     0.008 A 
HETATM   29  C   UNL     1      -4.293  -2.048 -33.316  1.00  0.00     0.010 A 
HETATM   30  C   UNL     1      -4.271  -3.237 -34.049  1.00  0.00     0.001 A 
HETATM   31  C   UNL     1      -5.391  -3.635 -34.793  1.00  0.00     0.001 A 
BRANCH  24  32
HETATM   32  O   UNL     1      -6.690   1.450 -34.394  1.00  0.00    -0.393 OA
HETATM   33  H   UNL     1      -5.727   1.580 -34.359  1.00  0.00     0.210 HD
ENDBRANCH  24  32
ENDBRANCH   3  23
TORSDOF 7
ENDMDL
MODEL 3
REMARK VINA RESULT:      -8.2      1.777      4.481
REMARK  7 active torsions:
REMARK  status: ('A' for Active; 'I' for Inactive)
REMARK    1  A    between atoms: O_2  and  C_3 
REMARK    2  A    between atoms: C_4  and  C_5 
REMARK    3  A    between atoms: C_5  and  N_6 
REMARK    4  A    between atoms: C_5  and  C_12 
REMARK    5  A    between atoms: C_12  and  N_13 
REMARK       I    between atoms: N_13  and  C_14 
REMARK       I    between atoms: C_14  and  N_15 
REMARK    6  A    between atoms: N_15  and  C_16 
REMARK    7  A    between atoms: C_17  and  O_18 
ROOT
HETATM    1  N   UNL     1      -5.175   2.315 -32.456  1.00  0.00    -0.341 N 
HETATM    2  C   UNL     1      -4.928   3.659 -32.560  1.00  0.00     0.316 C 
HETATM    3  N   UNL     1      -4.212   4.133 -31.505  1.00  0.00    -0.332 N 
HETATM    4  O   UNL     1      -5.219   4.314 -33.551  1.00  0.00    -0.247 OA
HETATM    5  H   UNL     1      -5.207   1.964 -31.507  1.00  0.00     0.164 HD
HETATM    6  H   UNL     1      -4.427   3.751 -30.594  1.00  0.00     0.165 HD
ENDROOT
BRANCH   1   7
HETATM    7  C   UNL     1      -5.997   1.634 -33.449  1.00  0.00     0.162 C 
BRANCH   7   8
HETATM    8  C   UNL     1      -6.636   0.265 -33.030  1.00  0.00     0.241 C 
BRANCH   8   9
HETATM    9  C   UNL     1      -5.847  -0.963 -33.494  1.00  0.00     0.007 A 
HETATM   10  C   UNL     1      -4.707  -1.359 -32.759  1.00  0.00     0.076 A 
HETATM   11  C   UNL     1      -3.979  -2.492 -33.130  1.00  0.00     0.037 A 
HETATM   12  C   UNL     1      -4.365  -3.237 -34.243  1.00  0.00     0.003 A 
HETATM   13  C   UNL     1      -5.484  -2.862 -34.978  1.00  0.00     0.001 A 
HETATM   14  C   UNL     1      -6.224  -1.737 -34.605  1.00  0.00     0.012 A 
BRANCH  10  15
HETATM   15  O   UNL     1      -4.423  -0.618 -31.638  1.00  0.00    -0.355 OA
HETATM   16  C   UNL     1      -3.030  -0.383 -31.409  1.00  0.00     0.210 C 
ENDBRANCH  10  15
ENDBRANCH   8   9
BRANCH   8  17
HETATM   17  N   UNL     1      -8.104   0.115 -33.463  1.00  0.00    -0.061 N 
HETATM   18  H   UNL     1      -8.146  -0.881 -33.727  1.00  0.00     0.280 HD
HETATM   19  C   UNL     1      -8.561   0.909 -34.650  1.00  0.00     0.236 C 
HETATM   20  C   UNL     1      -9.452   1.977 -34.054  1.00  0.00     0.029 C 
HETATM   21  C   UNL     1     -10.157   1.256 -32.922  1.00  0.00     0.029 C 
HETATM   22  C   UNL     1      -9.138   0.271 -32.373  1.00  0.00     0.236 C 
ENDBRANCH   8  17
ENDBRANCH   7   8
ENDBRANCH   1   7
BRANCH   3  23
HETATM   23  C   UNL     1      -3.817   5.530 -31.461  1.00  0.00     0.149 C 
HETATM   24  C   UNL     1      -4.392   6.295 -30.231  1.00  0.00     0.149 C 
HETATM   25  C   UNL     1      -3.310   7.300 -29.790  1.00  0.00     0.073 C 
HETATM   26  C   UNL     1      -2.054   6.671 -30.317  1.00  0.00    -0.047 A 
HETATM   27  C   UNL     1      -2.334   5.680 -31.263  1.00  0.00    -0.026 A 
HETATM   28  C   UNL     1      -0.749   7.011 -30.001  1.00  0.00     0.008 A 
HETATM   29  C   UNL     1      -1.307   5.015 -31.919  1.00  0.00     0.010 A 
HETATM   30  C   UNL     1       0.012   5.343 -31.598  1.00  0.00     0.001 A 
HETATM   31  C   UNL     1       0.288   6.334 -30.645  1.00  0.00     0.001 A 
BRANCH  24  32
HETATM   32  O   UNL     1      -4.668   5.392 -29.142  1.00  0.00    -0.393 OA
HETATM   33  H   UNL     1      -3.858   5.365 -28.603  1.00  0.00     0.210 HD
ENDBRANCH  24  32
ENDBRANCH   3  23
TORSDOF 7
ENDMDL
MODEL 4
REMARK VINA RESULT:      -8.2      3.104      9.078
REMARK  7 active torsions:
REMARK  status: ('A' for Active; 'I' for Inactive)
REMARK    1  A    between atoms: O_2  and  C_3 
REMARK    2  A    between atoms: C_4  and  C_5 
REMARK    3  A    between atoms: C_5  and  N_6 
REMARK    4  A    between atoms: C_5  and  C_12 
REMARK    5  A    between atoms: C_12  and  N_13 
REMARK       I    between atoms: N_13  and  C_14 
REMARK       I    between atoms: C_14  and  N_15 
REMARK    6  A    between atoms: N_15  and  C_16 
REMARK    7  A    between atoms: C_17  and  O_18 
ROOT
HETATM    1  N   UNL     1      -9.513   2.025 -32.093  1.00  0.00    -0.341 N 
HETATM    2  C   UNL     1     -10.515   2.318 -32.981  1.00  0.00     0.316 C 
HETATM    3  N   UNL     1     -11.532   1.416 -32.924  1.00  0.00    -0.332 N 
HETATM    4  O   UNL     1     -10.532   3.341 -33.651  1.00  0.00    -0.247 OA
HETATM    5  H   UNL     1      -9.428   1.043 -31.861  1.00  0.00     0.164 HD
HETATM    6  H   UNL     1     -11.281   0.448 -32.782  1.00  0.00     0.165 HD
ENDROOT
BRANCH   1   7
HETATM    7  C   UNL     1      -8.297   2.828 -32.056  1.00  0.00     0.162 C 
BRANCH   7   8
HETATM    8  C   UNL     1      -7.295   2.662 -33.250  1.00  0.00     0.241 C 
BRANCH   8   9
HETATM    9  C   UNL     1      -7.012   1.206 -33.632  1.00  0.00     0.007 A 
HETATM   10  C   UNL     1      -6.264   0.400 -32.745  1.00  0.00     0.076 A 
HETATM   11  C   UNL     1      -6.013  -0.942 -33.042  1.00  0.00     0.037 A 
HETATM   12  C   UNL     1      -6.489  -1.496 -34.229  1.00  0.00     0.003 A 
HETATM   13  C   UNL     1      -7.227  -0.718 -35.114  1.00  0.00     0.001 A 
HETATM   14  C   UNL     1      -7.492   0.621 -34.817  1.00  0.00     0.012 A 
BRANCH  10  15
HETATM   15  O   UNL     1      -5.882   0.993 -31.566  1.00  0.00    -0.355 OA
HETATM   16  C   UNL     1      -6.235   0.265 -30.385  1.00  0.00     0.210 C 
ENDBRANCH  10  15
ENDBRANCH   8   9
BRANCH   8  17
HETATM   17  N   UNL     1      -5.961   3.397 -33.039  1.00  0.00    -0.061 N 
HETATM   18  H   UNL     1      -5.323   2.619 -32.815  1.00  0.00     0.280 HD
HETATM   19  C   UNL     1      -5.882   4.375 -31.905  1.00  0.00     0.236 C 
HETATM   20  C   UNL     1      -5.849   5.725 -32.588  1.00  0.00     0.029 C 
HETATM   21  C   UNL     1      -5.022   5.470 -33.833  1.00  0.00     0.029 C 
HETATM   22  C   UNL     1      -5.361   4.052 -34.260  1.00  0.00     0.236 C 
ENDBRANCH   8  17
ENDBRANCH   7   8
ENDBRANCH   1   7
BRANCH   3  23
HETATM   23  C   UNL     1     -12.705   1.587 -33.764  1.00  0.00     0.149 C 
HETATM   24  C   UNL     1     -13.373   0.239 -34.171  1.00  0.00     0.149 C 
HETATM   25  C   UNL     1     -14.893   0.490 -34.202  1.00  0.00     0.073 C 
HETATM   26  C   UNL     1     -15.044   1.657 -33.272  1.00  0.00    -0.047 A 
HETATM   27  C   UNL     1     -13.816   2.282 -33.029  1.00  0.00    -0.026 A 
HETATM   28  C   UNL     1     -16.219   2.151 -32.727  1.00  0.00     0.008 A 
HETATM   29  C   UNL     1     -13.745   3.422 -32.239  1.00  0.00     0.010 A 
HETATM   30  C   UNL     1     -14.923   3.920 -31.677  1.00  0.00     0.001 A 
HETATM   31  C   UNL     1     -16.151   3.287 -31.919  1.00  0.00     0.001 A 
BRANCH  24  32
HETATM   32  O   UNL     1     -13.085  -0.794 -33.208  1.00  0.00    -0.393 OA
HETATM   33  H   UNL     1     -13.539  -0.531 -32.388  1.00  0.00     0.210 HD
ENDBRANCH  24  32
ENDBRANCH   3  23
TORSDOF 7
ENDMDL
MODEL 5
REMARK VINA RESULT:      -8.1      2.269      8.179
REMARK  7 active torsions:
REMARK  status: ('A' for Active; 'I' for Inactive)
REMARK    1  A    between atoms: O_2  and  C_3 
REMARK    2  A    between atoms: C_4  and  C_5 
REMARK    3  A    between atoms: C_5  and  N_6 
REMARK    4  A    between atoms: C_5  and  C_12 
REMARK    5  A    between atoms: C_12  and  N_13 
REMARK       I    between atoms: N_13  and  C_14 
REMARK       I    between atoms: C_14  and  N_15 
REMARK    6  A    between atoms: N_15  and  C_16 
REMARK    7  A    between atoms: C_17  and  O_18 
ROOT
HETATM    1  N   UNL     1      -3.739   2.242 -32.381  1.00  0.00    -0.341 N 
HETATM    2  C   UNL     1      -4.734   1.329 -32.143  1.00  0.00     0.316 C 
HETATM    3  N   UNL     1      -5.021   0.583 -33.243  1.00  0.00    -0.332 N 
HETATM    4  O   UNL     1      -5.210   1.140 -31.032  1.00  0.00    -0.247 OA
HETATM    5  H   UNL     1      -3.668   2.546 -33.344  1.00  0.00     0.164 HD
HETATM    6  H   UNL     1      -5.003   1.054 -34.136  1.00  0.00     0.165 HD
ENDROOT
BRANCH   1   7
HETATM    7  C   UNL     1      -3.342   3.191 -31.349  1.00  0.00     0.162 C 
BRANCH   7   8
HETATM    8  C   UNL     1      -3.840   4.669 -31.507  1.00  0.00     0.241 C 
BRANCH   8   9
HETATM    9  C   UNL     1      -2.754   5.653 -31.950  1.00  0.00     0.007 A 
HETATM   10  C   UNL     1      -2.864   6.268 -33.216  1.00  0.00     0.076 A 
HETATM   11  C   UNL     1      -1.911   7.195 -33.644  1.00  0.00     0.037 A 
HETATM   12  C   UNL     1      -0.828   7.513 -32.825  1.00  0.00     0.003 A 
HETATM   13  C   UNL     1      -0.704   6.917 -31.575  1.00  0.00     0.001 A 
HETATM   14  C   UNL     1      -1.660   5.998 -31.136  1.00  0.00     0.012 A 
BRANCH  10  15
HETATM   15  O   UNL     1      -3.988   5.958 -33.943  1.00  0.00    -0.355 OA
HETATM   16  C   UNL     1      -3.741   5.244 -35.158  1.00  0.00     0.210 C 
ENDBRANCH  10  15
ENDBRANCH   8   9
BRANCH   8  17
HETATM   17  N   UNL     1      -4.539   5.218 -30.252  1.00  0.00    -0.061 N 
HETATM   18  H   UNL     1      -3.741   5.376 -29.618  1.00  0.00     0.280 HD
HETATM   19  C   UNL     1      -5.499   4.312 -29.541  1.00  0.00     0.236 C 
HETATM   20  C   UNL     1      -6.856   4.905 -29.846  1.00  0.00     0.029 C 
HETATM   21  C   UNL     1      -6.599   6.399 -29.836  1.00  0.00     0.029 C 
HETATM   22  C   UNL     1      -5.195   6.571 -30.394  1.00  0.00     0.236 C 
ENDBRANCH   8  17
ENDBRANCH   7   8
ENDBRANCH   1   7
BRANCH   3  23
HETATM   23  C   UNL     1      -6.022  -0.468 -33.170  1.00  0.00     0.149 C 
HETATM   24  C   UNL     1      -7.222  -0.245 -34.138  1.00  0.00     0.149 C 
HETATM   25  C   UNL     1      -7.648  -1.637 -34.643  1.00  0.00     0.073 C 
HETATM   26  C   UNL     1      -6.390  -2.437 -34.476  1.00  0.00    -0.047 A 
HETATM   27  C   UNL     1      -5.475  -1.786 -33.641  1.00  0.00    -0.026 A 
HETATM   28  C   UNL     1      -6.115  -3.690 -34.999  1.00  0.00     0.008 A 
HETATM   29  C   UNL     1      -4.268  -2.387 -33.307  1.00  0.00     0.010 A 
HETATM   30  C   UNL     1      -3.979  -3.645 -33.839  1.00  0.00     0.001 A 
HETATM   31  C   UNL     1      -4.897  -4.291 -34.681  1.00  0.00     0.001 A 
BRANCH  24  32
HETATM   32  O   UNL     1      -6.836   0.568 -35.263  1.00  0.00    -0.393 OA
HETATM   33  H   UNL     1      -7.444   0.334 -35.986  1.00  0.00     0.210 HD
ENDBRANCH  24  32
ENDBRANCH   3  23
TORSDOF 7
ENDMDL
MODEL 6
REMARK VINA RESULT:      -8.0      4.736      7.320
REMARK  7 active torsions:
REMARK  status: ('A' for Active; 'I' for Inactive)
REMARK    1  A    between atoms: O_2  and  C_3 
REMARK    2  A    between atoms: C_4  and  C_5 
REMARK    3  A    between atoms: C_5  and  N_6 
REMARK    4  A    between atoms: C_5  and  C_12 
REMARK    5  A    between atoms: C_12  and  N_13 
REMARK       I    between atoms: N_13  and  C_14 
REMARK       I    between atoms: C_14  and  N_15 
REMARK    6  A    between atoms: N_15  and  C_16 
REMARK    7  A    between atoms: C_17  and  O_18 
ROOT
HETATM    1  N   UNL     1      -9.513   0.142 -33.048  1.00  0.00    -0.341 N 
HETATM    2  C   UNL     1      -8.409   0.011 -33.849  1.00  0.00     0.316 C 
HETATM    3  N   UNL     1      -7.348  -0.517 -33.181  1.00  0.00    -0.332 N 
HETATM    4  O   UNL     1      -8.429   0.236 -35.052  1.00  0.00    -0.247 OA
HETATM    5  H   UNL     1      -9.309   0.260 -32.064  1.00  0.00     0.164 HD
HETATM    6  H   UNL     1      -7.218  -0.226 -32.222  1.00  0.00     0.165 HD
ENDROOT
BRANCH   1   7
HETATM    7  C   UNL     1     -10.729   0.763 -33.559  1.00  0.00     0.162 C 
BRANCH   7   8
HETATM    8  C   UNL     1     -10.909   2.299 -33.302  1.00  0.00     0.241 C 
BRANCH   8   9
HETATM    9  C   UNL     1     -12.301   2.691 -32.798  1.00  0.00     0.007 A 
HETATM   10  C   UNL     1     -12.420   3.762 -31.885  1.00  0.00     0.076 A 
HETATM   11  C   UNL     1     -13.675   4.172 -31.427  1.00  0.00     0.037 A 
HETATM   12  C   UNL     1     -14.825   3.513 -31.859  1.00  0.00     0.003 A 
HETATM   13  C   UNL     1     -14.727   2.457 -32.758  1.00  0.00     0.001 A 
HETATM   14  C   UNL     1     -13.476   2.051 -33.229  1.00  0.00     0.012 A 
BRANCH  10  15
HETATM   15  O   UNL     1     -11.253   4.406 -31.553  1.00  0.00    -0.355 OA
HETATM   16  C   UNL     1     -11.421   5.593 -30.772  1.00  0.00     0.210 C 
ENDBRANCH  10  15
ENDBRANCH   8   9
BRANCH   8  17
HETATM   17  N   UNL     1     -10.546   3.171 -34.516  1.00  0.00    -0.061 N 
HETATM   18  H   UNL     1     -10.335   2.459 -35.232  1.00  0.00     0.280 HD
HETATM   19  C   UNL     1      -9.340   4.054 -34.399  1.00  0.00     0.236 C 
HETATM   20  C   UNL     1      -9.916   5.449 -34.303  1.00  0.00     0.029 C 
HETATM   21  C   UNL     1     -11.112   5.401 -35.233  1.00  0.00     0.029 C 
HETATM   22  C   UNL     1     -11.668   3.992 -35.104  1.00  0.00     0.236 C 
ENDBRANCH   8  17
ENDBRANCH   7   8
ENDBRANCH   1   7
BRANCH   3  23
HETATM   23  C   UNL     1      -6.099  -0.769 -33.879  1.00  0.00     0.149 C 
HETATM   24  C   UNL     1      -4.839  -0.433 -33.027  1.00  0.00     0.149 C 
HETATM   25  C   UNL     1      -3.769  -1.482 -33.386  1.00  0.00     0.073 C 
HETATM   26  C   UNL     1      -4.600  -2.632 -33.876  1.00  0.00    -0.047 A 
HETATM   27  C   UNL     1      -5.910  -2.233 -34.162  1.00  0.00    -0.026 A 
HETATM   28  C   UNL     1      -4.183  -3.935 -34.099  1.00  0.00     0.008 A 
HETATM   29  C   UNL     1      -6.826  -3.135 -34.686  1.00  0.00     0.010 A 
HETATM   30  C   UNL     1      -6.418  -4.453 -34.903  1.00  0.00     0.001 A 
HETATM   31  C   UNL     1      -5.105  -4.849 -34.610  1.00  0.00     0.001 A 
BRANCH  24  32
HETATM   32  O   UNL     1      -5.128  -0.518 -31.618  1.00  0.00    -0.393 OA
HETATM   33  H   UNL     1      -5.694  -1.302 -31.505  1.00  0.00     0.210 HD
ENDBRANCH  24  32
ENDBRANCH   3  23
TORSDOF 7
ENDMDL
MODEL 7
REMARK VINA RESULT:      -8.0      4.701      7.272
REMARK  7 active torsions:
REMARK  status: ('A' for Active; 'I' for Inactive)
REMARK    1  A    between atoms: O_2  and  C_3 
REMARK    2  A    between atoms: C_4  and  C_5 
REMARK    3  A    between atoms: C_5  and  N_6 
REMARK    4  A    between atoms: C_5  and  C_12 
REMARK    5  A    between atoms: C_12  and  N_13 
REMARK       I    between atoms: N_13  and  C_14 
REMARK       I    between atoms: C_14  and  N_15 
REMARK    6  A    between atoms: N_15  and  C_16 
REMARK    7  A    between atoms: C_17  and  O_18 
ROOT
HETATM    1  N   UNL     1      -9.116   0.465 -34.004  1.00  0.00    -0.341 N 
HETATM    2  C   UNL     1      -7.834   0.306 -34.462  1.00  0.00     0.316 C 
HETATM    3  N   UNL     1      -7.122  -0.568 -33.702  1.00  0.00    -0.332 N 
HETATM    4  O   UNL     1      -7.433   0.806 -35.504  1.00  0.00    -0.247 OA
HETATM    5  H   UNL     1      -9.233   0.305 -33.012  1.00  0.00     0.164 HD
HETATM    6  H   UNL     1      -7.278  -0.544 -32.704  1.00  0.00     0.165 HD
ENDROOT
BRANCH   1   7
HETATM    7  C   UNL     1     -10.015   1.422 -34.638  1.00  0.00     0.162 C 
BRANCH   7   8
HETATM    8  C   UNL     1     -10.852   2.351 -33.691  1.00  0.00     0.241 C 
BRANCH   8   9
HETATM    9  C   UNL     1     -10.027   3.040 -32.601  1.00  0.00     0.007 A 
HETATM   10  C   UNL     1      -9.784   4.427 -32.703  1.00  0.00     0.076 A 
HETATM   11  C   UNL     1      -9.063   5.100 -31.712  1.00  0.00     0.037 A 
HETATM   12  C   UNL     1      -8.563   4.399 -30.616  1.00  0.00     0.003 A 
HETATM   13  C   UNL     1      -8.793   3.033 -30.498  1.00  0.00     0.001 A 
HETATM   14  C   UNL     1      -9.524   2.357 -31.479  1.00  0.00     0.012 A 
BRANCH  10  15
HETATM   15  O   UNL     1     -10.360   5.065 -33.775  1.00  0.00    -0.355 OA
HETATM   16  C   UNL     1     -10.329   6.494 -33.713  1.00  0.00     0.210 C 
ENDBRANCH  10  15
ENDBRANCH   8   9
BRANCH   8  17
HETATM   17  N   UNL     1     -12.055   1.644 -33.045  1.00  0.00    -0.061 N 
HETATM   18  H   UNL     1     -11.693   1.428 -32.104  1.00  0.00     0.280 HD
HETATM   19  C   UNL     1     -12.508   0.350 -33.653  1.00  0.00     0.236 C 
HETATM   20  C   UNL     1     -13.816   0.701 -34.326  1.00  0.00     0.029 C 
HETATM   21  C   UNL     1     -14.441   1.707 -33.379  1.00  0.00     0.029 C 
HETATM   22  C   UNL     1     -13.278   2.497 -32.804  1.00  0.00     0.236 C 
ENDBRANCH   8  17
ENDBRANCH   7   8
ENDBRANCH   1   7
BRANCH   3  23
HETATM   23  C   UNL     1      -5.752  -0.897 -34.059  1.00  0.00     0.149 C 
HETATM   24  C   UNL     1      -4.727  -0.578 -32.929  1.00  0.00     0.149 C 
HETATM   25  C   UNL     1      -3.654  -1.682 -32.982  1.00  0.00     0.073 C 
HETATM   26  C   UNL     1      -4.392  -2.816 -33.630  1.00  0.00    -0.047 A 
HETATM   27  C   UNL     1      -5.570  -2.377 -34.245  1.00  0.00    -0.026 A 
HETATM   28  C   UNL     1      -3.996  -4.142 -33.705  1.00  0.00     0.008 A 
HETATM   29  C   UNL     1      -6.370  -3.262 -34.955  1.00  0.00     0.010 A 
HETATM   30  C   UNL     1      -5.985  -4.602 -35.027  1.00  0.00     0.001 A 
HETATM   31  C   UNL     1      -4.806  -5.039 -34.404  1.00  0.00     0.001 A 
BRANCH  24  32
HETATM   32  O   UNL     1      -5.360  -0.596 -31.635  1.00  0.00    -0.393 OA
HETATM   33  H   UNL     1      -4.787  -1.136 -31.062  1.00  0.00     0.210 HD
ENDBRANCH  24  32
ENDBRANCH   3  23
TORSDOF 7
ENDMDL
MODEL 8
REMARK VINA RESULT:      -7.9      2.036      4.460
REMARK  7 active torsions:
REMARK  status: ('A' for Active; 'I' for Inactive)
REMARK    1  A    between atoms: O_2  and  C_3 
REMARK    2  A    between atoms: C_4  and  C_5 
REMARK    3  A    between atoms: C_5  and  N_6 
REMARK    4  A    between atoms: C_5  and  C_12 
REMARK    5  A    between atoms: C_12  and  N_13 
REMARK       I    between atoms: N_13  and  C_14 
REMARK       I    between atoms: C_14  and  N_15 
REMARK    6  A    between atoms: N_15  and  C_16 
REMARK    7  A    between atoms: C_17  and  O_18 
ROOT
HETATM    1  N   UNL     1      -7.380   3.529 -32.785  1.00  0.00    -0.341 N 
HETATM    2  C   UNL     1      -6.784   4.734 -33.048  1.00  0.00     0.316 C 
HETATM    3  N   UNL     1      -5.699   4.955 -32.258  1.00  0.00    -0.332 N 
HETATM    4  O   UNL     1      -7.127   5.459 -33.972  1.00  0.00    -0.247 OA
HETATM    5  H   UNL     1      -7.254   3.193 -31.839  1.00  0.00     0.164 HD
HETATM    6  H   UNL     1      -5.760   4.645 -31.297  1.00  0.00     0.165 HD
ENDROOT
BRANCH   1   7
HETATM    7  C   UNL     1      -8.606   3.143 -33.474  1.00  0.00     0.162 C 
BRANCH   7   8
HETATM    8  C   UNL     1      -9.089   1.662 -33.297  1.00  0.00     0.241 C 
BRANCH   8   9
HETATM    9  C   UNL     1      -8.014   0.613 -33.595  1.00  0.00     0.007 A 
HETATM   10  C   UNL     1      -7.220   0.127 -32.532  1.00  0.00     0.076 A 
HETATM   11  C   UNL     1      -6.250  -0.854 -32.757  1.00  0.00     0.037 A 
HETATM   12  C   UNL     1      -6.048  -1.354 -34.042  1.00  0.00     0.003 A 
HETATM   13  C   UNL     1      -6.821  -0.888 -35.101  1.00  0.00     0.001 A 
HETATM   14  C   UNL     1      -7.800   0.084 -34.880  1.00  0.00     0.012 A 
BRANCH  10  15
HETATM   15  O   UNL     1      -7.517   0.617 -31.284  1.00  0.00    -0.355 OA
HETATM   16  C   UNL     1      -6.380   0.939 -30.477  1.00  0.00     0.210 C 
ENDBRANCH  10  15
ENDBRANCH   8   9
BRANCH   8  17
HETATM   17  N   UNL     1     -10.357   1.329 -34.100  1.00  0.00    -0.061 N 
HETATM   18  H   UNL     1      -9.971   0.792 -34.892  1.00  0.00     0.280 HD
HETATM   19  C   UNL     1     -11.131   2.476 -34.678  1.00  0.00     0.236 C 
HETATM   20  C   UNL     1     -12.385   2.533 -33.834  1.00  0.00     0.029 C 
HETATM   21  C   UNL     1     -12.692   1.074 -33.559  1.00  0.00     0.029 C 
HETATM   22  C   UNL     1     -11.339   0.392 -33.438  1.00  0.00     0.236 C 
ENDBRANCH   8  17
ENDBRANCH   7   8
ENDBRANCH   1   7
BRANCH   3  23
HETATM   23  C   UNL     1      -4.911   6.164 -32.421  1.00  0.00     0.149 C 
HETATM   24  C   UNL     1      -4.334   6.710 -31.080  1.00  0.00     0.149 C 
HETATM   25  C   UNL     1      -2.944   7.291 -31.402  1.00  0.00     0.073 C 
HETATM   26  C   UNL     1      -2.560   6.538 -32.642  1.00  0.00    -0.047 A 
HETATM   27  C   UNL     1      -3.666   5.909 -33.223  1.00  0.00    -0.026 A 
HETATM   28  C   UNL     1      -1.308   6.473 -33.232  1.00  0.00     0.008 A 
HETATM   29  C   UNL     1      -3.538   5.208 -34.415  1.00  0.00     0.010 A 
HETATM   30  C   UNL     1      -2.277   5.128 -35.010  1.00  0.00     0.001 A 
HETATM   31  C   UNL     1      -1.170   5.756 -34.421  1.00  0.00     0.001 A 
BRANCH  24  32
HETATM   32  O   UNL     1      -4.190   5.654 -30.110  1.00  0.00    -0.393 OA
HETATM   33  H   UNL     1      -3.324   5.245 -30.284  1.00  0.00     0.210 HD
ENDBRANCH  24  32
ENDBRANCH   3  23
TORSDOF 7
ENDMDL
MODEL 9
REMARK VINA RESULT:      -7.9      2.356      8.123
REMARK  7 active torsions:
REMARK  status: ('A' for Active; 'I' for Inactive)
REMARK    1  A    between atoms: O_2  and  C_3 
REMARK    2  A    between atoms: C_4  and  C_5 
REMARK    3  A    between atoms: C_5  and  N_6 
REMARK    4  A    between atoms: C_5  and  C_12 
REMARK    5  A    between atoms: C_12  and  N_13 
REMARK       I    between atoms: N_13  and  C_14 
REMARK       I    between atoms: C_14  and  N_15 
REMARK    6  A    between atoms: N_15  and  C_16 
REMARK    7  A    between atoms: C_17  and  O_18 
ROOT
HETATM    1  N   UNL     1      -4.565   2.945 -31.481  1.00  0.00    -0.341 N 
HETATM    2  C   UNL     1      -5.589   2.055 -31.681  1.00  0.00     0.316 C 
HETATM    3  N   UNL     1      -5.220   1.016 -32.477  1.00  0.00    -0.332 N 
HETATM    4  O   UNL     1      -6.664   2.139 -31.104  1.00  0.00    -0.247 OA
HETATM    5  H   UNL     1      -3.884   2.979 -32.229  1.00  0.00     0.164 HD
HETATM    6  H   UNL     1      -4.605   1.226 -33.251  1.00  0.00     0.165 HD
ENDROOT
BRANCH   1   7
HETATM    7  C   UNL     1      -4.784   4.168 -30.720  1.00  0.00     0.162 C 
BRANCH   7   8
HETATM    8  C   UNL     1      -4.566   5.526 -31.472  1.00  0.00     0.241 C 
BRANCH   8   9
HETATM    9  C   UNL     1      -3.632   5.429 -32.682  1.00  0.00     0.007 A 
HETATM   10  C   UNL     1      -2.245   5.271 -32.464  1.00  0.00     0.076 A 
HETATM   11  C   UNL     1      -1.364   5.145 -33.541  1.00  0.00     0.037 A 
HETATM   12  C   UNL     1      -1.847   5.190 -34.847  1.00  0.00     0.003 A 
HETATM   13  C   UNL     1      -3.209   5.345 -35.081  1.00  0.00     0.001 A 
HETATM   14  C   UNL     1      -4.097   5.459 -34.009  1.00  0.00     0.012 A 
BRANCH  10  15
HETATM   15  O   UNL     1      -1.848   5.170 -31.152  1.00  0.00    -0.355 OA
HETATM   16  C   UNL     1      -0.439   5.307 -30.938  1.00  0.00     0.210 C 
ENDBRANCH  10  15
ENDBRANCH   8   9
BRANCH   8  17
HETATM   17  N   UNL     1      -4.090   6.666 -30.556  1.00  0.00    -0.061 N 
HETATM   18  H   UNL     1      -3.066   6.546 -30.584  1.00  0.00     0.280 HD
HETATM   19  C   UNL     1      -4.503   6.615 -29.115  1.00  0.00     0.236 C 
HETATM   20  C   UNL     1      -5.525   7.723 -28.989  1.00  0.00     0.029 C 
HETATM   21  C   UNL     1      -4.987   8.806 -29.903  1.00  0.00     0.029 C 
HETATM   22  C   UNL     1      -4.330   8.069 -31.060  1.00  0.00     0.236 C 
ENDBRANCH   8  17
ENDBRANCH   7   8
ENDBRANCH   1   7
BRANCH   3  23
HETATM   23  C   UNL     1      -6.162  -0.051 -32.766  1.00  0.00     0.149 C 
HETATM   24  C   UNL     1      -7.139   0.289 -33.931  1.00  0.00     0.149 C 
HETATM   25  C   UNL     1      -7.381  -1.023 -34.702  1.00  0.00     0.073 C 
HETATM   26  C   UNL     1      -6.150  -1.818 -34.378  1.00  0.00    -0.047 A 
HETATM   27  C   UNL     1      -5.465  -1.278 -33.283  1.00  0.00    -0.026 A 
HETATM   28  C   UNL     1      -5.712  -2.978 -34.996  1.00  0.00     0.008 A 
HETATM   29  C   UNL     1      -4.329  -1.900 -32.783  1.00  0.00     0.010 A 
HETATM   30  C   UNL     1      -3.874  -3.063 -33.406  1.00  0.00     0.001 A 
HETATM   31  C   UNL     1      -4.561  -3.597 -34.506  1.00  0.00     0.001 A 
BRANCH  24  32
HETATM   32  O   UNL     1      -6.562   1.261 -34.825  1.00  0.00    -0.393 OA
HETATM   33  H   UNL     1      -7.166   2.024 -34.819  1.00  0.00     0.210 HD
ENDBRANCH  24  32
ENDBRANCH   3  23
TORSDOF 7
ENDMDL
MODEL 10
REMARK VINA RESULT:      -7.8      4.228      6.998
REMARK  7 active torsions:
REMARK  status: ('A' for Active; 'I' for Inactive)
REMARK    1  A    between atoms: O_2  and  C_3 
REMARK    2  A    between atoms: C_4  and  C_5 
REMARK    3  A    between atoms: C_5  and  N_6 
REMARK    4  A    between atoms: C_5  and  C_12 
REMARK    5  A    between atoms: C_12  and  N_13 
REMARK       I    between atoms: N_13  and  C_14 
REMARK       I    between atoms: C_14  and  N_15 
REMARK    6  A    between atoms: N_15  and  C_16 
REMARK    7  A    between atoms: C_17  and  O_18 
ROOT
HETATM    1  N   UNL     1      -9.151   1.642 -31.626  1.00  0.00    -0.341 N 
HETATM    2  C   UNL     1      -8.024   1.667 -32.405  1.00  0.00     0.316 C 
HETATM    3  N   UNL     1      -7.389   0.464 -32.430  1.00  0.00    -0.332 N 
HETATM    4  O   UNL     1      -7.710   2.631 -33.089  1.00  0.00    -0.247 OA
HETATM    5  H   UNL     1      -9.130   0.963 -30.875  1.00  0.00     0.164 HD
HETATM    6  H   UNL     1      -7.368  -0.062 -31.567  1.00  0.00     0.165 HD
ENDROOT
BRANCH   1   7
HETATM    7  C   UNL     1      -9.928   2.855 -31.408  1.00  0.00     0.162 C 
BRANCH   7   8
HETATM    8  C   UNL     1     -11.022   3.205 -32.476  1.00  0.00     0.241 C 
BRANCH   8   9
HETATM    9  C   UNL     1     -12.091   4.182 -31.980  1.00  0.00     0.007 A 
HETATM   10  C   UNL     1     -12.567   5.179 -32.860  1.00  0.00     0.076 A 
HETATM   11  C   UNL     1     -13.566   6.069 -32.457  1.00  0.00     0.037 A 
HETATM   12  C   UNL     1     -14.093   5.990 -31.169  1.00  0.00     0.003 A 
HETATM   13  C   UNL     1     -13.637   5.015 -30.289  1.00  0.00     0.001 A 
HETATM   14  C   UNL     1     -12.648   4.114 -30.690  1.00  0.00     0.012 A 
BRANCH  10  15
HETATM   15  O   UNL     1     -12.050   5.158 -34.133  1.00  0.00    -0.355 OA
HETATM   16  C   UNL     1     -12.995   5.435 -35.171  1.00  0.00     0.210 C 
ENDBRANCH  10  15
ENDBRANCH   8   9
BRANCH   8  17
HETATM   17  N   UNL     1     -11.708   1.968 -33.079  1.00  0.00    -0.061 N 
HETATM   18  H   UNL     1     -11.474   1.239 -32.389  1.00  0.00     0.280 HD
HETATM   19  C   UNL     1     -11.222   1.489 -34.415  1.00  0.00     0.236 C 
HETATM   20  C   UNL     1     -12.342   1.853 -35.364  1.00  0.00     0.029 C 
HETATM   21  C   UNL     1     -13.593   1.617 -34.540  1.00  0.00     0.029 C 
HETATM   22  C   UNL     1     -13.218   1.996 -33.117  1.00  0.00     0.236 C 
ENDBRANCH   8  17
ENDBRANCH   7   8
ENDBRANCH   1   7
BRANCH   3  23
HETATM   23  C   UNL     1      -6.196   0.286 -33.239  1.00  0.00     0.149 C 
HETATM   24  C   UNL     1      -4.873   0.441 -32.430  1.00  0.00     0.149 C 
HETATM   25  C   UNL     1      -3.873  -0.571 -33.020  1.00  0.00     0.073 C 
HETATM   26  C   UNL     1      -4.779  -1.601 -33.628  1.00  0.00    -0.047 A 
HETATM   27  C   UNL     1      -6.086  -1.119 -33.761  1.00  0.00    -0.026 A 
HETATM   28  C   UNL     1      -4.433  -2.864 -34.080  1.00  0.00     0.008 A 
HETATM   29  C   UNL     1      -7.070  -1.896 -34.358  1.00  0.00     0.010 A 
HETATM   30  C   UNL     1      -6.732  -3.174 -34.806  1.00  0.00     0.001 A 
HETATM   31  C   UNL     1      -5.422  -3.655 -34.666  1.00  0.00     0.001 A 
BRANCH  24  32
HETATM   32  O   UNL     1      -5.080   0.142 -31.036  1.00  0.00    -0.393 OA
HETATM   33  H   UNL     1      -4.467  -0.583 -30.822  1.00  0.00     0.210 HD
ENDBRANCH  24  32
ENDBRANCH   3  23
TORSDOF 7
ENDMDL
