MODEL 1
REMARK VINA RESULT:     -10.2      0.000      0.000
REMARK  8 active torsions:
REMARK  status: ('A' for Active; 'I' for Inactive)
REMARK    1  A    between atoms: C_2  and  C_3 
REMARK    2  A    between atoms: C_6  and  C_7 
REMARK    3  A    between atoms: C_8  and  C_9 
REMARK       I    between atoms: C_9  and  N_10 
REMARK    4  A    between atoms: N_10  and  C_11 
REMARK    5  A    between atoms: C_11  and  N_12 
REMARK    6  A    between atoms: N_12  and  C_13 
REMARK    7  A    between atoms: C_16  and  N_17 
REMARK       I    between atoms: N_20  and  C_21 
REMARK    8  A    between atoms: C_21  and  C_22 
ROOT
HETATM    1  C   UNL     1      -6.925   4.909 -33.538  1.00  0.00     0.034 A 
HETATM    2  C   UNL     1      -5.827   4.377 -34.203  1.00  0.00     0.032 A 
HETATM    3  C   UNL     1      -4.544   4.895 -33.971  1.00  0.00     0.031 A 
HETATM    4  C   UNL     1      -4.306   5.951 -33.075  1.00  0.00     0.030 A 
HETATM    5  C   UNL     1      -5.446   6.524 -32.492  1.00  0.00     0.031 A 
HETATM    6  C   UNL     1      -6.734   6.018 -32.719  1.00  0.00     0.032 A 
ENDROOT
BRANCH   1   7
HETATM    7  N   UNL     1      -8.243   4.428 -33.677  1.00  0.00    -0.333 N 
HETATM    8  H   UNL     1      -8.666   4.628 -34.579  1.00  0.00     0.168 HD
BRANCH   7   9
HETATM    9  C   UNL     1      -8.905   3.483 -32.973  1.00  0.00     0.179 C 
HETATM   10  S   UNL     1      -8.428   3.181 -31.398  1.00  0.00    -0.040 SA
BRANCH   9  11
HETATM   11  N   UNL     1      -9.914   2.725 -33.503  1.00  0.00    -0.300 N 
HETATM   12  C   UNL     1     -10.076   1.436 -33.985  1.00  0.00     0.247 C 
HETATM   13  O   UNL     1     -11.074   1.159 -34.649  1.00  0.00    -0.268 OA
HETATM   14  H   UNL     1     -10.793   3.224 -33.547  1.00  0.00     0.171 HD
BRANCH  12  15
HETATM   15  C   UNL     1      -9.052   0.418 -33.647  1.00  0.00     0.075 C 
HETATM   16  C   UNL     1      -8.046   0.206 -34.510  1.00  0.00     0.017 C 
BRANCH  16  17
HETATM   17  C   UNL     1      -6.933  -0.738 -34.327  1.00  0.00    -0.036 A 
HETATM   18  C   UNL     1      -5.853  -0.345 -33.527  1.00  0.00     0.012 A 
HETATM   19  C   UNL     1      -4.792  -1.219 -33.265  1.00  0.00     0.008 A 
HETATM   20  C   UNL     1      -4.780  -2.511 -33.801  1.00  0.00    -0.055 A 
HETATM   21  C   UNL     1      -5.870  -2.911 -34.588  1.00  0.00     0.008 A 
HETATM   22  C   UNL     1      -6.934  -2.037 -34.845  1.00  0.00     0.012 A 
BRANCH  20  23
HETATM   23  C   UNL     1      -3.657  -3.494 -33.517  1.00  0.00     0.010 C 
HETATM   24  C   UNL     1      -4.099  -4.920 -33.852  1.00  0.00     0.015 C 
HETATM   25  C   UNL     1      -3.129  -3.419 -32.080  1.00  0.00     0.015 C 
ENDBRANCH  20  23
ENDBRANCH  16  17
ENDBRANCH  12  15
ENDBRANCH   9  11
ENDBRANCH   7   9
ENDBRANCH   1   7
BRANCH   4  26
HETATM   26  N   UNL     1      -3.007   6.419 -32.847  1.00  0.00    -0.378 N 
HETATM   27  C   UNL     1      -2.700   7.206 -31.623  1.00  0.00     0.143 C 
HETATM   28  C   UNL     1      -2.366   6.268 -30.446  1.00  0.00     0.146 C 
HETATM   29  N   UNL     1      -1.247   5.387 -30.810  1.00  0.00    -0.343 N 
HETATM   30  C   UNL     1       0.007   5.323 -30.204  1.00  0.00     0.277 C 
HETATM   31  C   UNL     1      -1.511   4.587 -32.013  1.00  0.00     0.146 C 
HETATM   32  O   UNL     1       0.806   4.441 -30.529  1.00  0.00    -0.265 OA
HETATM   33  C   UNL     1      -1.882   5.503 -33.202  1.00  0.00     0.143 C 
BRANCH  30  34
HETATM   34  C   UNL     1       0.365   6.287 -29.177  1.00  0.00     0.142 A 
HETATM   35  O   UNL     1       0.340   5.953 -27.847  1.00  0.00    -0.317 OA
HETATM   36  C   UNL     1       0.672   7.065 -27.141  1.00  0.00     0.143 A 
HETATM   37  C   UNL     1       0.883   8.127 -27.986  1.00  0.00     0.027 A 
HETATM   38  C   UNL     1       0.663   7.635 -29.295  1.00  0.00     0.045 A 
ENDBRANCH  30  34
ENDBRANCH   4  26
TORSDOF 8
ENDMDL
MODEL 2
REMARK VINA RESULT:     -10.2      1.377      1.959
REMARK  8 active torsions:
REMARK  status: ('A' for Active; 'I' for Inactive)
REMARK    1  A    between atoms: C_2  and  C_3 
REMARK    2  A    between atoms: C_6  and  C_7 
REMARK    3  A    between atoms: C_8  and  C_9 
REMARK       I    between atoms: C_9  and  N_10 
REMARK    4  A    between atoms: N_10  and  C_11 
REMARK    5  A    between atoms: C_11  and  N_12 
REMARK    6  A    between atoms: N_12  and  C_13 
REMARK    7  A    between atoms: C_16  and  N_17 
REMARK       I    between atoms: N_20  and  C_21 
REMARK    8  A    between atoms: C_21  and  C_22 
ROOT
HETATM    1  C   UNL     1      -6.829   5.012 -33.693  1.00  0.00     0.034 A 
HETATM    2  C   UNL     1      -6.669   6.060 -32.795  1.00  0.00     0.032 A 
HETATM    3  C   UNL     1      -5.387   6.553 -32.509  1.00  0.00     0.031 A 
HETATM    4  C   UNL     1      -4.226   6.030 -33.102  1.00  0.00     0.030 A 
HETATM    5  C   UNL     1      -4.416   4.915 -33.932  1.00  0.00     0.031 A 
HETATM    6  C   UNL     1      -5.691   4.410 -34.222  1.00  0.00     0.032 A 
ENDROOT
BRANCH   1   7
HETATM    7  N   UNL     1      -8.078   4.478 -34.072  1.00  0.00    -0.333 N 
HETATM    8  H   UNL     1      -8.038   3.854 -34.872  1.00  0.00     0.168 HD
BRANCH   7   9
HETATM    9  C   UNL     1      -9.232   4.381 -33.375  1.00  0.00     0.179 C 
HETATM   10  S   UNL     1     -10.664   4.785 -34.142  1.00  0.00    -0.040 SA
BRANCH   9  11
HETATM   11  N   UNL     1      -9.282   4.017 -32.056  1.00  0.00    -0.300 N 
HETATM   12  C   UNL     1      -9.306   2.841 -31.323  1.00  0.00     0.247 C 
HETATM   13  O   UNL     1      -9.629   2.874 -30.137  1.00  0.00    -0.268 OA
HETATM   14  H   UNL     1      -9.290   4.814 -31.433  1.00  0.00     0.171 HD
BRANCH  12  15
HETATM   15  C   UNL     1      -8.897   1.582 -31.990  1.00  0.00     0.075 C 
HETATM   16  C   UNL     1      -7.591   1.370 -32.221  1.00  0.00     0.017 C 
BRANCH  16  17
HETATM   17  C   UNL     1      -7.005   0.172 -32.842  1.00  0.00    -0.036 A 
HETATM   18  C   UNL     1      -7.733  -0.479 -33.845  1.00  0.00     0.012 A 
HETATM   19  C   UNL     1      -7.206  -1.588 -34.516  1.00  0.00     0.008 A 
HETATM   20  C   UNL     1      -5.936  -2.081 -34.198  1.00  0.00    -0.055 A 
HETATM   21  C   UNL     1      -5.199  -1.418 -33.205  1.00  0.00     0.008 A 
HETATM   22  C   UNL     1      -5.726  -0.304 -32.538  1.00  0.00     0.012 A 
BRANCH  20  23
HETATM   23  C   UNL     1      -5.322  -3.266 -34.923  1.00  0.00     0.010 C 
HETATM   24  C   UNL     1      -6.395  -4.308 -35.245  1.00  0.00     0.015 C 
HETATM   25  C   UNL     1      -4.158  -3.911 -34.164  1.00  0.00     0.015 C 
ENDBRANCH  20  23
ENDBRANCH  16  17
ENDBRANCH  12  15
ENDBRANCH   9  11
ENDBRANCH   7   9
ENDBRANCH   1   7
BRANCH   4  26
HETATM   26  N   UNL     1      -2.968   6.570 -32.815  1.00  0.00    -0.378 N 
HETATM   27  C   UNL     1      -2.723   7.245 -31.513  1.00  0.00     0.143 C 
HETATM   28  C   UNL     1      -2.319   6.217 -30.438  1.00  0.00     0.146 C 
HETATM   29  N   UNL     1      -1.135   5.468 -30.882  1.00  0.00    -0.343 N 
HETATM   30  C   UNL     1       0.120   5.438 -30.275  1.00  0.00     0.277 C 
HETATM   31  C   UNL     1      -1.334   4.781 -32.164  1.00  0.00     0.146 C 
HETATM   32  O   UNL     1       0.985   4.659 -30.683  1.00  0.00    -0.265 OA
HETATM   33  C   UNL     1      -1.775   5.785 -33.255  1.00  0.00     0.143 C 
BRANCH  30  34
HETATM   34  C   UNL     1       0.402   6.313 -29.149  1.00  0.00     0.142 A 
HETATM   35  O   UNL     1       0.196   5.900 -27.858  1.00  0.00    -0.317 OA
HETATM   36  C   UNL     1       0.499   6.944 -27.043  1.00  0.00     0.143 A 
HETATM   37  C   UNL     1       0.869   8.041 -27.783  1.00  0.00     0.027 A 
HETATM   38  C   UNL     1       0.785   7.644 -29.139  1.00  0.00     0.045 A 
ENDBRANCH  30  34
ENDBRANCH   4  26
TORSDOF 8
ENDMDL
MODEL 3
REMARK VINA RESULT:      -9.8      2.798      4.303
REMARK  8 active torsions:
REMARK  status: ('A' for Active; 'I' for Inactive)
REMARK    1  A    between atoms: C_2  and  C_3 
REMARK    2  A    between atoms: C_6  and  C_7 
REMARK    3  A    between atoms: C_8  and  C_9 
REMARK       I    between atoms: C_9  and  N_10 
REMARK    4  A    between atoms: N_10  and  C_11 
REMARK    5  A    between atoms: C_11  and  N_12 
REMARK    6  A    between atoms: N_12  and  C_13 
REMARK    7  A    between atoms: C_16  and  N_17 
REMARK       I    between atoms: N_20  and  C_21 
REMARK    8  A    between atoms: C_21  and  C_22 
ROOT
HETATM    1  C   UNL     1     -10.676   3.638 -31.646  1.00  0.00     0.034 A 
HETATM    2  C   UNL     1      -9.882   4.094 -32.691  1.00  0.00     0.032 A 
HETATM    3  C   UNL     1      -8.487   3.958 -32.628  1.00  0.00     0.031 A 
HETATM    4  C   UNL     1      -7.834   3.366 -31.533  1.00  0.00     0.030 A 
HETATM    5  C   UNL     1      -8.658   3.002 -30.457  1.00  0.00     0.031 A 
HETATM    6  C   UNL     1     -10.053   3.136 -30.507  1.00  0.00     0.032 A 
ENDROOT
BRANCH   1   7
HETATM    7  N   UNL     1     -12.085   3.695 -31.639  1.00  0.00    -0.333 N 
HETATM    8  H   UNL     1     -12.483   4.020 -30.763  1.00  0.00     0.168 HD
BRANCH   7   9
HETATM    9  C   UNL     1     -12.961   3.721 -32.668  1.00  0.00     0.179 C 
HETATM   10  S   UNL     1     -13.494   5.206 -33.224  1.00  0.00    -0.040 SA
BRANCH   9  11
HETATM   11  N   UNL     1     -13.473   2.590 -33.244  1.00  0.00    -0.300 N 
HETATM   12  C   UNL     1     -13.045   1.613 -34.128  1.00  0.00     0.247 C 
HETATM   13  O   UNL     1     -13.871   0.867 -34.652  1.00  0.00    -0.268 OA
HETATM   14  H   UNL     1     -14.418   2.392 -32.939  1.00  0.00     0.171 HD
BRANCH  12  15
HETATM   15  C   UNL     1     -11.591   1.473 -34.382  1.00  0.00     0.075 C 
HETATM   16  C   UNL     1     -10.845   0.794 -33.495  1.00  0.00     0.017 C 
BRANCH  16  17
HETATM   17  C   UNL     1      -9.402   0.534 -33.599  1.00  0.00    -0.036 A 
HETATM   18  C   UNL     1      -8.747  -0.026 -32.495  1.00  0.00     0.012 A 
HETATM   19  C   UNL     1      -7.387  -0.353 -32.550  1.00  0.00     0.008 A 
HETATM   20  C   UNL     1      -6.642  -0.123 -33.712  1.00  0.00    -0.055 A 
HETATM   21  C   UNL     1      -7.302   0.422 -34.823  1.00  0.00     0.008 A 
HETATM   22  C   UNL     1      -8.665   0.744 -34.768  1.00  0.00     0.012 A 
BRANCH  20  23
HETATM   23  C   UNL     1      -5.171  -0.488 -33.816  1.00  0.00     0.010 C 
HETATM   24  C   UNL     1      -5.011  -1.988 -34.073  1.00  0.00     0.015 C 
HETATM   25  C   UNL     1      -4.348  -0.062 -32.595  1.00  0.00     0.015 C 
ENDBRANCH  20  23
ENDBRANCH  16  17
ENDBRANCH  12  15
ENDBRANCH   9  11
ENDBRANCH   7   9
ENDBRANCH   1   7
BRANCH   4  26
HETATM   26  N   UNL     1      -6.443   3.220 -31.521  1.00  0.00    -0.378 N 
HETATM   27  C   UNL     1      -5.637   3.633 -32.701  1.00  0.00     0.143 C 
HETATM   28  C   UNL     1      -5.293   5.133 -32.622  1.00  0.00     0.146 C 
HETATM   29  N   UNL     1      -4.585   5.420 -31.366  1.00  0.00    -0.343 N 
HETATM   30  C   UNL     1      -3.287   5.908 -31.222  1.00  0.00     0.277 C 
HETATM   31  C   UNL     1      -5.348   5.031 -30.173  1.00  0.00     0.146 C 
HETATM   32  O   UNL     1      -2.868   6.228 -30.107  1.00  0.00    -0.265 OA
HETATM   33  C   UNL     1      -5.738   3.536 -30.242  1.00  0.00     0.143 C 
BRANCH  30  34
HETATM   34  C   UNL     1      -2.435   6.055 -32.390  1.00  0.00     0.142 A 
HETATM   35  O   UNL     1      -2.311   7.260 -33.033  1.00  0.00    -0.317 OA
HETATM   36  C   UNL     1      -1.495   7.069 -34.102  1.00  0.00     0.143 A 
HETATM   37  C   UNL     1      -1.111   5.753 -34.186  1.00  0.00     0.027 A 
HETATM   38  C   UNL     1      -1.732   5.095 -33.099  1.00  0.00     0.045 A 
ENDBRANCH  30  34
ENDBRANCH   4  26
TORSDOF 8
ENDMDL
MODEL 4
REMARK VINA RESULT:      -9.6      1.814      2.901
REMARK  8 active torsions:
REMARK  status: ('A' for Active; 'I' for Inactive)
REMARK    1  A    between atoms: C_2  and  C_3 
REMARK    2  A    between atoms: C_6  and  C_7 
REMARK    3  A    between atoms: C_8  and  C_9 
REMARK       I    between atoms: C_9  and  N_10 
REMARK    4  A    between atoms: N_10  and  C_11 
REMARK    5  A    between atoms: C_11  and  N_12 
REMARK    6  A    between atoms: N_12  and  C_13 
REMARK    7  A    between atoms: C_16  and  N_17 
REMARK       I    between atoms: N_20  and  C_21 
REMARK    8  A    between atoms: C_21  and  C_22 
ROOT
HETATM    1  C   UNL     1      -9.317   3.951 -31.513  1.00  0.00     0.034 A 
HETATM    2  C   UNL     1      -8.714   4.646 -30.472  1.00  0.00     0.032 A 
HETATM    3  C   UNL     1      -7.518   5.345 -30.691  1.00  0.00     0.031 A 
HETATM    4  C   UNL     1      -6.882   5.381 -31.945  1.00  0.00     0.030 A 
HETATM    5  C   UNL     1      -7.467   4.594 -32.947  1.00  0.00     0.031 A 
HETATM    6  C   UNL     1      -8.661   3.888 -32.739  1.00  0.00     0.032 A 
ENDROOT
BRANCH   1   7
HETATM    7  N   UNL     1     -10.538   3.254 -31.398  1.00  0.00    -0.333 N 
HETATM    8  H   UNL     1     -10.675   2.803 -30.498  1.00  0.00     0.168 HD
BRANCH   7   9
HETATM    9  C   UNL     1     -11.673   3.360 -32.123  1.00  0.00     0.179 C 
HETATM   10  S   UNL     1     -12.459   4.837 -32.165  1.00  0.00    -0.040 SA
BRANCH   9  11
HETATM   11  N   UNL     1     -12.240   2.304 -32.784  1.00  0.00    -0.300 N 
HETATM   12  C   UNL     1     -11.845   1.344 -33.701  1.00  0.00     0.247 C 
HETATM   13  O   UNL     1     -12.698   0.694 -34.303  1.00  0.00    -0.268 OA
HETATM   14  H   UNL     1     -13.211   2.165 -32.534  1.00  0.00     0.171 HD
BRANCH  12  15
HETATM   15  C   UNL     1     -10.394   1.105 -33.897  1.00  0.00     0.075 C 
HETATM   16  C   UNL     1      -9.758   0.280 -33.049  1.00  0.00     0.017 C 
BRANCH  16  17
HETATM   17  C   UNL     1      -8.337  -0.093 -33.108  1.00  0.00    -0.036 A 
HETATM   18  C   UNL     1      -7.807  -0.496 -34.340  1.00  0.00     0.012 A 
HETATM   19  C   UNL     1      -6.449  -0.806 -34.476  1.00  0.00     0.008 A 
HETATM   20  C   UNL     1      -5.583  -0.727 -33.380  1.00  0.00    -0.055 A 
HETATM   21  C   UNL     1      -6.110  -0.306 -32.150  1.00  0.00     0.008 A 
HETATM   22  C   UNL     1      -7.469   0.009 -32.017  1.00  0.00     0.012 A 
BRANCH  20  23
HETATM   23  C   UNL     1      -4.099  -1.032 -33.497  1.00  0.00     0.010 C 
HETATM   24  C   UNL     1      -3.776  -2.371 -32.831  1.00  0.00     0.015 C 
HETATM   25  C   UNL     1      -3.202   0.077 -32.937  1.00  0.00     0.015 C 
ENDBRANCH  20  23
ENDBRANCH  16  17
ENDBRANCH  12  15
ENDBRANCH   9  11
ENDBRANCH   7   9
ENDBRANCH   1   7
BRANCH   4  26
HETATM   26  N   UNL     1      -5.706   6.116 -32.131  1.00  0.00    -0.378 N 
HETATM   27  C   UNL     1      -4.750   6.295 -31.006  1.00  0.00     0.143 C 
HETATM   28  C   UNL     1      -3.773   5.106 -30.932  1.00  0.00     0.146 C 
HETATM   29  N   UNL     1      -3.067   4.956 -32.213  1.00  0.00    -0.343 N 
HETATM   30  C   UNL     1      -1.696   5.068 -32.439  1.00  0.00     0.277 C 
HETATM   31  C   UNL     1      -3.975   4.772 -33.352  1.00  0.00     0.146 C 
HETATM   32  O   UNL     1      -1.227   4.785 -33.545  1.00  0.00    -0.265 OA
HETATM   33  C   UNL     1      -4.991   5.935 -33.430  1.00  0.00     0.143 C 
BRANCH  30  34
HETATM   34  C   UNL     1      -0.818   5.500 -31.364  1.00  0.00     0.142 A 
HETATM   35  O   UNL     1      -0.262   4.599 -30.493  1.00  0.00    -0.317 OA
HETATM   36  C   UNL     1       0.460   5.304 -29.584  1.00  0.00     0.143 A 
HETATM   37  C   UNL     1       0.359   6.652 -29.829  1.00  0.00     0.027 A 
HETATM   38  C   UNL     1      -0.481   6.781 -30.960  1.00  0.00     0.045 A 
ENDBRANCH  30  34
ENDBRANCH   4  26
TORSDOF 8
ENDMDL
MODEL 5
REMARK VINA RESULT:      -9.4      2.429      3.678
REMARK  8 active torsions:
REMARK  status: ('A' for Active; 'I' for Inactive)
REMARK    1  A    between atoms: C_2  and  C_3 
REMARK    2  A    between atoms: C_6  and  C_7 
REMARK    3  A    between atoms: C_8  and  C_9 
REMARK       I    between atoms: C_9  and  N_10 
REMARK    4  A    between atoms: N_10  and  C_11 
REMARK    5  A    between atoms: C_11  and  N_12 
REMARK    6  A    between atoms: N_12  and  C_13 
REMARK    7  A    between atoms: C_16  and  N_17 
REMARK       I    between atoms: N_20  and  C_21 
REMARK    8  A    between atoms: C_21  and  C_22 
ROOT
HETATM    1  C   UNL     1     -10.185   4.160 -32.549  1.00  0.00     0.034 A 
HETATM    2  C   UNL     1      -9.049   4.150 -33.349  1.00  0.00     0.032 A 
HETATM    3  C   UNL     1      -7.777   4.047 -32.765  1.00  0.00     0.031 A 
HETATM    4  C   UNL     1      -7.589   3.949 -31.375  1.00  0.00     0.030 A 
HETATM    5  C   UNL     1      -8.750   4.055 -30.595  1.00  0.00     0.031 A 
HETATM    6  C   UNL     1     -10.026   4.162 -31.166  1.00  0.00     0.032 A 
ENDROOT
BRANCH   1   7
HETATM    7  N   UNL     1     -11.503   4.220 -33.047  1.00  0.00    -0.333 N 
HETATM    8  H   UNL     1     -11.951   5.124 -32.930  1.00  0.00     0.168 HD
BRANCH   7   9
HETATM    9  C   UNL     1     -12.138   3.419 -33.932  1.00  0.00     0.179 C 
HETATM   10  S   UNL     1     -12.419   4.000 -35.476  1.00  0.00    -0.040 SA
BRANCH   9  11
HETATM   11  N   UNL     1     -12.607   2.173 -33.611  1.00  0.00    -0.300 N 
HETATM   12  C   UNL     1     -12.140   0.870 -33.638  1.00  0.00     0.247 C 
HETATM   13  O   UNL     1     -12.936  -0.061 -33.527  1.00  0.00    -0.268 OA
HETATM   14  H   UNL     1     -13.547   2.197 -33.236  1.00  0.00     0.171 HD
BRANCH  12  15
HETATM   15  C   UNL     1     -10.680   0.641 -33.760  1.00  0.00     0.075 C 
HETATM   16  C   UNL     1      -9.971   0.400 -32.645  1.00  0.00     0.017 C 
BRANCH  16  17
HETATM   17  C   UNL     1      -8.528   0.126 -32.580  1.00  0.00    -0.036 A 
HETATM   18  C   UNL     1      -7.905  -0.425 -33.708  1.00  0.00     0.012 A 
HETATM   19  C   UNL     1      -6.525  -0.654 -33.731  1.00  0.00     0.008 A 
HETATM   20  C   UNL     1      -5.729  -0.344 -32.623  1.00  0.00    -0.055 A 
HETATM   21  C   UNL     1      -6.349   0.223 -31.500  1.00  0.00     0.008 A 
HETATM   22  C   UNL     1      -7.731   0.457 -31.480  1.00  0.00     0.012 A 
BRANCH  20  23
HETATM   23  C   UNL     1      -4.224  -0.557 -32.623  1.00  0.00     0.010 C 
HETATM   24  C   UNL     1      -3.882  -1.949 -33.156  1.00  0.00     0.015 C 
HETATM   25  C   UNL     1      -3.576  -0.332 -31.253  1.00  0.00     0.015 C 
ENDBRANCH  20  23
ENDBRANCH  16  17
ENDBRANCH  12  15
ENDBRANCH   9  11
ENDBRANCH   7   9
ENDBRANCH   1   7
BRANCH   4  26
HETATM   26  N   UNL     1      -6.307   3.816 -30.833  1.00  0.00    -0.378 N 
HETATM   27  C   UNL     1      -5.108   3.995 -31.695  1.00  0.00     0.143 C 
HETATM   28  C   UNL     1      -4.716   5.483 -31.775  1.00  0.00     0.146 C 
HETATM   29  N   UNL     1      -4.485   6.014 -30.424  1.00  0.00    -0.343 N 
HETATM   30  C   UNL     1      -3.295   6.528 -29.911  1.00  0.00     0.277 C 
HETATM   31  C   UNL     1      -5.647   5.862 -29.540  1.00  0.00     0.146 C 
HETATM   32  O   UNL     1      -3.281   7.062 -28.800  1.00  0.00    -0.265 OA
HETATM   33  C   UNL     1      -6.085   4.380 -29.468  1.00  0.00     0.143 C 
BRANCH  30  34
HETATM   34  C   UNL     1      -2.074   6.449 -30.697  1.00  0.00     0.142 A 
HETATM   35  O   UNL     1      -1.399   5.265 -30.846  1.00  0.00    -0.317 OA
HETATM   36  C   UNL     1      -0.287   5.520 -31.583  1.00  0.00     0.143 A 
HETATM   37  C   UNL     1      -0.210   6.856 -31.892  1.00  0.00     0.027 A 
HETATM   38  C   UNL     1      -1.347   7.459 -31.303  1.00  0.00     0.045 A 
ENDBRANCH  30  34
ENDBRANCH   4  26
TORSDOF 8
ENDMDL
MODEL 6
REMARK VINA RESULT:      -9.4      2.611      8.768
REMARK  8 active torsions:
REMARK  status: ('A' for Active; 'I' for Inactive)
REMARK    1  A    between atoms: C_2  and  C_3 
REMARK    2  A    between atoms: C_6  and  C_7 
REMARK    3  A    between atoms: C_8  and  C_9 
REMARK       I    between atoms: C_9  and  N_10 
REMARK    4  A    between atoms: N_10  and  C_11 
REMARK    5  A    between atoms: C_11  and  N_12 
REMARK    6  A    between atoms: N_12  and  C_13 
REMARK    7  A    between atoms: C_16  and  N_17 
REMARK       I    between atoms: N_20  and  C_21 
REMARK    8  A    between atoms: C_21  and  C_22 
ROOT
HETATM    1  C   UNL     1      -5.376   5.955 -31.023  1.00  0.00     0.034 A 
HETATM    2  C   UNL     1      -5.616   5.012 -30.031  1.00  0.00     0.032 A 
HETATM    3  C   UNL     1      -6.847   4.341 -29.979  1.00  0.00     0.031 A 
HETATM    4  C   UNL     1      -7.877   4.579 -30.905  1.00  0.00     0.030 A 
HETATM    5  C   UNL     1      -7.636   5.602 -31.834  1.00  0.00     0.031 A 
HETATM    6  C   UNL     1      -6.412   6.282 -31.894  1.00  0.00     0.032 A 
ENDROOT
BRANCH   1   7
HETATM    7  N   UNL     1      -4.158   6.649 -31.178  1.00  0.00    -0.333 N 
HETATM    8  H   UNL     1      -4.182   7.376 -31.886  1.00  0.00     0.168 HD
BRANCH   7   9
HETATM    9  C   UNL     1      -3.099   6.747 -30.344  1.00  0.00     0.179 C 
HETATM   10  S   UNL     1      -3.215   7.766 -29.022  1.00  0.00    -0.040 SA
BRANCH   9  11
HETATM   11  N   UNL     1      -1.916   6.091 -30.556  1.00  0.00    -0.300 N 
HETATM   12  C   UNL     1      -1.500   4.893 -31.113  1.00  0.00     0.247 C 
HETATM   13  O   UNL     1      -0.360   4.487 -30.895  1.00  0.00    -0.268 OA
HETATM   14  H   UNL     1      -1.115   6.621 -30.237  1.00  0.00     0.171 HD
BRANCH  12  15
HETATM   15  C   UNL     1      -2.438   4.156 -31.994  1.00  0.00     0.075 C 
HETATM   16  C   UNL     1      -2.986   3.017 -31.541  1.00  0.00     0.017 C 
BRANCH  16  17
HETATM   17  C   UNL     1      -3.952   2.175 -32.262  1.00  0.00    -0.036 A 
HETATM   18  C   UNL     1      -3.761   0.788 -32.255  1.00  0.00     0.012 A 
HETATM   19  C   UNL     1      -4.677  -0.071 -32.872  1.00  0.00     0.008 A 
HETATM   20  C   UNL     1      -5.809   0.435 -33.519  1.00  0.00    -0.055 A 
HETATM   21  C   UNL     1      -6.011   1.822 -33.512  1.00  0.00     0.008 A 
HETATM   22  C   UNL     1      -5.095   2.681 -32.889  1.00  0.00     0.012 A 
BRANCH  20  23
HETATM   23  C   UNL     1      -6.838  -0.471 -34.177  1.00  0.00     0.010 C 
HETATM   24  C   UNL     1      -6.159  -1.708 -34.766  1.00  0.00     0.015 C 
HETATM   25  C   UNL     1      -7.682   0.237 -35.242  1.00  0.00     0.015 C 
ENDBRANCH  20  23
ENDBRANCH  16  17
ENDBRANCH  12  15
ENDBRANCH   9  11
ENDBRANCH   7   9
ENDBRANCH   1   7
BRANCH   4  26
HETATM   26  N   UNL     1      -9.079   3.867 -30.838  1.00  0.00    -0.378 N 
HETATM   27  C   UNL     1     -10.119   4.054 -31.886  1.00  0.00     0.143 C 
HETATM   28  C   UNL     1      -9.851   3.124 -33.085  1.00  0.00     0.146 C 
HETATM   29  N   UNL     1      -9.796   1.727 -32.632  1.00  0.00    -0.343 N 
HETATM   30  C   UNL     1     -10.643   0.684 -33.005  1.00  0.00     0.277 C 
HETATM   31  C   UNL     1      -8.778   1.496 -31.599  1.00  0.00     0.146 C 
HETATM   32  O   UNL     1     -10.397  -0.470 -32.648  1.00  0.00    -0.265 OA
HETATM   33  C   UNL     1      -9.002   2.442 -30.396  1.00  0.00     0.143 C 
BRANCH  30  34
HETATM   34  C   UNL     1     -11.808   0.959 -33.831  1.00  0.00     0.142 A 
HETATM   35  O   UNL     1     -11.711   1.718 -34.969  1.00  0.00    -0.317 OA
HETATM   36  C   UNL     1     -12.960   1.835 -35.488  1.00  0.00     0.143 A 
HETATM   37  C   UNL     1     -13.876   1.192 -34.692  1.00  0.00     0.027 A 
HETATM   38  C   UNL     1     -13.140   0.647 -33.613  1.00  0.00     0.045 A 
ENDBRANCH  30  34
ENDBRANCH   4  26
TORSDOF 8
ENDMDL
MODEL 7
REMARK VINA RESULT:      -9.2      2.725      9.071
REMARK  8 active torsions:
REMARK  status: ('A' for Active; 'I' for Inactive)
REMARK    1  A    between atoms: C_2  and  C_3 
REMARK    2  A    between atoms: C_6  and  C_7 
REMARK    3  A    between atoms: C_8  and  C_9 
REMARK       I    between atoms: C_9  and  N_10 
REMARK    4  A    between atoms: N_10  and  C_11 
REMARK    5  A    between atoms: C_11  and  N_12 
REMARK    6  A    between atoms: N_12  and  C_13 
REMARK    7  A    between atoms: C_16  and  N_17 
REMARK       I    between atoms: N_20  and  C_21 
REMARK    8  A    between atoms: C_21  and  C_22 
ROOT
HETATM    1  C   UNL     1      -5.862   5.381 -32.199  1.00  0.00     0.034 A 
HETATM    2  C   UNL     1      -6.437   4.765 -31.094  1.00  0.00     0.032 A 
HETATM    3  C   UNL     1      -7.507   3.874 -31.262  1.00  0.00     0.031 A 
HETATM    4  C   UNL     1      -8.040   3.561 -32.524  1.00  0.00     0.030 A 
HETATM    5  C   UNL     1      -7.498   4.270 -33.606  1.00  0.00     0.031 A 
HETATM    6  C   UNL     1      -6.431   5.166 -33.451  1.00  0.00     0.032 A 
ENDROOT
BRANCH   1   7
HETATM    7  N   UNL     1      -4.760   6.258 -32.132  1.00  0.00    -0.333 N 
HETATM    8  H   UNL     1      -4.817   7.046 -32.770  1.00  0.00     0.168 HD
BRANCH   7   9
HETATM    9  C   UNL     1      -3.832   6.420 -31.162  1.00  0.00     0.179 C 
HETATM   10  S   UNL     1      -4.287   7.182 -29.743  1.00  0.00    -0.040 SA
BRANCH   9  11
HETATM   11  N   UNL     1      -2.526   6.036 -31.304  1.00  0.00    -0.300 N 
HETATM   12  C   UNL     1      -1.832   4.886 -31.642  1.00  0.00     0.247 C 
HETATM   13  O   UNL     1      -0.627   4.815 -31.407  1.00  0.00    -0.268 OA
HETATM   14  H   UNL     1      -1.878   6.794 -31.131  1.00  0.00     0.171 HD
BRANCH  12  15
HETATM   15  C   UNL     1      -2.565   3.789 -32.319  1.00  0.00     0.075 C 
HETATM   16  C   UNL     1      -3.019   2.765 -31.578  1.00  0.00     0.017 C 
BRANCH  16  17
HETATM   17  C   UNL     1      -3.785   1.612 -32.074  1.00  0.00    -0.036 A 
HETATM   18  C   UNL     1      -4.934   1.856 -32.836  1.00  0.00     0.012 A 
HETATM   19  C   UNL     1      -5.673   0.803 -33.387  1.00  0.00     0.008 A 
HETATM   20  C   UNL     1      -5.287  -0.526 -33.184  1.00  0.00    -0.055 A 
HETATM   21  C   UNL     1      -4.126  -0.770 -32.435  1.00  0.00     0.008 A 
HETATM   22  C   UNL     1      -3.384   0.285 -31.890  1.00  0.00     0.012 A 
BRANCH  20  23
HETATM   23  C   UNL     1      -6.051  -1.692 -33.788  1.00  0.00     0.010 C 
HETATM   24  C   UNL     1      -5.087  -2.672 -34.458  1.00  0.00     0.015 C 
HETATM   25  C   UNL     1      -7.147  -1.262 -34.768  1.00  0.00     0.015 C 
ENDBRANCH  20  23
ENDBRANCH  16  17
ENDBRANCH  12  15
ENDBRANCH   9  11
ENDBRANCH   7   9
ENDBRANCH   1   7
BRANCH   4  26
HETATM   26  N   UNL     1      -9.087   2.643 -32.653  1.00  0.00    -0.378 N 
HETATM   27  C   UNL     1     -10.318   2.791 -31.830  1.00  0.00     0.143 C 
HETATM   28  C   UNL     1     -11.316   3.742 -32.518  1.00  0.00     0.146 C 
HETATM   29  N   UNL     1     -11.632   3.247 -33.866  1.00  0.00    -0.343 N 
HETATM   30  C   UNL     1     -12.877   2.844 -34.346  1.00  0.00     0.277 C 
HETATM   31  C   UNL     1     -10.444   3.090 -34.714  1.00  0.00     0.146 C 
HETATM   32  O   UNL     1     -13.021   2.577 -35.542  1.00  0.00    -0.265 OA
HETATM   33  C   UNL     1      -9.408   2.167 -34.032  1.00  0.00     0.143 C 
BRANCH  30  34
HETATM   34  C   UNL     1     -14.010   2.756 -33.439  1.00  0.00     0.142 A 
HETATM   35  O   UNL     1     -14.484   3.863 -32.783  1.00  0.00    -0.317 OA
HETATM   36  C   UNL     1     -15.502   3.456 -31.981  1.00  0.00     0.143 A 
HETATM   37  C   UNL     1     -15.679   2.097 -32.078  1.00  0.00     0.027 A 
HETATM   38  C   UNL     1     -14.705   1.642 -32.998  1.00  0.00     0.045 A 
ENDBRANCH  30  34
ENDBRANCH   4  26
TORSDOF 8
ENDMDL
MODEL 8
REMARK VINA RESULT:      -8.8      3.146      8.465
REMARK  8 active torsions:
REMARK  status: ('A' for Active; 'I' for Inactive)
REMARK    1  A    between atoms: C_2  and  C_3 
REMARK    2  A    between atoms: C_6  and  C_7 
REMARK    3  A    between atoms: C_8  and  C_9 
REMARK       I    between atoms: C_9  and  N_10 
REMARK    4  A    between atoms: N_10  and  C_11 
REMARK    5  A    between atoms: C_11  and  N_12 
REMARK    6  A    between atoms: N_12  and  C_13 
REMARK    7  A    between atoms: C_16  and  N_17 
REMARK       I    between atoms: N_20  and  C_21 
REMARK    8  A    between atoms: C_21  and  C_22 
ROOT
HETATM    1  C   UNL     1      -5.071   7.535 -30.268  1.00  0.00     0.034 A 
HETATM    2  C   UNL     1      -5.268   6.541 -29.318  1.00  0.00     0.032 A 
HETATM    3  C   UNL     1      -6.450   5.785 -29.324  1.00  0.00     0.031 A 
HETATM    4  C   UNL     1      -7.471   5.985 -30.270  1.00  0.00     0.030 A 
HETATM    5  C   UNL     1      -7.279   7.056 -31.155  1.00  0.00     0.031 A 
HETATM    6  C   UNL     1      -6.104   7.822 -31.156  1.00  0.00     0.032 A 
ENDROOT
BRANCH   1   7
HETATM    7  N   UNL     1      -3.902   8.317 -30.364  1.00  0.00    -0.333 N 
HETATM    8  H   UNL     1      -3.896   9.133 -29.759  1.00  0.00     0.168 HD
BRANCH   7   9
HETATM    9  C   UNL     1      -2.680   8.002 -30.848  1.00  0.00     0.179 C 
HETATM   10  S   UNL     1      -1.490   7.534 -29.769  1.00  0.00    -0.040 SA
BRANCH   9  11
HETATM   11  N   UNL     1      -2.353   8.096 -32.175  1.00  0.00    -0.300 N 
HETATM   12  C   UNL     1      -2.144   7.231 -33.236  1.00  0.00     0.247 C 
HETATM   13  O   UNL     1      -1.589   7.645 -34.253  1.00  0.00    -0.268 OA
HETATM   14  H   UNL     1      -2.246   9.054 -32.481  1.00  0.00     0.171 HD
BRANCH  12  15
HETATM   15  C   UNL     1      -2.636   5.837 -33.124  1.00  0.00     0.075 C 
HETATM   16  C   UNL     1      -3.935   5.593 -33.362  1.00  0.00     0.017 C 
BRANCH  16  17
HETATM   17  C   UNL     1      -4.588   4.275 -33.325  1.00  0.00    -0.036 A 
HETATM   18  C   UNL     1      -5.672   4.047 -34.181  1.00  0.00     0.012 A 
HETATM   19  C   UNL     1      -6.299   2.797 -34.237  1.00  0.00     0.008 A 
HETATM   20  C   UNL     1      -5.861   1.740 -33.432  1.00  0.00    -0.055 A 
HETATM   21  C   UNL     1      -4.764   1.963 -32.587  1.00  0.00     0.008 A 
HETATM   22  C   UNL     1      -4.134   3.214 -32.536  1.00  0.00     0.012 A 
BRANCH  20  23
HETATM   23  C   UNL     1      -6.501   0.363 -33.484  1.00  0.00     0.010 C 
HETATM   24  C   UNL     1      -5.447  -0.723 -33.265  1.00  0.00     0.015 C 
HETATM   25  C   UNL     1      -7.281   0.102 -34.778  1.00  0.00     0.015 C 
ENDBRANCH  20  23
ENDBRANCH  16  17
ENDBRANCH  12  15
ENDBRANCH   9  11
ENDBRANCH   7   9
ENDBRANCH   1   7
BRANCH   4  26
HETATM   26  N   UNL     1      -8.621   5.189 -30.263  1.00  0.00    -0.378 N 
HETATM   27  C   UNL     1      -9.567   5.231 -31.410  1.00  0.00     0.143 C 
HETATM   28  C   UNL     1      -9.123   4.251 -32.513  1.00  0.00     0.146 C 
HETATM   29  N   UNL     1      -9.013   2.893 -31.962  1.00  0.00    -0.343 N 
HETATM   30  C   UNL     1      -9.746   1.768 -32.337  1.00  0.00     0.277 C 
HETATM   31  C   UNL     1      -8.084   2.805 -30.829  1.00  0.00     0.146 C 
HETATM   32  O   UNL     1      -9.455   0.660 -31.881  1.00  0.00    -0.265 OA
HETATM   33  C   UNL     1      -8.486   3.804 -29.719  1.00  0.00     0.143 C 
BRANCH  30  34
HETATM   34  C   UNL     1     -10.844   1.902 -33.281  1.00  0.00     0.142 A 
HETATM   35  O   UNL     1     -12.026   2.494 -32.919  1.00  0.00    -0.317 OA
HETATM   36  C   UNL     1     -12.861   2.425 -33.989  1.00  0.00     0.143 A 
HETATM   37  C   UNL     1     -12.254   1.770 -35.032  1.00  0.00     0.027 A 
HETATM   38  C   UNL     1     -10.965   1.412 -34.571  1.00  0.00     0.045 A 
ENDBRANCH  30  34
ENDBRANCH   4  26
TORSDOF 8
ENDMDL
MODEL 9
REMARK VINA RESULT:      -8.8      3.984      9.761
REMARK  8 active torsions:
REMARK  status: ('A' for Active; 'I' for Inactive)
REMARK    1  A    between atoms: C_2  and  C_3 
REMARK    2  A    between atoms: C_6  and  C_7 
REMARK    3  A    between atoms: C_8  and  C_9 
REMARK       I    between atoms: C_9  and  N_10 
REMARK    4  A    between atoms: N_10  and  C_11 
REMARK    5  A    between atoms: C_11  and  N_12 
REMARK    6  A    between atoms: N_12  and  C_13 
REMARK    7  A    between atoms: C_16  and  N_17 
REMARK       I    between atoms: N_20  and  C_21 
REMARK    8  A    between atoms: C_21  and  C_22 
ROOT
HETATM    1  C   UNL     1      -2.469   9.560 -27.522  1.00  0.00     0.034 A 
HETATM    2  C   UNL     1      -2.977  10.153 -28.671  1.00  0.00     0.032 A 
HETATM    3  C   UNL     1      -3.914   9.470 -29.462  1.00  0.00     0.031 A 
HETATM    4  C   UNL     1      -4.380   8.183 -29.140  1.00  0.00     0.030 A 
HETATM    5  C   UNL     1      -3.777   7.579 -28.027  1.00  0.00     0.031 A 
HETATM    6  C   UNL     1      -2.837   8.249 -27.231  1.00  0.00     0.032 A 
ENDROOT
BRANCH   1   7
HETATM    7  N   UNL     1      -1.557  10.184 -26.647  1.00  0.00    -0.333 N 
HETATM    8  H   UNL     1      -1.620  11.197 -26.634  1.00  0.00     0.168 HD
BRANCH   7   9
HETATM    9  C   UNL     1      -0.867   9.677 -25.601  1.00  0.00     0.179 C 
HETATM   10  S   UNL     1      -1.637   9.556 -24.120  1.00  0.00    -0.040 SA
BRANCH   9  11
HETATM   11  N   UNL     1       0.448   9.304 -25.681  1.00  0.00    -0.300 N 
HETATM   12  C   UNL     1       1.183   8.275 -26.246  1.00  0.00     0.247 C 
HETATM   13  O   UNL     1       2.348   8.097 -25.891  1.00  0.00    -0.268 OA
HETATM   14  H   UNL     1       1.066   9.958 -25.218  1.00  0.00     0.171 HD
BRANCH  12  15
HETATM   15  C   UNL     1       0.548   7.442 -27.296  1.00  0.00     0.075 C 
HETATM   16  C   UNL     1       0.672   7.820 -28.578  1.00  0.00     0.017 C 
BRANCH  16  17
HETATM   17  C   UNL     1       0.135   7.104 -29.746  1.00  0.00    -0.036 A 
HETATM   18  C   UNL     1      -0.829   7.747 -30.533  1.00  0.00     0.012 A 
HETATM   19  C   UNL     1      -1.335   7.145 -31.690  1.00  0.00     0.008 A 
HETATM   20  C   UNL     1      -0.895   5.878 -32.090  1.00  0.00    -0.055 A 
HETATM   21  C   UNL     1       0.083   5.242 -31.311  1.00  0.00     0.008 A 
HETATM   22  C   UNL     1       0.593   5.848 -30.156  1.00  0.00     0.012 A 
BRANCH  20  23
HETATM   23  C   UNL     1      -1.405   5.206 -33.353  1.00  0.00     0.010 C 
HETATM   24  C   UNL     1      -1.994   6.244 -34.309  1.00  0.00     0.015 C 
HETATM   25  C   UNL     1      -2.417   4.087 -33.085  1.00  0.00     0.015 C 
ENDBRANCH  20  23
ENDBRANCH  16  17
ENDBRANCH  12  15
ENDBRANCH   9  11
ENDBRANCH   7   9
ENDBRANCH   1   7
BRANCH   4  26
HETATM   26  N   UNL     1      -5.338   7.548 -29.937  1.00  0.00    -0.378 N 
HETATM   27  C   UNL     1      -4.914   6.680 -31.068  1.00  0.00     0.143 C 
HETATM   28  C   UNL     1      -4.643   5.245 -30.578  1.00  0.00     0.146 C 
HETATM   29  N   UNL     1      -5.839   4.708 -29.913  1.00  0.00    -0.343 N 
HETATM   30  C   UNL     1      -6.596   3.604 -30.301  1.00  0.00     0.277 C 
HETATM   31  C   UNL     1      -6.290   5.533 -28.785  1.00  0.00     0.146 C 
HETATM   32  O   UNL     1      -7.499   3.186 -29.572  1.00  0.00    -0.265 OA
HETATM   33  C   UNL     1      -6.537   6.990 -29.242  1.00  0.00     0.143 C 
BRANCH  30  34
HETATM   34  C   UNL     1      -6.307   2.933 -31.559  1.00  0.00     0.142 A 
HETATM   35  O   UNL     1      -6.782   3.419 -32.750  1.00  0.00    -0.317 OA
HETATM   36  C   UNL     1      -6.390   2.559 -33.725  1.00  0.00     0.143 A 
HETATM   37  C   UNL     1      -5.695   1.504 -33.187  1.00  0.00     0.027 A 
HETATM   38  C   UNL     1      -5.660   1.731 -31.791  1.00  0.00     0.045 A 
ENDBRANCH  30  34
ENDBRANCH   4  26
TORSDOF 8
ENDMDL
MODEL 10
REMARK VINA RESULT:      -8.4      3.529      9.427
REMARK  8 active torsions:
REMARK  status: ('A' for Active; 'I' for Inactive)
REMARK    1  A    between atoms: C_2  and  C_3 
REMARK    2  A    between atoms: C_6  and  C_7 
REMARK    3  A    between atoms: C_8  and  C_9 
REMARK       I    between atoms: C_9  and  N_10 
REMARK    4  A    between atoms: N_10  and  C_11 
REMARK    5  A    between atoms: C_11  and  N_12 
REMARK    6  A    between atoms: N_12  and  C_13 
REMARK    7  A    between atoms: C_16  and  N_17 
REMARK       I    between atoms: N_20  and  C_21 
REMARK    8  A    between atoms: C_21  and  C_22 
ROOT
HETATM    1  C   UNL     1      -4.714   8.556 -27.914  1.00  0.00     0.034 A 
HETATM    2  C   UNL     1      -5.192   9.037 -29.126  1.00  0.00     0.032 A 
HETATM    3  C   UNL     1      -5.542   8.144 -30.151  1.00  0.00     0.031 A 
HETATM    4  C   UNL     1      -5.432   6.750 -30.008  1.00  0.00     0.030 A 
HETATM    5  C   UNL     1      -4.860   6.304 -28.808  1.00  0.00     0.031 A 
HETATM    6  C   UNL     1      -4.503   7.187 -27.778  1.00  0.00     0.032 A 
ENDROOT
BRANCH   1   7
HETATM    7  N   UNL     1      -4.376   9.373 -26.816  1.00  0.00    -0.333 N 
HETATM    8  H   UNL     1      -5.160   9.883 -26.420  1.00  0.00     0.168 HD
BRANCH   7   9
HETATM    9  C   UNL     1      -3.296   9.340 -26.004  1.00  0.00     0.179 C 
HETATM   10  S   UNL     1      -3.436   8.583 -24.518  1.00  0.00    -0.040 SA
BRANCH   9  11
HETATM   11  N   UNL     1      -2.105   9.940 -26.318  1.00  0.00    -0.300 N 
HETATM   12  C   UNL     1      -0.999   9.661 -27.103  1.00  0.00     0.247 C 
HETATM   13  O   UNL     1       0.035  10.308 -26.944  1.00  0.00    -0.268 OA
HETATM   14  H   UNL     1      -1.996  10.842 -25.872  1.00  0.00     0.171 HD
BRANCH  12  15
HETATM   15  C   UNL     1      -1.114   8.612 -28.144  1.00  0.00     0.075 C 
HETATM   16  C   UNL     1      -1.502   8.970 -29.379  1.00  0.00     0.017 C 
BRANCH  16  17
HETATM   17  C   UNL     1      -1.643   8.073 -30.536  1.00  0.00    -0.036 A 
HETATM   18  C   UNL     1      -1.496   6.696 -30.330  1.00  0.00     0.012 A 
HETATM   19  C   UNL     1      -1.677   5.785 -31.377  1.00  0.00     0.008 A 
HETATM   20  C   UNL     1      -2.004   6.228 -32.663  1.00  0.00    -0.055 A 
HETATM   21  C   UNL     1      -2.168   7.606 -32.865  1.00  0.00     0.008 A 
HETATM   22  C   UNL     1      -1.993   8.517 -31.815  1.00  0.00     0.012 A 
BRANCH  20  23
HETATM   23  C   UNL     1      -2.232   5.267 -33.817  1.00  0.00     0.010 C 
HETATM   24  C   UNL     1      -1.119   5.408 -34.857  1.00  0.00     0.015 C 
HETATM   25  C   UNL     1      -3.607   5.420 -34.477  1.00  0.00     0.015 C 
ENDBRANCH  20  23
ENDBRANCH  16  17
ENDBRANCH  12  15
ENDBRANCH   9  11
ENDBRANCH   7   9
ENDBRANCH   1   7
BRANCH   4  26
HETATM   26  N   UNL     1      -5.821   5.892 -31.042  1.00  0.00    -0.378 N 
HETATM   27  C   UNL     1      -5.046   4.651 -31.315  1.00  0.00     0.143 C 
HETATM   28  C   UNL     1      -5.541   3.497 -30.422  1.00  0.00     0.146 C 
HETATM   29  N   UNL     1      -6.980   3.284 -30.631  1.00  0.00    -0.343 N 
HETATM   30  C   UNL     1      -7.600   2.137 -31.125  1.00  0.00     0.277 C 
HETATM   31  C   UNL     1      -7.785   4.484 -30.368  1.00  0.00     0.146 C 
HETATM   32  O   UNL     1      -8.831   2.050 -31.123  1.00  0.00    -0.265 OA
HETATM   33  C   UNL     1      -7.286   5.670 -31.226  1.00  0.00     0.143 C 
BRANCH  30  34
HETATM   34  C   UNL     1      -6.793   1.036 -31.626  1.00  0.00     0.142 A 
HETATM   35  O   UNL     1      -6.389   0.989 -32.936  1.00  0.00    -0.317 OA
HETATM   36  C   UNL     1      -5.701  -0.169 -33.108  1.00  0.00     0.143 A 
HETATM   37  C   UNL     1      -5.677  -0.894 -31.941  1.00  0.00     0.027 A 
HETATM   38  C   UNL     1      -6.399  -0.130 -30.993  1.00  0.00     0.045 A 
ENDBRANCH  30  34
ENDBRANCH   4  26
TORSDOF 8
ENDMDL
