MODEL 1
REMARK VINA RESULT:      -8.5      0.000      0.000
REMARK  7 active torsions:
REMARK  status: ('A' for Active; 'I' for Inactive)
REMARK       I    between atoms: C_2  and  N_3 
REMARK    1  A    between atoms: N_3  and  C_4 
REMARK    2  A    between atoms: C_7  and  N_8 
REMARK       I    between atoms: N_8  and  C_9 
REMARK    3  A    between atoms: C_9  and  C_10 
REMARK    4  A    between atoms: C_11  and  C_12 
REMARK    5  A    between atoms: C_13  and  O_14 
REMARK    6  A    between atoms: N_20  and  C_21 
REMARK    7  A    between atoms: C_24  and  O_25 
ROOT
HETATM    1  C   UNL     1      -4.445   4.759 -33.679  1.00  0.00     0.106 C 
HETATM    2  C   UNL     1      -4.086   5.893 -32.699  1.00  0.00     0.142 C 
HETATM    3  N   UNL     1      -2.602   6.048 -32.665  1.00  0.00    -0.308 N 
HETATM    4  C   UNL     1      -1.923   6.203 -33.884  1.00  0.00     0.225 C 
HETATM    5  O   UNL     1      -0.821   6.741 -34.016  1.00  0.00    -0.273 OA
HETATM    6  C   UNL     1      -2.507   5.464 -35.084  1.00  0.00     0.104 C 
HETATM    7  C   UNL     1      -4.003   5.206 -35.070  1.00  0.00     0.026 C 
ENDROOT
BRANCH   1   8
HETATM    8  C   UNL     1      -5.901   4.305 -33.722  1.00  0.00     0.228 C 
HETATM    9  N   UNL     1      -6.158   3.023 -33.278  1.00  0.00    -0.327 N 
HETATM   10  H   UNL     1      -5.369   2.437 -33.037  1.00  0.00     0.169 HD
HETATM   11  O   UNL     1      -6.744   5.111 -34.113  1.00  0.00    -0.273 OA
BRANCH   9  12
HETATM   12  C   UNL     1      -7.399   2.348 -33.355  1.00  0.00     0.034 A 
HETATM   13  C   UNL     1      -7.734   1.436 -34.355  1.00  0.00     0.032 A 
HETATM   14  C   UNL     1      -8.959   0.753 -34.328  1.00  0.00     0.032 A 
HETATM   15  C   UNL     1      -9.870   0.969 -33.299  1.00  0.00     0.034 A 
HETATM   16  C   UNL     1      -9.552   1.908 -32.312  1.00  0.00     0.032 A 
HETATM   17  C   UNL     1      -8.330   2.595 -32.342  1.00  0.00     0.032 A 
BRANCH  15  18
HETATM   18  N   UNL     1     -11.098   0.285 -33.175  1.00  0.00    -0.328 N 
HETATM   19  C   UNL     1     -12.292   0.583 -33.811  1.00  0.00     0.218 C 
HETATM   20  C   UNL     1     -13.382  -0.411 -33.492  1.00  0.00     0.117 C 
HETATM   21  O   UNL     1     -12.506   1.507 -34.584  1.00  0.00    -0.274 OA
HETATM   22  H   UNL     1     -11.090  -0.531 -32.578  1.00  0.00     0.169 HD
ENDBRANCH  15  18
ENDBRANCH   9  12
ENDBRANCH   1   8
BRANCH   2  23
HETATM   23  C   UNL     1      -4.833   5.870 -31.366  1.00  0.00    -0.001 A 
HETATM   24  C   UNL     1      -5.554   7.007 -30.940  1.00  0.00     0.076 A 
HETATM   25  C   UNL     1      -6.286   6.983 -29.748  1.00  0.00     0.037 A 
HETATM   26  C   UNL     1      -6.289   5.841 -28.952  1.00  0.00     0.003 A 
HETATM   27  C   UNL     1      -5.566   4.718 -29.346  1.00  0.00     0.001 A 
HETATM   28  C   UNL     1      -4.845   4.730 -30.541  1.00  0.00     0.012 A 
BRANCH  24  29
HETATM   29  O   UNL     1      -5.572   8.096 -31.775  1.00  0.00    -0.355 OA
HETATM   30  C   UNL     1      -5.533   9.349 -31.093  1.00  0.00     0.210 C 
ENDBRANCH  24  29
ENDBRANCH   2  23
BRANCH   3  31
HETATM   31  C   UNL     1      -1.970   6.475 -31.456  1.00  0.00     0.038 A 
HETATM   32  C   UNL     1      -2.090   7.783 -30.978  1.00  0.00     0.032 A 
HETATM   33  C   UNL     1      -1.455   8.164 -29.790  1.00  0.00     0.039 A 
HETATM   34  C   UNL     1      -0.679   7.254 -29.070  1.00  0.00     0.068 A 
HETATM   35  C   UNL     1      -0.528   5.959 -29.558  1.00  0.00     0.039 A 
HETATM   36  C   UNL     1      -1.159   5.581 -30.748  1.00  0.00     0.032 A 
BRANCH  34  37
HETATM   37  O   UNL     1      -0.123   7.751 -27.923  1.00  0.00    -0.356 OA
HETATM   38  C   UNL     1       1.196   8.274 -28.027  1.00  0.00     0.210 C 
ENDBRANCH  34  37
ENDBRANCH   3  31
TORSDOF 7
ENDMDL
MODEL 2
REMARK VINA RESULT:      -7.8      2.384      9.287
REMARK  7 active torsions:
REMARK  status: ('A' for Active; 'I' for Inactive)
REMARK       I    between atoms: C_2  and  N_3 
REMARK    1  A    between atoms: N_3  and  C_4 
REMARK    2  A    between atoms: C_7  and  N_8 
REMARK       I    between atoms: N_8  and  C_9 
REMARK    3  A    between atoms: C_9  and  C_10 
REMARK    4  A    between atoms: C_11  and  C_12 
REMARK    5  A    between atoms: C_13  and  O_14 
REMARK    6  A    between atoms: N_20  and  C_21 
REMARK    7  A    between atoms: C_24  and  O_25 
ROOT
HETATM    1  C   UNL     1      -3.964   2.366 -32.861  1.00  0.00     0.106 C 
HETATM    2  C   UNL     1      -5.392   2.409 -32.284  1.00  0.00     0.142 C 
HETATM    3  N   UNL     1      -6.159   1.242 -32.811  1.00  0.00    -0.308 N 
HETATM    4  C   UNL     1      -5.599  -0.038 -32.672  1.00  0.00     0.225 C 
HETATM    5  O   UNL     1      -6.239  -1.093 -32.658  1.00  0.00    -0.273 OA
HETATM    6  C   UNL     1      -4.078  -0.125 -32.754  1.00  0.00     0.104 C 
HETATM    7  C   UNL     1      -3.296   1.104 -32.323  1.00  0.00     0.026 C 
ENDROOT
BRANCH   1   8
HETATM    8  C   UNL     1      -3.067   3.573 -32.603  1.00  0.00     0.228 C 
HETATM    9  N   UNL     1      -2.619   3.741 -31.308  1.00  0.00    -0.327 N 
HETATM   10  H   UNL     1      -2.976   3.115 -30.597  1.00  0.00     0.169 HD
HETATM   11  O   UNL     1      -2.779   4.290 -33.561  1.00  0.00    -0.273 OA
BRANCH   9  12
HETATM   12  C   UNL     1      -1.897   4.853 -30.814  1.00  0.00     0.034 A 
HETATM   13  C   UNL     1      -2.481   6.066 -30.451  1.00  0.00     0.032 A 
HETATM   14  C   UNL     1      -1.710   7.102 -29.903  1.00  0.00     0.032 A 
HETATM   15  C   UNL     1      -0.341   6.942 -29.707  1.00  0.00     0.034 A 
HETATM   16  C   UNL     1       0.253   5.738 -30.101  1.00  0.00     0.032 A 
HETATM   17  C   UNL     1      -0.517   4.705 -30.654  1.00  0.00     0.032 A 
BRANCH  15  18
HETATM   18  N   UNL     1       0.491   7.916 -29.117  1.00  0.00    -0.328 N 
HETATM   19  C   UNL     1       0.929   7.962 -27.804  1.00  0.00     0.218 C 
HETATM   20  C   UNL     1       1.867   9.115 -27.545  1.00  0.00     0.117 C 
HETATM   21  O   UNL     1       0.657   7.174 -26.907  1.00  0.00    -0.274 OA
HETATM   22  H   UNL     1       0.827   8.642 -29.735  1.00  0.00     0.169 HD
ENDBRANCH  15  18
ENDBRANCH   9  12
ENDBRANCH   1   8
BRANCH   2  23
HETATM   23  C   UNL     1      -6.069   3.779 -32.309  1.00  0.00    -0.001 A 
HETATM   24  C   UNL     1      -6.181   4.533 -31.120  1.00  0.00     0.076 A 
HETATM   25  C   UNL     1      -6.750   5.811 -31.136  1.00  0.00     0.037 A 
HETATM   26  C   UNL     1      -7.240   6.343 -32.326  1.00  0.00     0.003 A 
HETATM   27  C   UNL     1      -7.158   5.605 -33.503  1.00  0.00     0.001 A 
HETATM   28  C   UNL     1      -6.578   4.335 -33.497  1.00  0.00     0.012 A 
BRANCH  24  29
HETATM   29  O   UNL     1      -5.640   3.999 -29.977  1.00  0.00    -0.355 OA
HETATM   30  C   UNL     1      -5.687   4.875 -28.851  1.00  0.00     0.210 C 
ENDBRANCH  24  29
ENDBRANCH   2  23
BRANCH   3  31
HETATM   31  C   UNL     1      -7.568   1.367 -33.022  1.00  0.00     0.038 A 
HETATM   32  C   UNL     1      -8.132   1.346 -34.300  1.00  0.00     0.032 A 
HETATM   33  C   UNL     1      -9.516   1.472 -34.466  1.00  0.00     0.039 A 
HETATM   34  C   UNL     1     -10.357   1.637 -33.363  1.00  0.00     0.068 A 
HETATM   35  C   UNL     1      -9.797   1.693 -32.089  1.00  0.00     0.039 A 
HETATM   36  C   UNL     1      -8.413   1.571 -31.925  1.00  0.00     0.032 A 
BRANCH  34  37
HETATM   37  O   UNL     1     -11.687   1.738 -33.663  1.00  0.00    -0.356 OA
HETATM   38  C   UNL     1     -12.364   2.895 -33.186  1.00  0.00     0.210 C 
ENDBRANCH  34  37
ENDBRANCH   3  31
TORSDOF 7
ENDMDL
MODEL 3
REMARK VINA RESULT:      -7.7      3.397      4.676
REMARK  7 active torsions:
REMARK  status: ('A' for Active; 'I' for Inactive)
REMARK       I    between atoms: C_2  and  N_3 
REMARK    1  A    between atoms: N_3  and  C_4 
REMARK    2  A    between atoms: C_7  and  N_8 
REMARK       I    between atoms: N_8  and  C_9 
REMARK    3  A    between atoms: C_9  and  C_10 
REMARK    4  A    between atoms: C_11  and  C_12 
REMARK    5  A    between atoms: C_13  and  O_14 
REMARK    6  A    between atoms: N_20  and  C_21 
REMARK    7  A    between atoms: C_24  and  O_25 
ROOT
HETATM    1  C   UNL     1      -2.482   4.682 -31.179  1.00  0.00     0.106 C 
HETATM    2  C   UNL     1      -3.474   5.816 -30.860  1.00  0.00     0.142 C 
HETATM    3  N   UNL     1      -2.881   6.694 -29.809  1.00  0.00    -0.308 N 
HETATM    4  C   UNL     1      -1.589   7.201 -30.020  1.00  0.00     0.225 C 
HETATM    5  O   UNL     1      -1.136   8.223 -29.498  1.00  0.00    -0.273 OA
HETATM    6  C   UNL     1      -0.624   6.301 -30.785  1.00  0.00     0.104 C 
HETATM    7  C   UNL     1      -1.234   5.326 -31.776  1.00  0.00     0.026 C 
ENDROOT
BRANCH   1   8
HETATM    8  C   UNL     1      -2.969   3.559 -32.089  1.00  0.00     0.228 C 
HETATM    9  N   UNL     1      -3.800   2.618 -31.515  1.00  0.00    -0.327 N 
HETATM   10  H   UNL     1      -3.965   2.675 -30.518  1.00  0.00     0.169 HD
HETATM   11  O   UNL     1      -2.621   3.584 -33.269  1.00  0.00    -0.273 OA
BRANCH   9  12
HETATM   12  C   UNL     1      -4.257   1.426 -32.126  1.00  0.00     0.034 A 
HETATM   13  C   UNL     1      -3.653   0.181 -31.961  1.00  0.00     0.032 A 
HETATM   14  C   UNL     1      -4.203  -0.970 -32.544  1.00  0.00     0.032 A 
HETATM   15  C   UNL     1      -5.369  -0.896 -33.300  1.00  0.00     0.034 A 
HETATM   16  C   UNL     1      -5.959   0.358 -33.495  1.00  0.00     0.032 A 
HETATM   17  C   UNL     1      -5.406   1.509 -32.917  1.00  0.00     0.032 A 
BRANCH  15  18
HETATM   18  N   UNL     1      -6.009  -2.014 -33.875  1.00  0.00    -0.328 N 
HETATM   19  C   UNL     1      -5.432  -3.004 -34.653  1.00  0.00     0.218 C 
HETATM   20  C   UNL     1      -6.412  -4.086 -35.037  1.00  0.00     0.117 C 
HETATM   21  O   UNL     1      -4.261  -3.082 -35.000  1.00  0.00    -0.274 OA
HETATM   22  H   UNL     1      -6.994  -2.113 -33.666  1.00  0.00     0.169 HD
ENDBRANCH  15  18
ENDBRANCH   9  12
ENDBRANCH   1   8
BRANCH   2  23
HETATM   23  C   UNL     1      -4.932   5.386 -30.693  1.00  0.00    -0.001 A 
HETATM   24  C   UNL     1      -5.853   5.588 -31.744  1.00  0.00     0.076 A 
HETATM   25  C   UNL     1      -7.177   5.152 -31.627  1.00  0.00     0.037 A 
HETATM   26  C   UNL     1      -7.609   4.536 -30.455  1.00  0.00     0.003 A 
HETATM   27  C   UNL     1      -6.720   4.348 -29.401  1.00  0.00     0.001 A 
HETATM   28  C   UNL     1      -5.394   4.768 -29.516  1.00  0.00     0.012 A 
BRANCH  24  29
HETATM   29  O   UNL     1      -5.379   6.151 -32.903  1.00  0.00    -0.355 OA
HETATM   30  C   UNL     1      -5.476   5.296 -34.043  1.00  0.00     0.210 C 
ENDBRANCH  24  29
ENDBRANCH   2  23
BRANCH   3  31
HETATM   31  C   UNL     1      -3.743   7.349 -28.874  1.00  0.00     0.038 A 
HETATM   32  C   UNL     1      -3.788   6.986 -27.526  1.00  0.00     0.032 A 
HETATM   33  C   UNL     1      -4.647   7.650 -26.642  1.00  0.00     0.039 A 
HETATM   34  C   UNL     1      -5.483   8.674 -27.090  1.00  0.00     0.068 A 
HETATM   35  C   UNL     1      -5.467   9.018 -28.439  1.00  0.00     0.039 A 
HETATM   36  C   UNL     1      -4.612   8.350 -29.323  1.00  0.00     0.032 A 
BRANCH  34  37
HETATM   37  O   UNL     1      -6.262   9.246 -26.123  1.00  0.00    -0.356 OA
HETATM   38  C   UNL     1      -5.583   9.930 -25.077  1.00  0.00     0.210 C 
ENDBRANCH  34  37
ENDBRANCH   3  31
TORSDOF 7
ENDMDL
MODEL 4
REMARK VINA RESULT:      -7.7      3.024      4.901
REMARK  7 active torsions:
REMARK  status: ('A' for Active; 'I' for Inactive)
REMARK       I    between atoms: C_2  and  N_3 
REMARK    1  A    between atoms: N_3  and  C_4 
REMARK    2  A    between atoms: C_7  and  N_8 
REMARK       I    between atoms: N_8  and  C_9 
REMARK    3  A    between atoms: C_9  and  C_10 
REMARK    4  A    between atoms: C_11  and  C_12 
REMARK    5  A    between atoms: C_13  and  O_14 
REMARK    6  A    between atoms: N_20  and  C_21 
REMARK    7  A    between atoms: C_24  and  O_25 
ROOT
HETATM    1  C   UNL     1      -7.480   4.923 -31.300  1.00  0.00     0.106 C 
HETATM    2  C   UNL     1      -6.110   5.199 -30.651  1.00  0.00     0.142 C 
HETATM    3  N   UNL     1      -6.218   6.421 -29.800  1.00  0.00    -0.308 N 
HETATM    4  C   UNL     1      -7.246   6.476 -28.846  1.00  0.00     0.225 C 
HETATM    5  O   UNL     1      -7.229   7.171 -27.827  1.00  0.00    -0.273 OA
HETATM    6  C   UNL     1      -8.553   5.782 -29.217  1.00  0.00     0.104 C 
HETATM    7  C   UNL     1      -8.459   4.607 -30.173  1.00  0.00     0.026 C 
ENDROOT
BRANCH   1   8
HETATM    8  C   UNL     1      -7.546   3.830 -32.361  1.00  0.00     0.228 C 
HETATM    9  N   UNL     1      -7.381   2.532 -31.919  1.00  0.00    -0.327 N 
HETATM   10  H   UNL     1      -7.142   2.389 -30.947  1.00  0.00     0.169 HD
HETATM   11  O   UNL     1      -7.771   4.169 -33.523  1.00  0.00    -0.273 OA
BRANCH   9  12
HETATM   12  C   UNL     1      -7.268   1.381 -32.735  1.00  0.00     0.034 A 
HETATM   13  C   UNL     1      -6.323   1.232 -33.750  1.00  0.00     0.032 A 
HETATM   14  C   UNL     1      -6.226   0.034 -34.473  1.00  0.00     0.032 A 
HETATM   15  C   UNL     1      -7.071  -1.036 -34.194  1.00  0.00     0.034 A 
HETATM   16  C   UNL     1      -8.043  -0.877 -33.199  1.00  0.00     0.032 A 
HETATM   17  C   UNL     1      -8.143   0.322 -32.480  1.00  0.00     0.032 A 
BRANCH  15  18
HETATM   18  N   UNL     1      -7.002  -2.287 -34.842  1.00  0.00    -0.328 N 
HETATM   19  C   UNL     1      -5.979  -3.217 -34.764  1.00  0.00     0.218 C 
HETATM   20  C   UNL     1      -6.279  -4.477 -35.538  1.00  0.00     0.117 C 
HETATM   21  O   UNL     1      -4.935  -3.116 -34.131  1.00  0.00    -0.274 OA
HETATM   22  H   UNL     1      -7.807  -2.540 -35.399  1.00  0.00     0.169 HD
ENDBRANCH  15  18
ENDBRANCH   9  12
ENDBRANCH   1   8
BRANCH   2  23
HETATM   23  C   UNL     1      -4.906   5.083 -31.586  1.00  0.00    -0.001 A 
HETATM   24  C   UNL     1      -4.078   3.940 -31.532  1.00  0.00     0.076 A 
HETATM   25  C   UNL     1      -3.004   3.795 -32.417  1.00  0.00     0.037 A 
HETATM   26  C   UNL     1      -2.723   4.794 -33.345  1.00  0.00     0.003 A 
HETATM   27  C   UNL     1      -3.515   5.937 -33.396  1.00  0.00     0.001 A 
HETATM   28  C   UNL     1      -4.597   6.082 -32.526  1.00  0.00     0.012 A 
BRANCH  24  29
HETATM   29  O   UNL     1      -4.417   2.952 -30.642  1.00  0.00    -0.355 OA
HETATM   30  C   UNL     1      -3.925   1.660 -30.996  1.00  0.00     0.210 C 
ENDBRANCH  24  29
ENDBRANCH   2  23
BRANCH   3  31
HETATM   31  C   UNL     1      -5.078   7.270 -29.646  1.00  0.00     0.038 A 
HETATM   32  C   UNL     1      -3.956   6.881 -28.908  1.00  0.00     0.032 A 
HETATM   33  C   UNL     1      -2.860   7.741 -28.779  1.00  0.00     0.039 A 
HETATM   34  C   UNL     1      -2.870   9.006 -29.369  1.00  0.00     0.068 A 
HETATM   35  C   UNL     1      -3.998   9.413 -30.077  1.00  0.00     0.039 A 
HETATM   36  C   UNL     1      -5.095   8.554 -30.201  1.00  0.00     0.032 A 
BRANCH  34  37
HETATM   37  O   UNL     1      -1.733   9.741 -29.176  1.00  0.00    -0.356 OA
HETATM   38  C   UNL     1      -0.935   9.399 -28.048  1.00  0.00     0.210 C 
ENDBRANCH  34  37
ENDBRANCH   3  31
TORSDOF 7
ENDMDL
MODEL 5
REMARK VINA RESULT:      -7.4      2.713      9.065
REMARK  7 active torsions:
REMARK  status: ('A' for Active; 'I' for Inactive)
REMARK       I    between atoms: C_2  and  N_3 
REMARK    1  A    between atoms: N_3  and  C_4 
REMARK    2  A    between atoms: C_7  and  N_8 
REMARK       I    between atoms: N_8  and  C_9 
REMARK    3  A    between atoms: C_9  and  C_10 
REMARK    4  A    between atoms: C_11  and  C_12 
REMARK    5  A    between atoms: C_13  and  O_14 
REMARK    6  A    between atoms: N_20  and  C_21 
REMARK    7  A    between atoms: C_24  and  O_25 
ROOT
HETATM    1  C   UNL     1      -8.223   3.952 -31.126  1.00  0.00     0.106 C 
HETATM    2  C   UNL     1      -7.567   3.254 -32.334  1.00  0.00     0.142 C 
HETATM    3  N   UNL     1      -8.507   2.223 -32.862  1.00  0.00    -0.308 N 
HETATM    4  C   UNL     1      -9.822   2.614 -33.160  1.00  0.00     0.225 C 
HETATM    5  O   UNL     1     -10.567   2.040 -33.959  1.00  0.00    -0.273 OA
HETATM    6  C   UNL     1     -10.424   3.698 -32.272  1.00  0.00     0.104 C 
HETATM    7  C   UNL     1      -9.458   4.684 -31.641  1.00  0.00     0.026 C 
ENDROOT
BRANCH   1   8
HETATM    8  C   UNL     1      -7.356   4.909 -30.314  1.00  0.00     0.228 C 
HETATM    9  N   UNL     1      -6.663   5.867 -31.028  1.00  0.00    -0.327 N 
HETATM   10  H   UNL     1      -6.699   5.824 -32.038  1.00  0.00     0.169 HD
HETATM   11  O   UNL     1      -7.357   4.789 -29.090  1.00  0.00    -0.273 OA
BRANCH   9  12
HETATM   12  C   UNL     1      -5.702   6.764 -30.504  1.00  0.00     0.034 A 
HETATM   13  C   UNL     1      -6.017   7.948 -29.840  1.00  0.00     0.032 A 
HETATM   14  C   UNL     1      -5.012   8.755 -29.287  1.00  0.00     0.032 A 
HETATM   15  C   UNL     1      -3.672   8.389 -29.387  1.00  0.00     0.034 A 
HETATM   16  C   UNL     1      -3.350   7.218 -30.082  1.00  0.00     0.032 A 
HETATM   17  C   UNL     1      -4.355   6.416 -30.640  1.00  0.00     0.032 A 
BRANCH  15  18
HETATM   18  N   UNL     1      -2.610   9.119 -28.814  1.00  0.00    -0.328 N 
HETATM   19  C   UNL     1      -1.975   8.872 -27.609  1.00  0.00     0.218 C 
HETATM   20  C   UNL     1      -0.830   9.820 -27.350  1.00  0.00     0.117 C 
HETATM   21  O   UNL     1      -2.232   7.982 -26.808  1.00  0.00    -0.274 OA
HETATM   22  H   UNL     1      -2.257   9.889 -29.366  1.00  0.00     0.169 HD
ENDBRANCH  15  18
ENDBRANCH   9  12
ENDBRANCH   1   8
BRANCH   2  23
HETATM   23  C   UNL     1      -6.102   2.859 -32.148  1.00  0.00    -0.001 A 
HETATM   24  C   UNL     1      -5.099   3.483 -32.921  1.00  0.00     0.076 A 
HETATM   25  C   UNL     1      -3.749   3.170 -32.726  1.00  0.00     0.037 A 
HETATM   26  C   UNL     1      -3.383   2.215 -31.782  1.00  0.00     0.003 A 
HETATM   27  C   UNL     1      -4.360   1.574 -31.026  1.00  0.00     0.001 A 
HETATM   28  C   UNL     1      -5.708   1.892 -31.206  1.00  0.00     0.012 A 
BRANCH  24  29
HETATM   29  O   UNL     1      -5.493   4.457 -33.805  1.00  0.00    -0.355 OA
HETATM   30  C   UNL     1      -4.423   5.278 -34.274  1.00  0.00     0.210 C 
ENDBRANCH  24  29
ENDBRANCH   2  23
BRANCH   3  31
HETATM   31  C   UNL     1      -7.980   1.036 -33.462  1.00  0.00     0.038 A 
HETATM   32  C   UNL     1      -7.965  -0.190 -32.792  1.00  0.00     0.032 A 
HETATM   33  C   UNL     1      -7.439  -1.329 -33.411  1.00  0.00     0.039 A 
HETATM   34  C   UNL     1      -6.906  -1.262 -34.700  1.00  0.00     0.068 A 
HETATM   35  C   UNL     1      -6.888  -0.036 -35.360  1.00  0.00     0.039 A 
HETATM   36  C   UNL     1      -7.410   1.104 -34.738  1.00  0.00     0.032 A 
BRANCH  34  37
HETATM   37  O   UNL     1      -6.436  -2.448 -35.193  1.00  0.00    -0.356 OA
HETATM   38  C   UNL     1      -5.173  -2.886 -34.705  1.00  0.00     0.210 C 
ENDBRANCH  34  37
ENDBRANCH   3  31
TORSDOF 7
ENDMDL
MODEL 6
REMARK VINA RESULT:      -7.3     19.119     21.809
REMARK  7 active torsions:
REMARK  status: ('A' for Active; 'I' for Inactive)
REMARK       I    between atoms: C_2  and  N_3 
REMARK    1  A    between atoms: N_3  and  C_4 
REMARK    2  A    between atoms: C_7  and  N_8 
REMARK       I    between atoms: N_8  and  C_9 
REMARK    3  A    between atoms: C_9  and  C_10 
REMARK    4  A    between atoms: C_11  and  C_12 
REMARK    5  A    between atoms: C_13  and  O_14 
REMARK    6  A    between atoms: N_20  and  C_21 
REMARK    7  A    between atoms: C_24  and  O_25 
ROOT
HETATM    1  C   UNL     1      -7.227 -13.435 -38.703  1.00  0.00     0.106 C 
HETATM    2  C   UNL     1      -5.928 -14.263 -38.745  1.00  0.00     0.142 C 
HETATM    3  N   UNL     1      -4.997 -13.751 -37.696  1.00  0.00    -0.308 N 
HETATM    4  C   UNL     1      -5.478 -13.634 -36.382  1.00  0.00     0.225 C 
HETATM    5  O   UNL     1      -4.774 -13.640 -35.369  1.00  0.00    -0.273 OA
HETATM    6  C   UNL     1      -6.950 -13.268 -36.229  1.00  0.00     0.104 C 
HETATM    7  C   UNL     1      -7.883 -13.690 -37.349  1.00  0.00     0.026 C 
ENDROOT
BRANCH   1   8
HETATM    8  C   UNL     1      -8.241 -13.665 -39.819  1.00  0.00     0.228 C 
HETATM    9  N   UNL     1      -8.850 -14.905 -39.851  1.00  0.00    -0.327 N 
HETATM   10  H   UNL     1      -8.530 -15.607 -39.197  1.00  0.00     0.169 HD
HETATM   11  O   UNL     1      -8.472 -12.733 -40.588  1.00  0.00    -0.273 OA
BRANCH   9  12
HETATM   12  C   UNL     1      -9.712 -15.384 -40.866  1.00  0.00     0.034 A 
HETATM   13  C   UNL     1     -11.032 -14.969 -41.031  1.00  0.00     0.032 A 
HETATM   14  C   UNL     1     -11.807 -15.437 -42.103  1.00  0.00     0.032 A 
HETATM   15  C   UNL     1     -11.272 -16.328 -43.030  1.00  0.00     0.034 A 
HETATM   16  C   UNL     1      -9.957 -16.771 -42.848  1.00  0.00     0.032 A 
HETATM   17  C   UNL     1      -9.186 -16.308 -41.773  1.00  0.00     0.032 A 
BRANCH  15  18
HETATM   18  N   UNL     1     -11.969 -16.804 -44.160  1.00  0.00    -0.328 N 
HETATM   19  C   UNL     1     -11.730 -16.489 -45.488  1.00  0.00     0.218 C 
HETATM   20  C   UNL     1     -12.631 -17.243 -46.435  1.00  0.00     0.117 C 
HETATM   21  O   UNL     1     -10.880 -15.723 -45.923  1.00  0.00    -0.274 OA
HETATM   22  H   UNL     1     -12.704 -17.473 -43.975  1.00  0.00     0.169 HD
ENDBRANCH  15  18
ENDBRANCH   9  12
ENDBRANCH   1   8
BRANCH   2  23
HETATM   23  C   UNL     1      -5.360 -14.523 -40.140  1.00  0.00    -0.001 A 
HETATM   24  C   UNL     1      -5.244 -15.846 -40.619  1.00  0.00     0.076 A 
HETATM   25  C   UNL     1      -4.776 -16.098 -41.913  1.00  0.00     0.037 A 
HETATM   26  C   UNL     1      -4.391 -15.041 -42.735  1.00  0.00     0.003 A 
HETATM   27  C   UNL     1      -4.478 -13.732 -42.270  1.00  0.00     0.001 A 
HETATM   28  C   UNL     1      -4.957 -13.473 -40.986  1.00  0.00     0.012 A 
BRANCH  24  29
HETATM   29  O   UNL     1      -5.682 -16.858 -39.802  1.00  0.00    -0.355 OA
HETATM   30  C   UNL     1      -6.165 -18.002 -40.506  1.00  0.00     0.210 C 
ENDBRANCH  24  29
ENDBRANCH   2  23
BRANCH   3  31
HETATM   31  C   UNL     1      -3.586 -13.816 -37.920  1.00  0.00     0.038 A 
HETATM   32  C   UNL     1      -2.890 -15.028 -37.915  1.00  0.00     0.032 A 
HETATM   33  C   UNL     1      -1.508 -15.051 -38.135  1.00  0.00     0.039 A 
HETATM   34  C   UNL     1      -0.797 -13.869 -38.349  1.00  0.00     0.068 A 
HETATM   35  C   UNL     1      -1.480 -12.656 -38.322  1.00  0.00     0.039 A 
HETATM   36  C   UNL     1      -2.860 -12.633 -38.096  1.00  0.00     0.032 A 
BRANCH  34  37
HETATM   37  O   UNL     1       0.544 -14.033 -38.563  1.00  0.00    -0.356 OA
HETATM   38  C   UNL     1       0.927 -15.099 -39.425  1.00  0.00     0.210 C 
ENDBRANCH  34  37
ENDBRANCH   3  31
TORSDOF 7
ENDMDL
MODEL 7
REMARK VINA RESULT:      -7.3      1.651      2.064
REMARK  7 active torsions:
REMARK  status: ('A' for Active; 'I' for Inactive)
REMARK       I    between atoms: C_2  and  N_3 
REMARK    1  A    between atoms: N_3  and  C_4 
REMARK    2  A    between atoms: C_7  and  N_8 
REMARK       I    between atoms: N_8  and  C_9 
REMARK    3  A    between atoms: C_9  and  C_10 
REMARK    4  A    between atoms: C_11  and  C_12 
REMARK    5  A    between atoms: C_13  and  O_14 
REMARK    6  A    between atoms: N_20  and  C_21 
REMARK    7  A    between atoms: C_24  and  O_25 
ROOT
HETATM    1  C   UNL     1      -3.751   4.325 -31.955  1.00  0.00     0.106 C 
HETATM    2  C   UNL     1      -4.034   5.813 -31.667  1.00  0.00     0.142 C 
HETATM    3  N   UNL     1      -2.745   6.564 -31.708  1.00  0.00    -0.308 N 
HETATM    4  C   UNL     1      -1.927   6.417 -32.840  1.00  0.00     0.225 C 
HETATM    5  O   UNL     1      -1.088   7.239 -33.218  1.00  0.00    -0.273 OA
HETATM    6  C   UNL     1      -1.944   5.050 -33.516  1.00  0.00     0.104 C 
HETATM    7  C   UNL     1      -3.216   4.234 -33.381  1.00  0.00     0.026 C 
ENDROOT
BRANCH   1   8
HETATM    8  C   UNL     1      -4.905   3.345 -31.773  1.00  0.00     0.228 C 
HETATM    9  N   UNL     1      -5.934   3.428 -32.689  1.00  0.00    -0.327 N 
HETATM   10  H   UNL     1      -5.908   4.181 -33.365  1.00  0.00     0.169 HD
HETATM   11  O   UNL     1      -4.828   2.531 -30.852  1.00  0.00    -0.273 OA
BRANCH   9  12
HETATM   12  C   UNL     1      -7.158   2.720 -32.635  1.00  0.00     0.034 A 
HETATM   13  C   UNL     1      -8.178   2.990 -31.725  1.00  0.00     0.032 A 
HETATM   14  C   UNL     1      -9.393   2.290 -31.775  1.00  0.00     0.032 A 
HETATM   15  C   UNL     1      -9.609   1.309 -32.738  1.00  0.00     0.034 A 
HETATM   16  C   UNL     1      -8.574   1.012 -33.632  1.00  0.00     0.032 A 
HETATM   17  C   UNL     1      -7.358   1.708 -33.578  1.00  0.00     0.032 A 
BRANCH  15  18
HETATM   18  N   UNL     1     -10.819   0.598 -32.885  1.00  0.00    -0.328 N 
HETATM   19  C   UNL     1     -11.893   0.928 -33.695  1.00  0.00     0.218 C 
HETATM   20  C   UNL     1     -12.992  -0.105 -33.650  1.00  0.00     0.117 C 
HETATM   21  O   UNL     1     -11.997   1.908 -34.420  1.00  0.00    -0.274 OA
HETATM   22  H   UNL     1     -10.890  -0.263 -32.361  1.00  0.00     0.169 HD
ENDBRANCH  15  18
ENDBRANCH   9  12
ENDBRANCH   1   8
BRANCH   2  23
HETATM   23  C   UNL     1      -4.984   6.087 -30.502  1.00  0.00    -0.001 A 
HETATM   24  C   UNL     1      -6.203   6.762 -30.730  1.00  0.00     0.076 A 
HETATM   25  C   UNL     1      -7.108   6.974 -29.684  1.00  0.00     0.037 A 
HETATM   26  C   UNL     1      -6.801   6.543 -28.396  1.00  0.00     0.003 A 
HETATM   27  C   UNL     1      -5.593   5.895 -28.150  1.00  0.00     0.001 A 
HETATM   28  C   UNL     1      -4.693   5.668 -29.191  1.00  0.00     0.012 A 
BRANCH  24  29
HETATM   29  O   UNL     1      -6.496   7.126 -32.021  1.00  0.00    -0.355 OA
HETATM   30  C   UNL     1      -7.330   8.280 -32.121  1.00  0.00     0.210 C 
ENDBRANCH  24  29
ENDBRANCH   2  23
BRANCH   3  31
HETATM   31  C   UNL     1      -2.575   7.710 -30.869  1.00  0.00     0.038 A 
HETATM   32  C   UNL     1      -3.237   8.915 -31.116  1.00  0.00     0.032 A 
HETATM   33  C   UNL     1      -3.043  10.015 -30.272  1.00  0.00     0.039 A 
HETATM   34  C   UNL     1      -2.177   9.936 -29.181  1.00  0.00     0.068 A 
HETATM   35  C   UNL     1      -1.488   8.748 -28.949  1.00  0.00     0.039 A 
HETATM   36  C   UNL     1      -1.678   7.651 -29.796  1.00  0.00     0.032 A 
BRANCH  34  37
HETATM   37  O   UNL     1      -2.087  11.077 -28.432  1.00  0.00    -0.356 OA
HETATM   38  C   UNL     1      -1.792  10.912 -27.050  1.00  0.00     0.210 C 
ENDBRANCH  34  37
ENDBRANCH   3  31
TORSDOF 7
ENDMDL
MODEL 8
REMARK VINA RESULT:      -7.2     19.043     22.320
REMARK  7 active torsions:
REMARK  status: ('A' for Active; 'I' for Inactive)
REMARK       I    between atoms: C_2  and  N_3 
REMARK    1  A    between atoms: N_3  and  C_4 
REMARK    2  A    between atoms: C_7  and  N_8 
REMARK       I    between atoms: N_8  and  C_9 
REMARK    3  A    between atoms: C_9  and  C_10 
REMARK    4  A    between atoms: C_11  and  C_12 
REMARK    5  A    between atoms: C_13  and  O_14 
REMARK    6  A    between atoms: N_20  and  C_21 
REMARK    7  A    between atoms: C_24  and  O_25 
ROOT
HETATM    1  C   UNL     1      -2.251 -14.152 -39.998  1.00  0.00     0.106 C 
HETATM    2  C   UNL     1      -3.680 -14.591 -39.627  1.00  0.00     0.142 C 
HETATM    3  N   UNL     1      -4.603 -14.214 -40.738  1.00  0.00    -0.308 N 
HETATM    4  C   UNL     1      -4.274 -14.622 -42.041  1.00  0.00     0.225 C 
HETATM    5  O   UNL     1      -5.082 -14.766 -42.962  1.00  0.00    -0.273 OA
HETATM    6  C   UNL     1      -2.788 -14.683 -42.376  1.00  0.00     0.104 C 
HETATM    7  C   UNL     1      -1.835 -14.955 -41.226  1.00  0.00     0.026 C 
ENDROOT
BRANCH   1   8
HETATM    8  C   UNL     1      -1.179 -14.268 -38.919  1.00  0.00     0.228 C 
HETATM    9  N   UNL     1      -1.023 -15.511 -38.337  1.00  0.00    -0.327 N 
HETATM   10  H   UNL     1      -1.678 -16.239 -38.593  1.00  0.00     0.169 HD
HETATM   11  O   UNL     1      -0.509 -13.268 -38.663  1.00  0.00    -0.273 OA
BRANCH   9  12
HETATM   12  C   UNL     1      -0.195 -15.816 -37.232  1.00  0.00     0.034 A 
HETATM   13  C   UNL     1       1.116 -16.276 -37.340  1.00  0.00     0.032 A 
HETATM   14  C   UNL     1       1.902 -16.493 -36.198  1.00  0.00     0.032 A 
HETATM   15  C   UNL     1       1.389 -16.252 -34.927  1.00  0.00     0.034 A 
HETATM   16  C   UNL     1       0.062 -15.822 -34.813  1.00  0.00     0.032 A 
HETATM   17  C   UNL     1      -0.724 -15.611 -35.955  1.00  0.00     0.032 A 
BRANCH  15  18
HETATM   18  N   UNL     1       2.130 -16.397 -33.736  1.00  0.00    -0.328 N 
HETATM   19  C   UNL     1       2.061 -17.440 -32.826  1.00  0.00     0.218 C 
HETATM   20  C   UNL     1       3.056 -17.294 -31.700  1.00  0.00     0.117 C 
HETATM   21  O   UNL     1       1.329 -18.419 -32.881  1.00  0.00    -0.274 OA
HETATM   22  H   UNL     1       2.807 -15.671 -33.547  1.00  0.00     0.169 HD
ENDBRANCH  15  18
ENDBRANCH   9  12
ENDBRANCH   1   8
BRANCH   2  23
HETATM   23  C   UNL     1      -4.115 -14.271 -38.197  1.00  0.00    -0.001 A 
HETATM   24  C   UNL     1      -4.526 -15.311 -37.334  1.00  0.00     0.076 A 
HETATM   25  C   UNL     1      -4.876 -15.041 -36.007  1.00  0.00     0.037 A 
HETATM   26  C   UNL     1      -4.849 -13.733 -35.529  1.00  0.00     0.003 A 
HETATM   27  C   UNL     1      -4.468 -12.693 -36.372  1.00  0.00     0.001 A 
HETATM   28  C   UNL     1      -4.103 -12.957 -37.693  1.00  0.00     0.012 A 
BRANCH  24  29
HETATM   29  O   UNL     1      -4.489 -16.593 -37.823  1.00  0.00    -0.355 OA
HETATM   30  C   UNL     1      -3.819 -17.519 -36.968  1.00  0.00     0.210 C 
ENDBRANCH  24  29
ENDBRANCH   2  23
BRANCH   3  31
HETATM   31  C   UNL     1      -5.958 -13.869 -40.437  1.00  0.00     0.038 A 
HETATM   32  C   UNL     1      -6.900 -14.827 -40.054  1.00  0.00     0.032 A 
HETATM   33  C   UNL     1      -8.218 -14.450 -39.769  1.00  0.00     0.039 A 
HETATM   34  C   UNL     1      -8.620 -13.118 -39.875  1.00  0.00     0.068 A 
HETATM   35  C   UNL     1      -7.694 -12.164 -40.288  1.00  0.00     0.039 A 
HETATM   36  C   UNL     1      -6.379 -12.542 -40.578  1.00  0.00     0.032 A 
BRANCH  34  37
HETATM   37  O   UNL     1      -9.929 -12.884 -39.557  1.00  0.00    -0.356 OA
HETATM   38  C   UNL     1     -10.907 -13.546 -40.351  1.00  0.00     0.210 C 
ENDBRANCH  34  37
ENDBRANCH   3  31
TORSDOF 7
ENDMDL
MODEL 9
REMARK VINA RESULT:      -7.1      1.883      3.257
REMARK  7 active torsions:
REMARK  status: ('A' for Active; 'I' for Inactive)
REMARK       I    between atoms: C_2  and  N_3 
REMARK    1  A    between atoms: N_3  and  C_4 
REMARK    2  A    between atoms: C_7  and  N_8 
REMARK       I    between atoms: N_8  and  C_9 
REMARK    3  A    between atoms: C_9  and  C_10 
REMARK    4  A    between atoms: C_11  and  C_12 
REMARK    5  A    between atoms: C_13  and  O_14 
REMARK    6  A    between atoms: N_20  and  C_21 
REMARK    7  A    between atoms: C_24  and  O_25 
ROOT
HETATM    1  C   UNL     1      -6.518   6.793 -32.539  1.00  0.00     0.106 C 
HETATM    2  C   UNL     1      -5.536   6.446 -31.404  1.00  0.00     0.142 C 
HETATM    3  N   UNL     1      -4.674   7.635 -31.133  1.00  0.00    -0.308 N 
HETATM    4  C   UNL     1      -5.301   8.869 -30.897  1.00  0.00     0.225 C 
HETATM    5  O   UNL     1      -4.802   9.807 -30.270  1.00  0.00    -0.273 OA
HETATM    6  C   UNL     1      -6.602   9.124 -31.651  1.00  0.00     0.104 C 
HETATM    7  C   UNL     1      -7.428   7.906 -32.027  1.00  0.00     0.026 C 
ENDROOT
BRANCH   1   8
HETATM    8  C   UNL     1      -7.363   5.657 -33.106  1.00  0.00     0.228 C 
HETATM    9  N   UNL     1      -8.464   5.277 -32.362  1.00  0.00    -0.327 N 
HETATM   10  H   UNL     1      -8.594   5.707 -31.455  1.00  0.00     0.169 HD
HETATM   11  O   UNL     1      -7.033   5.180 -34.191  1.00  0.00    -0.273 OA
BRANCH   9  12
HETATM   12  C   UNL     1      -9.303   4.168 -32.620  1.00  0.00     0.034 A 
HETATM   13  C   UNL     1      -8.845   2.861 -32.777  1.00  0.00     0.032 A 
HETATM   14  C   UNL     1      -9.743   1.799 -32.964  1.00  0.00     0.032 A 
HETATM   15  C   UNL     1     -11.115   2.028 -32.996  1.00  0.00     0.034 A 
HETATM   16  C   UNL     1     -11.576   3.343 -32.873  1.00  0.00     0.032 A 
HETATM   17  C   UNL     1     -10.678   4.404 -32.692  1.00  0.00     0.032 A 
BRANCH  15  18
HETATM   18  N   UNL     1     -12.082   1.009 -33.129  1.00  0.00    -0.328 N 
HETATM   19  C   UNL     1     -13.009   0.859 -34.148  1.00  0.00     0.218 C 
HETATM   20  C   UNL     1     -13.840  -0.391 -33.997  1.00  0.00     0.117 C 
HETATM   21  O   UNL     1     -13.172   1.596 -35.112  1.00  0.00    -0.274 OA
HETATM   22  H   UNL     1     -12.071   0.294 -32.414  1.00  0.00     0.169 HD
ENDBRANCH  15  18
ENDBRANCH   9  12
ENDBRANCH   1   8
BRANCH   2  23
HETATM   23  C   UNL     1      -4.856   5.082 -31.517  1.00  0.00    -0.001 A 
HETATM   24  C   UNL     1      -5.271   4.016 -30.689  1.00  0.00     0.076 A 
HETATM   25  C   UNL     1      -4.696   2.747 -30.817  1.00  0.00     0.037 A 
HETATM   26  C   UNL     1      -3.684   2.529 -31.748  1.00  0.00     0.003 A 
HETATM   27  C   UNL     1      -3.247   3.575 -32.557  1.00  0.00     0.001 A 
HETATM   28  C   UNL     1      -3.827   4.839 -32.444  1.00  0.00     0.012 A 
BRANCH  24  29
HETATM   29  O   UNL     1      -6.307   4.253 -29.820  1.00  0.00    -0.355 OA
HETATM   30  C   UNL     1      -7.177   3.135 -29.638  1.00  0.00     0.210 C 
ENDBRANCH  24  29
ENDBRANCH   2  23
BRANCH   3  31
HETATM   31  C   UNL     1      -3.331   7.439 -30.685  1.00  0.00     0.038 A 
HETATM   32  C   UNL     1      -3.033   7.068 -29.371  1.00  0.00     0.032 A 
HETATM   33  C   UNL     1      -1.704   6.887 -28.970  1.00  0.00     0.039 A 
HETATM   34  C   UNL     1      -0.653   7.087 -29.866  1.00  0.00     0.068 A 
HETATM   35  C   UNL     1      -0.941   7.489 -31.167  1.00  0.00     0.039 A 
HETATM   36  C   UNL     1      -2.269   7.675 -31.566  1.00  0.00     0.032 A 
BRANCH  34  37
HETATM   37  O   UNL     1       0.594   6.866 -29.350  1.00  0.00    -0.356 OA
HETATM   38  C   UNL     1       0.754   7.080 -27.952  1.00  0.00     0.210 C 
ENDBRANCH  34  37
ENDBRANCH   3  31
TORSDOF 7
ENDMDL
MODEL 10
REMARK VINA RESULT:      -7.1      2.626      9.401
REMARK  7 active torsions:
REMARK  status: ('A' for Active; 'I' for Inactive)
REMARK       I    between atoms: C_2  and  N_3 
REMARK    1  A    between atoms: N_3  and  C_4 
REMARK    2  A    between atoms: C_7  and  N_8 
REMARK       I    between atoms: N_8  and  C_9 
REMARK    3  A    between atoms: C_9  and  C_10 
REMARK    4  A    between atoms: C_11  and  C_12 
REMARK    5  A    between atoms: C_13  and  O_14 
REMARK    6  A    between atoms: N_20  and  C_21 
REMARK    7  A    between atoms: C_24  and  O_25 
ROOT
HETATM    1  C   UNL     1      -3.595   4.832 -31.814  1.00  0.00     0.106 C 
HETATM    2  C   UNL     1      -4.964   4.561 -31.161  1.00  0.00     0.142 C 
HETATM    3  N   UNL     1      -5.644   3.461 -31.908  1.00  0.00    -0.308 N 
HETATM    4  C   UNL     1      -4.939   2.264 -32.113  1.00  0.00     0.225 C 
HETATM    5  O   UNL     1      -5.459   1.164 -32.317  1.00  0.00    -0.273 OA
HETATM    6  C   UNL     1      -3.431   2.390 -32.302  1.00  0.00     0.104 C 
HETATM    7  C   UNL     1      -2.752   3.572 -31.636  1.00  0.00     0.026 C 
ENDROOT
BRANCH   1   8
HETATM    8  C   UNL     1      -2.814   6.048 -31.326  1.00  0.00     0.228 C 
HETATM    9  N   UNL     1      -2.260   5.958 -30.064  1.00  0.00    -0.327 N 
HETATM   10  H   UNL     1      -2.474   5.140 -29.509  1.00  0.00     0.169 HD
HETATM   11  O   UNL     1      -2.702   7.005 -32.092  1.00  0.00    -0.273 OA
BRANCH   9  12
HETATM   12  C   UNL     1      -1.619   7.004 -29.360  1.00  0.00     0.034 A 
HETATM   13  C   UNL     1      -2.290   8.059 -28.744  1.00  0.00     0.032 A 
HETATM   14  C   UNL     1      -1.591   9.025 -28.003  1.00  0.00     0.032 A 
HETATM   15  C   UNL     1      -0.208   8.950 -27.865  1.00  0.00     0.034 A 
HETATM   16  C   UNL     1       0.472   7.911 -28.510  1.00  0.00     0.032 A 
HETATM   17  C   UNL     1      -0.226   6.950 -29.254  1.00  0.00     0.032 A 
BRANCH  15  18
HETATM   18  N   UNL     1       0.558   9.852 -27.097  1.00  0.00    -0.328 N 
HETATM   19  C   UNL     1       0.625   9.931 -25.716  1.00  0.00     0.218 C 
HETATM   20  C   UNL     1       1.607  10.975 -25.241  1.00  0.00     0.117 C 
HETATM   21  O   UNL     1       0.016   9.244 -24.906  1.00  0.00    -0.274 OA
HETATM   22  H   UNL     1       1.145  10.487 -27.619  1.00  0.00     0.169 HD
ENDBRANCH  15  18
ENDBRANCH   9  12
ENDBRANCH   1   8
BRANCH   2  23
HETATM   23  C   UNL     1      -5.784   5.804 -30.816  1.00  0.00    -0.001 A 
HETATM   24  C   UNL     1      -6.104   6.087 -29.470  1.00  0.00     0.076 A 
HETATM   25  C   UNL     1      -6.808   7.248 -29.133  1.00  0.00     0.037 A 
HETATM   26  C   UNL     1      -7.226   8.126 -30.129  1.00  0.00     0.003 A 
HETATM   27  C   UNL     1      -6.938   7.851 -31.463  1.00  0.00     0.001 A 
HETATM   28  C   UNL     1      -6.224   6.702 -31.805  1.00  0.00     0.012 A 
BRANCH  24  29
HETATM   29  O   UNL     1      -5.631   5.227 -28.511  1.00  0.00    -0.355 OA
HETATM   30  C   UNL     1      -5.250   5.870 -27.294  1.00  0.00     0.210 C 
ENDBRANCH  24  29
ENDBRANCH   2  23
BRANCH   3  31
HETATM   31  C   UNL     1      -7.071   3.455 -31.999  1.00  0.00     0.038 A 
HETATM   32  C   UNL     1      -7.883   3.143 -30.905  1.00  0.00     0.032 A 
HETATM   33  C   UNL     1      -9.277   3.145 -31.034  1.00  0.00     0.039 A 
HETATM   34  C   UNL     1      -9.882   3.443 -32.257  1.00  0.00     0.068 A 
HETATM   35  C   UNL     1      -9.078   3.721 -33.359  1.00  0.00     0.039 A 
HETATM   36  C   UNL     1      -7.684   3.714 -33.230  1.00  0.00     0.032 A 
BRANCH  34  37
HETATM   37  O   UNL     1     -11.249   3.421 -32.244  1.00  0.00    -0.356 OA
HETATM   38  C   UNL     1     -11.902   4.599 -31.783  1.00  0.00     0.210 C 
ENDBRANCH  34  37
ENDBRANCH   3  31
TORSDOF 7
ENDMDL
