MODEL 1
REMARK VINA RESULT:      -8.8      0.000      0.000
REMARK  7 active torsions:
REMARK  status: ('A' for Active; 'I' for Inactive)
REMARK       I    between atoms: C_2  and  N_3 
REMARK    1  A    between atoms: N_3  and  C_4 
REMARK    2  A    between atoms: C_6  and  O_7 
REMARK    3  A    between atoms: O_7  and  C_8 
REMARK    4  A    between atoms: C_8  and  C_9 
REMARK    5  A    between atoms: C_9  and  N_10 
REMARK       I    between atoms: N_10  and  C_11 
REMARK    6  A    between atoms: C_11  and  C_12 
REMARK    7  A    between atoms: C_14  and  C_15 
ROOT
HETATM    1  N   UNL     1      -5.167   2.533 -32.637  1.00  0.00    -0.355 N 
HETATM    2  C   UNL     1      -5.784   1.374 -32.215  1.00  0.00     0.251 C 
HETATM    3  O   UNL     1      -5.904   1.059 -31.037  1.00  0.00    -0.268 OA
HETATM    4  H   UNL     1      -5.262   2.827 -33.598  1.00  0.00     0.162 HD
ENDROOT
BRANCH   1   5
HETATM    5  C   UNL     1      -4.579   3.462 -31.690  1.00  0.00     0.149 C 
BRANCH   5   6
HETATM    6  C   UNL     1      -3.134   3.127 -31.313  1.00  0.00     0.195 C 
BRANCH   6   7
HETATM    7  O   UNL     1      -2.298   3.490 -32.415  1.00  0.00    -0.349 OA
BRANCH   7   8
HETATM    8  C   UNL     1      -1.696   4.718 -32.363  1.00  0.00     0.070 A 
HETATM    9  C   UNL     1      -0.950   5.221 -31.293  1.00  0.00     0.066 A 
HETATM   10  C   UNL     1      -0.375   6.496 -31.365  1.00  0.00     0.037 A 
HETATM   11  C   UNL     1      -0.556   7.261 -32.523  1.00  0.00     0.029 A 
HETATM   12  C   UNL     1      -1.308   6.769 -33.589  1.00  0.00     0.005 A 
HETATM   13  C   UNL     1      -1.878   5.501 -33.505  1.00  0.00     0.037 A 
BRANCH  10  14
HETATM   14  N   UNL     1       0.403   7.068 -30.335  1.00  0.00    -0.327 N 
HETATM   15  C   UNL     1      -0.044   7.632 -29.154  1.00  0.00     0.218 C 
HETATM   16  C   UNL     1       1.090   8.096 -28.274  1.00  0.00     0.117 C 
HETATM   17  O   UNL     1      -1.208   7.801 -28.811  1.00  0.00    -0.274 OA
HETATM   18  H   UNL     1       1.402   7.082 -30.495  1.00  0.00     0.169 HD
ENDBRANCH  10  14
ENDBRANCH   7   8
ENDBRANCH   6   7
ENDBRANCH   5   6
ENDBRANCH   1   5
BRANCH   2  19
HETATM   19  C   UNL     1      -6.342   0.502 -33.282  1.00  0.00     0.032 A 
HETATM   20  C   UNL     1      -5.867  -0.816 -33.384  1.00  0.00     0.029 A 
HETATM   21  C   UNL     1      -6.342  -1.672 -34.389  1.00  0.00    -0.023 A 
HETATM   22  C   UNL     1      -7.295  -1.177 -35.291  1.00  0.00     0.012 A 
HETATM   23  C   UNL     1      -7.761   0.138 -35.200  1.00  0.00     0.002 A 
HETATM   24  C   UNL     1      -7.283   0.980 -34.198  1.00  0.00     0.017 A 
BRANCH  21  25
HETATM   25  C   UNL     1      -5.867  -3.046 -34.509  1.00  0.00    -0.002 A 
HETATM   26  C   UNL     1      -6.622  -4.105 -34.976  1.00  0.00     0.153 A 
HETATM   27  O   UNL     1      -5.906  -5.260 -34.961  1.00  0.00    -0.334 OA
HETATM   28  C   UNL     1      -4.678  -4.953 -34.479  1.00  0.00     0.142 A 
HETATM   29  C   UNL     1      -4.600  -3.612 -34.184  1.00  0.00     0.038 A 
ENDBRANCH  21  25
ENDBRANCH   2  19
TORSDOF 7
ENDMDL
MODEL 2
REMARK VINA RESULT:      -8.7      1.695      2.312
REMARK  7 active torsions:
REMARK  status: ('A' for Active; 'I' for Inactive)
REMARK       I    between atoms: C_2  and  N_3 
REMARK    1  A    between atoms: N_3  and  C_4 
REMARK    2  A    between atoms: C_6  and  O_7 
REMARK    3  A    between atoms: O_7  and  C_8 
REMARK    4  A    between atoms: C_8  and  C_9 
REMARK    5  A    between atoms: C_9  and  N_10 
REMARK       I    between atoms: N_10  and  C_11 
REMARK    6  A    between atoms: C_11  and  C_12 
REMARK    7  A    between atoms: C_14  and  C_15 
ROOT
HETATM    1  N   UNL     1      -6.472   2.290 -31.603  1.00  0.00    -0.355 N 
HETATM    2  C   UNL     1      -5.546   1.491 -32.240  1.00  0.00     0.251 C 
HETATM    3  O   UNL     1      -4.354   1.479 -31.959  1.00  0.00    -0.268 OA
HETATM    4  H   UNL     1      -7.458   2.123 -31.747  1.00  0.00     0.162 HD
ENDROOT
BRANCH   1   5
HETATM    5  C   UNL     1      -6.079   3.212 -30.554  1.00  0.00     0.149 C 
BRANCH   5   6
HETATM    6  C   UNL     1      -6.123   4.683 -30.977  1.00  0.00     0.195 C 
BRANCH   6   7
HETATM    7  O   UNL     1      -6.093   4.728 -32.406  1.00  0.00    -0.349 OA
BRANCH   7   8
HETATM    8  C   UNL     1      -4.914   5.103 -32.992  1.00  0.00     0.070 A 
HETATM    9  C   UNL     1      -3.808   5.649 -32.333  1.00  0.00     0.066 A 
HETATM   10  C   UNL     1      -2.651   5.985 -33.047  1.00  0.00     0.037 A 
HETATM   11  C   UNL     1      -2.616   5.768 -34.430  1.00  0.00     0.029 A 
HETATM   12  C   UNL     1      -3.721   5.235 -35.094  1.00  0.00     0.005 A 
HETATM   13  C   UNL     1      -4.866   4.907 -34.373  1.00  0.00     0.037 A 
BRANCH  10  14
HETATM   14  N   UNL     1      -1.489   6.525 -32.455  1.00  0.00    -0.327 N 
HETATM   15  C   UNL     1      -0.518   5.852 -31.735  1.00  0.00     0.218 C 
HETATM   16  C   UNL     1       0.606   6.759 -31.300  1.00  0.00     0.117 C 
HETATM   17  O   UNL     1      -0.521   4.668 -31.418  1.00  0.00    -0.274 OA
HETATM   18  H   UNL     1      -1.367   7.524 -32.557  1.00  0.00     0.169 HD
ENDBRANCH  10  14
ENDBRANCH   7   8
ENDBRANCH   6   7
ENDBRANCH   5   6
ENDBRANCH   1   5
BRANCH   2  19
HETATM   19  C   UNL     1      -6.073   0.593 -33.301  1.00  0.00     0.032 A 
HETATM   20  C   UNL     1      -5.603  -0.728 -33.352  1.00  0.00     0.029 A 
HETATM   21  C   UNL     1      -6.049  -1.609 -34.349  1.00  0.00    -0.023 A 
HETATM   22  C   UNL     1      -6.971  -1.135 -35.295  1.00  0.00     0.012 A 
HETATM   23  C   UNL     1      -7.432   0.184 -35.254  1.00  0.00     0.002 A 
HETATM   24  C   UNL     1      -6.982   1.051 -34.260  1.00  0.00     0.017 A 
BRANCH  21  25
HETATM   25  C   UNL     1      -5.578  -2.988 -34.417  1.00  0.00    -0.002 A 
HETATM   26  C   UNL     1      -6.329  -4.059 -34.863  1.00  0.00     0.153 A 
HETATM   27  O   UNL     1      -5.618  -5.215 -34.799  1.00  0.00    -0.334 OA
HETATM   28  C   UNL     1      -4.397  -4.898 -34.304  1.00  0.00     0.142 A 
HETATM   29  C   UNL     1      -4.319  -3.548 -34.052  1.00  0.00     0.038 A 
ENDBRANCH  21  25
ENDBRANCH   2  19
TORSDOF 7
ENDMDL
MODEL 3
REMARK VINA RESULT:      -8.7      1.992      2.842
REMARK  7 active torsions:
REMARK  status: ('A' for Active; 'I' for Inactive)
REMARK       I    between atoms: C_2  and  N_3 
REMARK    1  A    between atoms: N_3  and  C_4 
REMARK    2  A    between atoms: C_6  and  O_7 
REMARK    3  A    between atoms: O_7  and  C_8 
REMARK    4  A    between atoms: C_8  and  C_9 
REMARK    5  A    between atoms: C_9  and  N_10 
REMARK       I    between atoms: N_10  and  C_11 
REMARK    6  A    between atoms: C_11  and  C_12 
REMARK    7  A    between atoms: C_14  and  C_15 
ROOT
HETATM    1  N   UNL     1      -6.379   2.536 -32.098  1.00  0.00    -0.355 N 
HETATM    2  C   UNL     1      -6.106   1.875 -33.277  1.00  0.00     0.251 C 
HETATM    3  O   UNL     1      -6.495   2.256 -34.374  1.00  0.00    -0.268 OA
HETATM    4  H   UNL     1      -5.881   2.281 -31.256  1.00  0.00     0.162 HD
ENDROOT
BRANCH   1   5
HETATM    5  C   UNL     1      -7.191   3.738 -32.077  1.00  0.00     0.149 C 
BRANCH   5   6
HETATM    6  C   UNL     1      -6.378   5.030 -31.963  1.00  0.00     0.195 C 
BRANCH   6   7
HETATM    7  O   UNL     1      -5.969   5.407 -33.282  1.00  0.00    -0.349 OA
BRANCH   7   8
HETATM    8  C   UNL     1      -4.625   5.544 -33.502  1.00  0.00     0.070 A 
HETATM    9  C   UNL     1      -3.695   6.063 -32.597  1.00  0.00     0.066 A 
HETATM   10  C   UNL     1      -2.339   6.143 -32.939  1.00  0.00     0.037 A 
HETATM   11  C   UNL     1      -1.927   5.695 -34.200  1.00  0.00     0.029 A 
HETATM   12  C   UNL     1      -2.853   5.187 -35.111  1.00  0.00     0.005 A 
HETATM   13  C   UNL     1      -4.199   5.115 -34.760  1.00  0.00     0.037 A 
BRANCH  10  14
HETATM   14  N   UNL     1      -1.337   6.640 -32.078  1.00  0.00    -0.327 N 
HETATM   15  C   UNL     1      -0.492   5.914 -31.259  1.00  0.00     0.218 C 
HETATM   16  C   UNL     1       0.486   6.792 -30.520  1.00  0.00     0.117 C 
HETATM   17  O   UNL     1      -0.502   4.702 -31.076  1.00  0.00    -0.274 OA
HETATM   18  H   UNL     1      -1.244   7.647 -32.047  1.00  0.00     0.169 HD
ENDBRANCH  10  14
ENDBRANCH   7   8
ENDBRANCH   6   7
ENDBRANCH   5   6
ENDBRANCH   1   5
BRANCH   2  19
HETATM   19  C   UNL     1      -5.268   0.652 -33.165  1.00  0.00     0.032 A 
HETATM   20  C   UNL     1      -5.735  -0.534 -33.755  1.00  0.00     0.029 A 
HETATM   21  C   UNL     1      -4.995  -1.722 -33.656  1.00  0.00    -0.023 A 
HETATM   22  C   UNL     1      -3.784  -1.697 -32.949  1.00  0.00     0.012 A 
HETATM   23  C   UNL     1      -3.322  -0.521 -32.350  1.00  0.00     0.002 A 
HETATM   24  C   UNL     1      -4.065   0.654 -32.454  1.00  0.00     0.017 A 
BRANCH  21  25
HETATM   25  C   UNL     1      -5.458  -2.963 -34.266  1.00  0.00    -0.002 A 
HETATM   26  C   UNL     1      -4.734  -4.139 -34.314  1.00  0.00     0.153 A 
HETATM   27  O   UNL     1      -5.428  -5.115 -34.955  1.00  0.00    -0.334 OA
HETATM   28  C   UNL     1      -6.611  -4.572 -35.332  1.00  0.00     0.142 A 
HETATM   29  C   UNL     1      -6.682  -3.257 -34.937  1.00  0.00     0.038 A 
ENDBRANCH  21  25
ENDBRANCH   2  19
TORSDOF 7
ENDMDL
MODEL 4
REMARK VINA RESULT:      -8.7      1.601      1.963
REMARK  7 active torsions:
REMARK  status: ('A' for Active; 'I' for Inactive)
REMARK       I    between atoms: C_2  and  N_3 
REMARK    1  A    between atoms: N_3  and  C_4 
REMARK    2  A    between atoms: C_6  and  O_7 
REMARK    3  A    between atoms: O_7  and  C_8 
REMARK    4  A    between atoms: C_8  and  C_9 
REMARK    5  A    between atoms: C_9  and  N_10 
REMARK       I    between atoms: N_10  and  C_11 
REMARK    6  A    between atoms: C_11  and  C_12 
REMARK    7  A    between atoms: C_14  and  C_15 
ROOT
HETATM    1  N   UNL     1      -5.025   2.794 -32.592  1.00  0.00    -0.355 N 
HETATM    2  C   UNL     1      -4.756   1.441 -32.591  1.00  0.00     0.251 C 
HETATM    3  O   UNL     1      -3.886   0.924 -31.903  1.00  0.00    -0.268 OA
HETATM    4  H   UNL     1      -5.868   3.135 -33.033  1.00  0.00     0.162 HD
ENDROOT
BRANCH   1   5
HETATM    5  C   UNL     1      -4.254   3.717 -31.780  1.00  0.00     0.149 C 
BRANCH   5   6
HETATM    6  C   UNL     1      -3.008   4.264 -32.481  1.00  0.00     0.195 C 
BRANCH   6   7
HETATM    7  O   UNL     1      -1.893   4.063 -31.608  1.00  0.00    -0.349 OA
BRANCH   7   8
HETATM    8  C   UNL     1      -1.274   5.183 -31.120  1.00  0.00     0.070 A 
HETATM    9  C   UNL     1      -1.914   6.336 -30.654  1.00  0.00     0.066 A 
HETATM   10  C   UNL     1      -1.166   7.416 -30.169  1.00  0.00     0.037 A 
HETATM   11  C   UNL     1       0.231   7.327 -30.156  1.00  0.00     0.029 A 
HETATM   12  C   UNL     1       0.874   6.184 -30.631  1.00  0.00     0.005 A 
HETATM   13  C   UNL     1       0.120   5.117 -31.113  1.00  0.00     0.037 A 
BRANCH  10  14
HETATM   14  N   UNL     1      -1.736   8.606 -29.668  1.00  0.00    -0.327 N 
HETATM   15  C   UNL     1      -2.260   9.660 -30.393  1.00  0.00     0.218 C 
HETATM   16  C   UNL     1      -2.827  10.742 -29.506  1.00  0.00     0.117 C 
HETATM   17  O   UNL     1      -2.267   9.788 -31.612  1.00  0.00    -0.274 OA
HETATM   18  H   UNL     1      -1.741   8.701 -28.660  1.00  0.00     0.169 HD
ENDBRANCH  10  14
ENDBRANCH   7   8
ENDBRANCH   6   7
ENDBRANCH   5   6
ENDBRANCH   1   5
BRANCH   2  19
HETATM   19  C   UNL     1      -5.612   0.602 -33.470  1.00  0.00     0.032 A 
HETATM   20  C   UNL     1      -5.309  -0.763 -33.591  1.00  0.00     0.029 A 
HETATM   21  C   UNL     1      -6.069  -1.595 -34.427  1.00  0.00    -0.023 A 
HETATM   22  C   UNL     1      -7.135  -1.027 -35.142  1.00  0.00     0.012 A 
HETATM   23  C   UNL     1      -7.432   0.335 -35.033  1.00  0.00     0.002 A 
HETATM   24  C   UNL     1      -6.670   1.152 -34.200  1.00  0.00     0.017 A 
BRANCH  21  25
HETATM   25  C   UNL     1      -5.775  -3.017 -34.563  1.00  0.00    -0.002 A 
HETATM   26  C   UNL     1      -6.656  -3.963 -35.051  1.00  0.00     0.153 A 
HETATM   27  O   UNL     1      -6.096  -5.201 -35.047  1.00  0.00    -0.334 OA
HETATM   28  C   UNL     1      -4.843  -5.062 -34.550  1.00  0.00     0.142 A 
HETATM   29  C   UNL     1      -4.595  -3.747 -34.236  1.00  0.00     0.038 A 
ENDBRANCH  21  25
ENDBRANCH   2  19
TORSDOF 7
ENDMDL
MODEL 5
REMARK VINA RESULT:      -7.9      2.224      9.293
REMARK  7 active torsions:
REMARK  status: ('A' for Active; 'I' for Inactive)
REMARK       I    between atoms: C_2  and  N_3 
REMARK    1  A    between atoms: N_3  and  C_4 
REMARK    2  A    between atoms: C_6  and  O_7 
REMARK    3  A    between atoms: O_7  and  C_8 
REMARK    4  A    between atoms: C_8  and  C_9 
REMARK    5  A    between atoms: C_9  and  N_10 
REMARK       I    between atoms: N_10  and  C_11 
REMARK    6  A    between atoms: C_11  and  C_12 
REMARK    7  A    between atoms: C_14  and  C_15 
ROOT
HETATM    1  N   UNL     1      -5.606   4.086 -32.151  1.00  0.00    -0.355 N 
HETATM    2  C   UNL     1      -5.269   4.666 -33.356  1.00  0.00     0.251 C 
HETATM    3  O   UNL     1      -6.084   4.946 -34.226  1.00  0.00    -0.268 OA
HETATM    4  H   UNL     1      -4.925   4.050 -31.406  1.00  0.00     0.162 HD
ENDROOT
BRANCH   1   5
HETATM    5  C   UNL     1      -6.980   3.734 -31.842  1.00  0.00     0.149 C 
BRANCH   5   6
HETATM    6  C   UNL     1      -7.293   2.248 -32.030  1.00  0.00     0.195 C 
BRANCH   6   7
HETATM    7  O   UNL     1      -6.256   1.497 -31.391  1.00  0.00    -0.349 OA
BRANCH   7   8
HETATM    8  C   UNL     1      -5.618   0.550 -32.144  1.00  0.00     0.070 A 
HETATM    9  C   UNL     1      -6.235  -0.472 -32.872  1.00  0.00     0.066 A 
HETATM   10  C   UNL     1      -5.468  -1.378 -33.614  1.00  0.00     0.037 A 
HETATM   11  C   UNL     1      -4.074  -1.248 -33.620  1.00  0.00     0.029 A 
HETATM   12  C   UNL     1      -3.453  -0.236 -32.887  1.00  0.00     0.005 A 
HETATM   13  C   UNL     1      -4.226   0.657 -32.150  1.00  0.00     0.037 A 
BRANCH  10  14
HETATM   14  N   UNL     1      -6.015  -2.427 -34.385  1.00  0.00    -0.327 N 
HETATM   15  C   UNL     1      -5.461  -3.670 -34.632  1.00  0.00     0.218 C 
HETATM   16  C   UNL     1      -6.366  -4.547 -35.462  1.00  0.00     0.117 C 
HETATM   17  O   UNL     1      -4.356  -4.070 -34.282  1.00  0.00    -0.274 OA
HETATM   18  H   UNL     1      -6.908  -2.234 -34.821  1.00  0.00     0.169 HD
ENDBRANCH  10  14
ENDBRANCH   7   8
ENDBRANCH   6   7
ENDBRANCH   5   6
ENDBRANCH   1   5
BRANCH   2  19
HETATM   19  C   UNL     1      -3.828   4.973 -33.555  1.00  0.00     0.032 A 
HETATM   20  C   UNL     1      -3.047   5.269 -32.427  1.00  0.00     0.029 A 
HETATM   21  C   UNL     1      -1.688   5.591 -32.561  1.00  0.00    -0.023 A 
HETATM   22  C   UNL     1      -1.132   5.616 -33.849  1.00  0.00     0.012 A 
HETATM   23  C   UNL     1      -1.911   5.334 -34.976  1.00  0.00     0.002 A 
HETATM   24  C   UNL     1      -3.259   5.016 -34.831  1.00  0.00     0.017 A 
BRANCH  21  25
HETATM   25  C   UNL     1      -0.856   5.895 -31.402  1.00  0.00    -0.002 A 
HETATM   26  C   UNL     1      -0.374   4.959 -30.507  1.00  0.00     0.153 A 
HETATM   27  O   UNL     1       0.361   5.550 -29.529  1.00  0.00    -0.334 OA
HETATM   28  C   UNL     1       0.357   6.881 -29.786  1.00  0.00     0.142 A 
HETATM   29  C   UNL     1      -0.375   7.147 -30.920  1.00  0.00     0.038 A 
ENDBRANCH  21  25
ENDBRANCH   2  19
TORSDOF 7
ENDMDL
MODEL 6
REMARK VINA RESULT:      -7.7      2.207      2.729
REMARK  7 active torsions:
REMARK  status: ('A' for Active; 'I' for Inactive)
REMARK       I    between atoms: C_2  and  N_3 
REMARK    1  A    between atoms: N_3  and  C_4 
REMARK    2  A    between atoms: C_6  and  O_7 
REMARK    3  A    between atoms: O_7  and  C_8 
REMARK    4  A    between atoms: C_8  and  C_9 
REMARK    5  A    between atoms: C_9  and  N_10 
REMARK       I    between atoms: N_10  and  C_11 
REMARK    6  A    between atoms: C_11  and  C_12 
REMARK    7  A    between atoms: C_14  and  C_15 
ROOT
HETATM    1  N   UNL     1      -5.251   3.940 -33.878  1.00  0.00    -0.355 N 
HETATM    2  C   UNL     1      -6.627   3.867 -33.948  1.00  0.00     0.251 C 
HETATM    3  O   UNL     1      -7.344   4.823 -34.214  1.00  0.00    -0.268 OA
HETATM    4  H   UNL     1      -4.707   3.090 -33.840  1.00  0.00     0.162 HD
ENDROOT
BRANCH   1   5
HETATM    5  C   UNL     1      -4.550   5.193 -34.089  1.00  0.00     0.149 C 
BRANCH   5   6
HETATM    6  C   UNL     1      -3.144   5.223 -33.485  1.00  0.00     0.195 C 
BRANCH   6   7
HETATM    7  O   UNL     1      -2.960   6.502 -32.870  1.00  0.00    -0.349 OA
BRANCH   7   8
HETATM    8  C   UNL     1      -2.025   6.586 -31.874  1.00  0.00     0.070 A 
HETATM    9  C   UNL     1      -2.279   6.490 -30.502  1.00  0.00     0.066 A 
HETATM   10  C   UNL     1      -1.230   6.583 -29.578  1.00  0.00     0.037 A 
HETATM   11  C   UNL     1       0.076   6.773 -30.046  1.00  0.00     0.029 A 
HETATM   12  C   UNL     1       0.332   6.880 -31.413  1.00  0.00     0.005 A 
HETATM   13  C   UNL     1      -0.719   6.789 -32.322  1.00  0.00     0.037 A 
BRANCH  10  14
HETATM   14  N   UNL     1      -1.401   6.482 -28.181  1.00  0.00    -0.327 N 
HETATM   15  C   UNL     1      -1.772   7.482 -27.301  1.00  0.00     0.218 C 
HETATM   16  C   UNL     1      -1.900   6.983 -25.883  1.00  0.00     0.117 C 
HETATM   17  O   UNL     1      -1.958   8.665 -27.564  1.00  0.00    -0.274 OA
HETATM   18  H   UNL     1      -1.209   5.573 -27.779  1.00  0.00     0.169 HD
ENDBRANCH  10  14
ENDBRANCH   7   8
ENDBRANCH   6   7
ENDBRANCH   5   6
ENDBRANCH   1   5
BRANCH   2  19
HETATM   19  C   UNL     1      -7.225   2.528 -33.707  1.00  0.00     0.032 A 
HETATM   20  C   UNL     1      -6.445   1.391 -33.971  1.00  0.00     0.029 A 
HETATM   21  C   UNL     1      -6.971   0.103 -33.784  1.00  0.00    -0.023 A 
HETATM   22  C   UNL     1      -8.294  -0.019 -33.335  1.00  0.00     0.012 A 
HETATM   23  C   UNL     1      -9.077   1.112 -33.083  1.00  0.00     0.002 A 
HETATM   24  C   UNL     1      -8.546   2.386 -33.271  1.00  0.00     0.017 A 
BRANCH  21  25
HETATM   25  C   UNL     1      -6.177  -1.092 -34.047  1.00  0.00    -0.002 A 
HETATM   26  C   UNL     1      -4.838  -1.237 -33.732  1.00  0.00     0.153 A 
HETATM   27  O   UNL     1      -4.377  -2.458 -34.109  1.00  0.00    -0.334 OA
HETATM   28  C   UNL     1      -5.419  -3.113 -34.675  1.00  0.00     0.142 A 
HETATM   29  C   UNL     1      -6.544  -2.322 -34.665  1.00  0.00     0.038 A 
ENDBRANCH  21  25
ENDBRANCH   2  19
TORSDOF 7
ENDMDL
MODEL 7
REMARK VINA RESULT:      -7.7      2.263      9.263
REMARK  7 active torsions:
REMARK  status: ('A' for Active; 'I' for Inactive)
REMARK       I    between atoms: C_2  and  N_3 
REMARK    1  A    between atoms: N_3  and  C_4 
REMARK    2  A    between atoms: C_6  and  O_7 
REMARK    3  A    between atoms: O_7  and  C_8 
REMARK    4  A    between atoms: C_8  and  C_9 
REMARK    5  A    between atoms: C_9  and  N_10 
REMARK       I    between atoms: N_10  and  C_11 
REMARK    6  A    between atoms: C_11  and  C_12 
REMARK    7  A    between atoms: C_14  and  C_15 
ROOT
HETATM    1  N   UNL     1      -5.308   3.735 -32.458  1.00  0.00    -0.355 N 
HETATM    2  C   UNL     1      -4.074   3.237 -32.095  1.00  0.00     0.251 C 
HETATM    3  O   UNL     1      -3.904   2.112 -31.642  1.00  0.00    -0.268 OA
HETATM    4  H   UNL     1      -5.363   4.590 -32.994  1.00  0.00     0.162 HD
ENDROOT
BRANCH   1   5
HETATM    5  C   UNL     1      -6.517   2.951 -32.293  1.00  0.00     0.149 C 
BRANCH   5   6
HETATM    6  C   UNL     1      -7.255   2.669 -33.604  1.00  0.00     0.195 C 
BRANCH   6   7
HETATM    7  O   UNL     1      -6.351   1.986 -34.477  1.00  0.00    -0.349 OA
BRANCH   7   8
HETATM    8  C   UNL     1      -6.323   0.620 -34.400  1.00  0.00     0.070 A 
HETATM    9  C   UNL     1      -5.294  -0.150 -33.848  1.00  0.00     0.066 A 
HETATM   10  C   UNL     1      -5.389  -1.546 -33.821  1.00  0.00     0.037 A 
HETATM   11  C   UNL     1      -6.527  -2.163 -34.354  1.00  0.00     0.029 A 
HETATM   12  C   UNL     1      -7.551  -1.401 -34.915  1.00  0.00     0.005 A 
HETATM   13  C   UNL     1      -7.445  -0.012 -34.939  1.00  0.00     0.037 A 
BRANCH  10  14
HETATM   14  N   UNL     1      -4.402  -2.392 -33.270  1.00  0.00    -0.327 N 
HETATM   15  C   UNL     1      -3.649  -2.180 -32.130  1.00  0.00     0.218 C 
HETATM   16  C   UNL     1      -2.727  -3.334 -31.826  1.00  0.00     0.117 C 
HETATM   17  O   UNL     1      -3.651  -1.180 -31.420  1.00  0.00    -0.274 OA
HETATM   18  H   UNL     1      -4.215  -3.244 -33.785  1.00  0.00     0.169 HD
ENDBRANCH  10  14
ENDBRANCH   7   8
ENDBRANCH   6   7
ENDBRANCH   5   6
ENDBRANCH   1   5
BRANCH   2  19
HETATM   19  C   UNL     1      -2.913   4.140 -32.308  1.00  0.00     0.032 A 
HETATM   20  C   UNL     1      -2.276   4.685 -31.183  1.00  0.00     0.029 A 
HETATM   21  C   UNL     1      -1.192   5.564 -31.329  1.00  0.00    -0.023 A 
HETATM   22  C   UNL     1      -0.766   5.888 -32.626  1.00  0.00     0.012 A 
HETATM   23  C   UNL     1      -1.406   5.356 -33.750  1.00  0.00     0.002 A 
HETATM   24  C   UNL     1      -2.482   4.485 -33.593  1.00  0.00     0.017 A 
BRANCH  21  25
HETATM   25  C   UNL     1      -0.511   6.137 -30.173  1.00  0.00    -0.002 A 
HETATM   26  C   UNL     1      -0.569   7.467 -29.801  1.00  0.00     0.153 A 
HETATM   27  O   UNL     1       0.176   7.696 -28.688  1.00  0.00    -0.334 OA
HETATM   28  C   UNL     1       0.727   6.509 -28.334  1.00  0.00     0.142 A 
HETATM   29  C   UNL     1       0.340   5.522 -29.210  1.00  0.00     0.038 A 
ENDBRANCH  21  25
ENDBRANCH   2  19
TORSDOF 7
ENDMDL
MODEL 8
REMARK VINA RESULT:      -7.6      2.388     10.279
REMARK  7 active torsions:
REMARK  status: ('A' for Active; 'I' for Inactive)
REMARK       I    between atoms: C_2  and  N_3 
REMARK    1  A    between atoms: N_3  and  C_4 
REMARK    2  A    between atoms: C_6  and  O_7 
REMARK    3  A    between atoms: O_7  and  C_8 
REMARK    4  A    between atoms: C_8  and  C_9 
REMARK    5  A    between atoms: C_9  and  N_10 
REMARK       I    between atoms: N_10  and  C_11 
REMARK    6  A    between atoms: C_11  and  C_12 
REMARK    7  A    between atoms: C_14  and  C_15 
ROOT
HETATM    1  N   UNL     1      -3.503   4.324 -31.131  1.00  0.00    -0.355 N 
HETATM    2  C   UNL     1      -3.330   5.675 -30.920  1.00  0.00     0.251 C 
HETATM    3  O   UNL     1      -4.256   6.469 -30.812  1.00  0.00    -0.268 OA
HETATM    4  H   UNL     1      -2.718   3.697 -31.026  1.00  0.00     0.162 HD
ENDROOT
BRANCH   1   5
HETATM    5  C   UNL     1      -4.827   3.746 -31.274  1.00  0.00     0.149 C 
BRANCH   5   6
HETATM    6  C   UNL     1      -5.209   3.425 -32.721  1.00  0.00     0.195 C 
BRANCH   6   7
HETATM    7  O   UNL     1      -6.352   2.566 -32.692  1.00  0.00    -0.349 OA
BRANCH   7   8
HETATM    8  C   UNL     1      -6.211   1.322 -33.246  1.00  0.00     0.070 A 
HETATM    9  C   UNL     1      -5.440   0.277 -32.728  1.00  0.00     0.066 A 
HETATM   10  C   UNL     1      -5.384  -0.958 -33.387  1.00  0.00     0.037 A 
HETATM   11  C   UNL     1      -6.111  -1.132 -34.571  1.00  0.00     0.029 A 
HETATM   12  C   UNL     1      -6.872  -0.089 -35.097  1.00  0.00     0.005 A 
HETATM   13  C   UNL     1      -6.918   1.135 -34.435  1.00  0.00     0.037 A 
BRANCH  10  14
HETATM   14  N   UNL     1      -4.642  -2.066 -32.923  1.00  0.00    -0.327 N 
HETATM   15  C   UNL     1      -3.431  -2.051 -32.256  1.00  0.00     0.218 C 
HETATM   16  C   UNL     1      -2.969  -3.435 -31.873  1.00  0.00     0.117 C 
HETATM   17  O   UNL     1      -2.740  -1.071 -32.002  1.00  0.00    -0.274 OA
HETATM   18  H   UNL     1      -5.040  -2.975 -33.121  1.00  0.00     0.169 HD
ENDBRANCH  10  14
ENDBRANCH   7   8
ENDBRANCH   6   7
ENDBRANCH   5   6
ENDBRANCH   1   5
BRANCH   2  19
HETATM   19  C   UNL     1      -1.924   6.144 -30.797  1.00  0.00     0.032 A 
HETATM   20  C   UNL     1      -1.511   6.699 -29.576  1.00  0.00     0.029 A 
HETATM   21  C   UNL     1      -0.203   7.181 -29.415  1.00  0.00    -0.023 A 
HETATM   22  C   UNL     1       0.677   7.099 -30.505  1.00  0.00     0.012 A 
HETATM   23  C   UNL     1       0.264   6.558 -31.726  1.00  0.00     0.002 A 
HETATM   24  C   UNL     1      -1.037   6.083 -31.876  1.00  0.00     0.017 A 
BRANCH  21  25
HETATM   25  C   UNL     1       0.250   7.756 -28.154  1.00  0.00    -0.002 A 
HETATM   26  C   UNL     1      -0.449   7.700 -26.963  1.00  0.00     0.153 A 
HETATM   27  O   UNL     1       0.227   8.333 -25.969  1.00  0.00    -0.334 OA
HETATM   28  C   UNL     1       1.372   8.809 -26.515  1.00  0.00     0.142 A 
HETATM   29  C   UNL     1       1.437   8.485 -27.850  1.00  0.00     0.038 A 
ENDBRANCH  21  25
ENDBRANCH   2  19
TORSDOF 7
ENDMDL
MODEL 9
REMARK VINA RESULT:      -7.6      2.758      9.196
REMARK  7 active torsions:
REMARK  status: ('A' for Active; 'I' for Inactive)
REMARK       I    between atoms: C_2  and  N_3 
REMARK    1  A    between atoms: N_3  and  C_4 
REMARK    2  A    between atoms: C_6  and  O_7 
REMARK    3  A    between atoms: O_7  and  C_8 
REMARK    4  A    between atoms: C_8  and  C_9 
REMARK    5  A    between atoms: C_9  and  N_10 
REMARK       I    between atoms: N_10  and  C_11 
REMARK    6  A    between atoms: C_11  and  C_12 
REMARK    7  A    between atoms: C_14  and  C_15 
ROOT
HETATM    1  N   UNL     1      -5.292   3.045 -29.885  1.00  0.00    -0.355 N 
HETATM    2  C   UNL     1      -6.033   4.206 -29.957  1.00  0.00     0.251 C 
HETATM    3  O   UNL     1      -7.208   4.283 -29.623  1.00  0.00    -0.268 OA
HETATM    4  H   UNL     1      -4.289   3.085 -29.995  1.00  0.00     0.162 HD
ENDROOT
BRANCH   1   5
HETATM    5  C   UNL     1      -5.883   1.801 -29.426  1.00  0.00     0.149 C 
BRANCH   5   6
HETATM    6  C   UNL     1      -5.607   0.610 -30.346  1.00  0.00     0.195 C 
BRANCH   6   7
HETATM    7  O   UNL     1      -5.138   1.123 -31.597  1.00  0.00    -0.349 OA
BRANCH   7   8
HETATM    8  C   UNL     1      -5.745   0.653 -32.730  1.00  0.00     0.070 A 
HETATM    9  C   UNL     1      -5.916  -0.692 -33.071  1.00  0.00     0.066 A 
HETATM   10  C   UNL     1      -6.565  -1.046 -34.260  1.00  0.00     0.037 A 
HETATM   11  C   UNL     1      -7.040  -0.035 -35.105  1.00  0.00     0.029 A 
HETATM   12  C   UNL     1      -6.862   1.308 -34.775  1.00  0.00     0.005 A 
HETATM   13  C   UNL     1      -6.213   1.648 -33.591  1.00  0.00     0.037 A 
BRANCH  10  14
HETATM   14  N   UNL     1      -6.790  -2.378 -34.668  1.00  0.00    -0.327 N 
HETATM   15  C   UNL     1      -5.844  -3.332 -34.994  1.00  0.00     0.218 C 
HETATM   16  C   UNL     1      -6.464  -4.664 -35.336  1.00  0.00     0.117 C 
HETATM   17  O   UNL     1      -4.629  -3.177 -35.056  1.00  0.00    -0.274 OA
HETATM   18  H   UNL     1      -7.760  -2.656 -34.748  1.00  0.00     0.169 HD
ENDBRANCH  10  14
ENDBRANCH   7   8
ENDBRANCH   6   7
ENDBRANCH   5   6
ENDBRANCH   1   5
BRANCH   2  19
HETATM   19  C   UNL     1      -5.315   5.412 -30.449  1.00  0.00     0.032 A 
HETATM   20  C   UNL     1      -4.354   5.250 -31.460  1.00  0.00     0.029 A 
HETATM   21  C   UNL     1      -3.630   6.351 -31.942  1.00  0.00    -0.023 A 
HETATM   22  C   UNL     1      -3.885   7.613 -31.385  1.00  0.00     0.012 A 
HETATM   23  C   UNL     1      -4.833   7.775 -30.370  1.00  0.00     0.002 A 
HETATM   24  C   UNL     1      -5.546   6.675 -29.898  1.00  0.00     0.017 A 
BRANCH  21  25
HETATM   25  C   UNL     1      -2.632   6.207 -32.996  1.00  0.00    -0.002 A 
HETATM   26  C   UNL     1      -1.792   7.215 -33.432  1.00  0.00     0.153 A 
HETATM   27  O   UNL     1      -0.981   6.777 -34.430  1.00  0.00    -0.334 OA
HETATM   28  C   UNL     1      -1.296   5.477 -34.650  1.00  0.00     0.142 A 
HETATM   29  C   UNL     1      -2.302   5.078 -33.801  1.00  0.00     0.038 A 
ENDBRANCH  21  25
ENDBRANCH   2  19
TORSDOF 7
ENDMDL
MODEL 10
REMARK VINA RESULT:      -7.5     17.052     18.504
REMARK  7 active torsions:
REMARK  status: ('A' for Active; 'I' for Inactive)
REMARK       I    between atoms: C_2  and  N_3 
REMARK    1  A    between atoms: N_3  and  C_4 
REMARK    2  A    between atoms: C_6  and  O_7 
REMARK    3  A    between atoms: O_7  and  C_8 
REMARK    4  A    between atoms: C_8  and  C_9 
REMARK    5  A    between atoms: C_9  and  N_10 
REMARK       I    between atoms: N_10  and  C_11 
REMARK    6  A    between atoms: C_11  and  C_12 
REMARK    7  A    between atoms: C_14  and  C_15 
ROOT
HETATM    1  N   UNL     1      -7.255 -13.191 -40.923  1.00  0.00    -0.355 N 
HETATM    2  C   UNL     1      -5.952 -12.742 -40.963  1.00  0.00     0.251 C 
HETATM    3  O   UNL     1      -5.579 -11.694 -40.452  1.00  0.00    -0.268 OA
HETATM    4  H   UNL     1      -7.466 -14.141 -41.195  1.00  0.00     0.162 HD
ENDROOT
BRANCH   1   5
HETATM    5  C   UNL     1      -8.301 -12.414 -40.283  1.00  0.00     0.149 C 
BRANCH   5   6
HETATM    6  C   UNL     1      -8.436 -12.679 -38.781  1.00  0.00     0.195 C 
BRANCH   6   7
HETATM    7  O   UNL     1      -7.805 -13.931 -38.500  1.00  0.00    -0.349 OA
BRANCH   7   8
HETATM    8  C   UNL     1      -6.925 -13.964 -37.452  1.00  0.00     0.070 A 
HETATM    9  C   UNL     1      -5.578 -14.334 -37.524  1.00  0.00     0.066 A 
HETATM   10  C   UNL     1      -4.775 -14.317 -36.377  1.00  0.00     0.037 A 
HETATM   11  C   UNL     1      -5.338 -13.925 -35.156  1.00  0.00     0.029 A 
HETATM   12  C   UNL     1      -6.683 -13.565 -35.077  1.00  0.00     0.005 A 
HETATM   13  C   UNL     1      -7.472 -13.588 -36.224  1.00  0.00     0.037 A 
BRANCH  10  14
HETATM   14  N   UNL     1      -3.406 -14.662 -36.368  1.00  0.00    -0.327 N 
HETATM   15  C   UNL     1      -2.353 -13.948 -36.908  1.00  0.00     0.218 C 
HETATM   16  C   UNL     1      -1.021 -14.610 -36.658  1.00  0.00     0.117 C 
HETATM   17  O   UNL     1      -2.420 -12.910 -37.558  1.00  0.00    -0.274 OA
HETATM   18  H   UNL     1      -3.178 -15.546 -35.931  1.00  0.00     0.169 HD
ENDBRANCH  10  14
ENDBRANCH   7   8
ENDBRANCH   6   7
ENDBRANCH   5   6
ENDBRANCH   1   5
BRANCH   2  19
HETATM   19  C   UNL     1      -4.976 -13.626 -41.653  1.00  0.00     0.032 A 
HETATM   20  C   UNL     1      -3.743 -13.875 -41.029  1.00  0.00     0.029 A 
HETATM   21  C   UNL     1      -2.777 -14.681 -41.649  1.00  0.00    -0.023 A 
HETATM   22  C   UNL     1      -3.070 -15.226 -42.908  1.00  0.00     0.012 A 
HETATM   23  C   UNL     1      -4.292 -14.971 -43.538  1.00  0.00     0.002 A 
HETATM   24  C   UNL     1      -5.245 -14.168 -42.913  1.00  0.00     0.017 A 
BRANCH  21  25
HETATM   25  C   UNL     1      -1.492 -14.958 -41.016  1.00  0.00    -0.002 A 
HETATM   26  C   UNL     1      -0.927 -16.213 -40.889  1.00  0.00     0.153 A 
HETATM   27  O   UNL     1       0.269 -16.148 -40.246  1.00  0.00    -0.334 OA
HETATM   28  C   UNL     1       0.483 -14.843 -39.949  1.00  0.00     0.142 A 
HETATM   29  C   UNL     1      -0.564 -14.072 -40.395  1.00  0.00     0.038 A 
ENDBRANCH  21  25
ENDBRANCH   2  19
TORSDOF 7
ENDMDL
