MODEL 1
REMARK VINA RESULT:      -8.5      0.000      0.000
REMARK  6 active torsions:
REMARK  status: ('A' for Active; 'I' for Inactive)
REMARK       I    between atoms: N_2  and  C_3 
REMARK    1  A    between atoms: N_2  and  C_19 
REMARK       I    between atoms: C_3  and  N_4 
REMARK    2  A    between atoms: N_4  and  C_5 
REMARK    3  A    between atoms: C_12  and  C_13 
REMARK       I    between atoms: C_13  and  N_14 
REMARK    4  A    between atoms: C_19  and  C_20 
REMARK    5  A    between atoms: C_20  and  O_21 
REMARK    6  A    between atoms: O_21  and  C_22 
ROOT
HETATM    1  C   UNL     1      -5.799   3.388 -29.941  1.00  0.00     0.154 C 
HETATM    2  N   UNL     1      -6.364   2.589 -31.019  1.00  0.00    -0.336 N 
HETATM    3  C   UNL     1      -7.510   3.116 -31.630  1.00  0.00     0.322 C 
HETATM    4  N   UNL     1      -7.939   2.404 -32.727  1.00  0.00    -0.309 N 
HETATM    5  O   UNL     1      -8.034   4.151 -31.225  1.00  0.00    -0.247 OA
HETATM    6  H   UNL     1      -7.217   1.890 -33.205  1.00  0.00     0.170 HD
ENDROOT
BRANCH   4   7
HETATM    7  C   UNL     1      -9.161   2.558 -33.414  1.00  0.00     0.037 A 
HETATM    8  C   UNL     1     -10.213   1.638 -33.317  1.00  0.00     0.046 A 
HETATM    9  C   UNL     1     -11.388   1.839 -34.073  1.00  0.00     0.030 A 
HETATM   10  C   UNL     1     -11.479   2.964 -34.882  1.00  0.00     0.063 A 
HETATM   11  C   UNL     1     -12.616   1.140 -34.270  1.00  0.00     0.156 A 
HETATM   12  N   UNL     1     -12.716   2.896 -35.459  1.00  0.00    -0.277 N 
HETATM   13  C   UNL     1     -10.450   3.901 -35.004  1.00  0.00     0.034 A 
HETATM   14  H   UNL     1     -13.128   3.558 -36.105  1.00  0.00     0.189 HD
HETATM   15  N   UNL     1     -13.431   1.811 -35.117  1.00  0.00    -0.168 NA
HETATM   16  C   UNL     1      -9.284   3.665 -34.264  1.00  0.00     0.032 A 
BRANCH  11  17
HETATM   17  C   UNL     1     -13.018  -0.146 -33.685  1.00  0.00     0.270 C 
HETATM   18  N   UNL     1     -14.339  -0.454 -33.868  1.00  0.00    -0.365 N 
HETATM   19  H   UNL     1     -14.916   0.187 -34.401  1.00  0.00     0.159 HD
HETATM   20  H   UNL     1     -14.697  -1.335 -33.536  1.00  0.00     0.159 HD
HETATM   21  O   UNL     1     -12.265  -0.913 -33.093  1.00  0.00    -0.266 OA
ENDBRANCH  11  17
ENDBRANCH   4   7
BRANCH   2  22
HETATM   22  C   UNL     1      -6.084   1.142 -30.967  1.00  0.00     0.153 C 
BRANCH  22  23
HETATM   23  C   UNL     1      -4.862   0.725 -31.799  1.00  0.00     0.195 C 
BRANCH  23  24
HETATM   24  O   UNL     1      -5.211   0.750 -33.190  1.00  0.00    -0.350 OA
BRANCH  24  25
HETATM   25  C   UNL     1      -5.473  -0.504 -33.661  1.00  0.00     0.068 A 
HETATM   26  C   UNL     1      -6.765  -0.779 -34.105  1.00  0.00     0.038 A 
HETATM   27  C   UNL     1      -7.068  -2.039 -34.622  1.00  0.00     0.026 A 
HETATM   28  C   UNL     1      -6.071  -3.008 -34.703  1.00  0.00     0.034 A 
HETATM   29 CL   UNL     1      -6.439  -4.564 -35.340  1.00  0.00    -0.084 Cl
HETATM   30  C   UNL     1      -4.771  -2.727 -34.276  1.00  0.00     0.026 A 
HETATM   31  C   UNL     1      -4.468  -1.467 -33.758  1.00  0.00     0.038 A 
ENDBRANCH  24  25
ENDBRANCH  23  24
ENDBRANCH  22  23
ENDBRANCH   2  22
TORSDOF 6
ENDMDL
MODEL 2
REMARK VINA RESULT:      -8.3      5.476      8.372
REMARK  6 active torsions:
REMARK  status: ('A' for Active; 'I' for Inactive)
REMARK       I    between atoms: N_2  and  C_3 
REMARK    1  A    between atoms: N_2  and  C_19 
REMARK       I    between atoms: C_3  and  N_4 
REMARK    2  A    between atoms: N_4  and  C_5 
REMARK    3  A    between atoms: C_12  and  C_13 
REMARK       I    between atoms: C_13  and  N_14 
REMARK    4  A    between atoms: C_19  and  C_20 
REMARK    5  A    between atoms: C_20  and  O_21 
REMARK    6  A    between atoms: O_21  and  C_22 
ROOT
HETATM    1  C   UNL     1      -5.314   3.561 -30.097  1.00  0.00     0.154 C 
HETATM    2  N   UNL     1      -4.770   2.855 -31.248  1.00  0.00    -0.336 N 
HETATM    3  C   UNL     1      -5.527   1.768 -31.707  1.00  0.00     0.322 C 
HETATM    4  N   UNL     1      -5.055   1.207 -32.872  1.00  0.00    -0.309 N 
HETATM    5  O   UNL     1      -6.544   1.403 -31.122  1.00  0.00    -0.247 OA
HETATM    6  H   UNL     1      -4.535   1.835 -33.462  1.00  0.00     0.170 HD
ENDROOT
BRANCH   4   7
HETATM    7  C   UNL     1      -5.468  -0.008 -33.458  1.00  0.00     0.037 A 
HETATM    8  C   UNL     1      -4.774  -1.213 -33.286  1.00  0.00     0.046 A 
HETATM    9  C   UNL     1      -5.226  -2.378 -33.944  1.00  0.00     0.030 A 
HETATM   10  C   UNL     1      -6.368  -2.302 -34.730  1.00  0.00     0.063 A 
HETATM   11  C   UNL     1      -4.791  -3.732 -34.049  1.00  0.00     0.156 A 
HETATM   12  N   UNL     1      -6.563  -3.568 -35.207  1.00  0.00    -0.277 N 
HETATM   13  C   UNL     1      -7.084  -1.118 -34.924  1.00  0.00     0.034 A 
HETATM   14  H   UNL     1      -7.312  -3.887 -35.810  1.00  0.00     0.189 HD
HETATM   15  N   UNL     1      -5.633  -4.458 -34.821  1.00  0.00    -0.168 NA
HETATM   16  C   UNL     1      -6.600   0.029 -34.281  1.00  0.00     0.032 A 
BRANCH  11  17
HETATM   17  C   UNL     1      -3.595  -4.339 -33.448  1.00  0.00     0.270 C 
HETATM   18  N   UNL     1      -3.025  -5.323 -34.210  1.00  0.00    -0.365 N 
HETATM   19  H   UNL     1      -3.434  -5.532 -35.114  1.00  0.00     0.159 HD
HETATM   20  H   UNL     1      -2.178  -5.768 -33.899  1.00  0.00     0.159 HD
HETATM   21  O   UNL     1      -3.109  -4.010 -32.372  1.00  0.00    -0.266 OA
ENDBRANCH  11  17
ENDBRANCH   4   7
BRANCH   2  22
HETATM   22  C   UNL     1      -3.309   2.939 -31.430  1.00  0.00     0.153 C 
BRANCH  22  23
HETATM   23  C   UNL     1      -2.795   4.378 -31.592  1.00  0.00     0.195 C 
BRANCH  23  24
HETATM   24  O   UNL     1      -1.371   4.351 -31.759  1.00  0.00    -0.350 OA
BRANCH  24  25
HETATM   25  C   UNL     1      -0.755   5.247 -30.933  1.00  0.00     0.068 A 
HETATM   26  C   UNL     1      -1.161   6.578 -30.996  1.00  0.00     0.038 A 
HETATM   27  C   UNL     1      -0.578   7.522 -30.148  1.00  0.00     0.026 A 
HETATM   28  C   UNL     1       0.394   7.120 -29.235  1.00  0.00     0.034 A 
HETATM   29 CL   UNL     1       1.115   8.280 -28.188  1.00  0.00    -0.084 Cl
HETATM   30  C   UNL     1       0.785   5.782 -29.159  1.00  0.00     0.026 A 
HETATM   31  C   UNL     1       0.205   4.838 -30.007  1.00  0.00     0.038 A 
ENDBRANCH  24  25
ENDBRANCH  23  24
ENDBRANCH  22  23
ENDBRANCH   2  22
TORSDOF 6
ENDMDL
MODEL 3
REMARK VINA RESULT:      -8.1      3.544      7.188
REMARK  6 active torsions:
REMARK  status: ('A' for Active; 'I' for Inactive)
REMARK       I    between atoms: N_2  and  C_3 
REMARK    1  A    between atoms: N_2  and  C_19 
REMARK       I    between atoms: C_3  and  N_4 
REMARK    2  A    between atoms: N_4  and  C_5 
REMARK    3  A    between atoms: C_12  and  C_13 
REMARK       I    between atoms: C_13  and  N_14 
REMARK    4  A    between atoms: C_19  and  C_20 
REMARK    5  A    between atoms: C_20  and  O_21 
REMARK    6  A    between atoms: O_21  and  C_22 
ROOT
HETATM    1  C   UNL     1      -7.762   4.708 -29.937  1.00  0.00     0.154 C 
HETATM    2  N   UNL     1      -8.234   3.377 -30.289  1.00  0.00    -0.336 N 
HETATM    3  C   UNL     1      -7.335   2.588 -31.021  1.00  0.00     0.322 C 
HETATM    4  N   UNL     1      -7.759   1.294 -31.222  1.00  0.00    -0.309 N 
HETATM    5  O   UNL     1      -6.252   3.030 -31.395  1.00  0.00    -0.247 OA
HETATM    6  H   UNL     1      -8.394   0.944 -30.524  1.00  0.00     0.170 HD
ENDROOT
BRANCH   4   7
HETATM    7  C   UNL     1      -7.186   0.337 -32.085  1.00  0.00     0.037 A 
HETATM    8  C   UNL     1      -5.941  -0.261 -31.842  1.00  0.00     0.046 A 
HETATM    9  C   UNL     1      -5.413  -1.176 -32.778  1.00  0.00     0.030 A 
HETATM   10  C   UNL     1      -6.157  -1.479 -33.911  1.00  0.00     0.063 A 
HETATM   11  C   UNL     1      -4.214  -1.938 -32.907  1.00  0.00     0.156 A 
HETATM   12  N   UNL     1      -5.410  -2.392 -34.601  1.00  0.00    -0.277 N 
HETATM   13  C   UNL     1      -7.399  -0.901 -34.186  1.00  0.00     0.034 A 
HETATM   14  H   UNL     1      -5.647  -2.843 -35.477  1.00  0.00     0.189 HD
HETATM   15  N   UNL     1      -4.231  -2.694 -34.030  1.00  0.00    -0.168 NA
HETATM   16  C   UNL     1      -7.889   0.023 -33.254  1.00  0.00     0.032 A 
BRANCH  11  17
HETATM   17  C   UNL     1      -3.058  -1.949 -32.000  1.00  0.00     0.270 C 
HETATM   18  N   UNL     1      -2.748  -3.187 -31.506  1.00  0.00    -0.365 N 
HETATM   19  H   UNL     1      -3.296  -3.982 -31.815  1.00  0.00     0.159 HD
HETATM   20  H   UNL     1      -1.946  -3.299 -30.907  1.00  0.00     0.159 HD
HETATM   21  O   UNL     1      -2.394  -0.962 -31.700  1.00  0.00    -0.266 OA
ENDBRANCH  11  17
ENDBRANCH   4   7
BRANCH   2  22
HETATM   22  C   UNL     1      -9.696   3.211 -30.383  1.00  0.00     0.153 C 
BRANCH  22  23
HETATM   23  C   UNL     1     -10.292   3.766 -31.685  1.00  0.00     0.195 C 
BRANCH  23  24
HETATM   24  O   UNL     1     -10.156   2.782 -32.719  1.00  0.00    -0.350 OA
BRANCH  24  25
HETATM   25  C   UNL     1     -11.373   2.322 -33.133  1.00  0.00     0.068 A 
HETATM   26  C   UNL     1     -11.454   1.007 -33.588  1.00  0.00     0.038 A 
HETATM   27  C   UNL     1     -12.684   0.487 -33.992  1.00  0.00     0.026 A 
HETATM   28  C   UNL     1     -13.825   1.283 -33.923  1.00  0.00     0.034 A 
HETATM   29 CL   UNL     1     -15.344   0.646 -34.420  1.00  0.00    -0.084 Cl
HETATM   30  C   UNL     1     -13.747   2.594 -33.448  1.00  0.00     0.026 A 
HETATM   31  C   UNL     1     -12.516   3.116 -33.045  1.00  0.00     0.038 A 
ENDBRANCH  24  25
ENDBRANCH  23  24
ENDBRANCH  22  23
ENDBRANCH   2  22
TORSDOF 6
ENDMDL
MODEL 4
REMARK VINA RESULT:      -8.0      3.817      7.245
REMARK  6 active torsions:
REMARK  status: ('A' for Active; 'I' for Inactive)
REMARK       I    between atoms: N_2  and  C_3 
REMARK    1  A    between atoms: N_2  and  C_19 
REMARK       I    between atoms: C_3  and  N_4 
REMARK    2  A    between atoms: N_4  and  C_5 
REMARK    3  A    between atoms: C_12  and  C_13 
REMARK       I    between atoms: C_13  and  N_14 
REMARK    4  A    between atoms: C_19  and  C_20 
REMARK    5  A    between atoms: C_20  and  O_21 
REMARK    6  A    between atoms: O_21  and  C_22 
ROOT
HETATM    1  C   UNL     1      -9.215   2.807 -30.661  1.00  0.00     0.154 C 
HETATM    2  N   UNL     1      -7.918   2.401 -31.183  1.00  0.00    -0.336 N 
HETATM    3  C   UNL     1      -7.124   3.432 -31.705  1.00  0.00     0.322 C 
HETATM    4  N   UNL     1      -5.857   3.036 -32.067  1.00  0.00    -0.309 N 
HETATM    5  O   UNL     1      -7.538   4.587 -31.774  1.00  0.00    -0.247 OA
HETATM    6  H   UNL     1      -5.505   2.237 -31.566  1.00  0.00     0.170 HD
ENDROOT
BRANCH   4   7
HETATM    7  C   UNL     1      -4.912   3.781 -32.804  1.00  0.00     0.037 A 
HETATM    8  C   UNL     1      -3.658   4.141 -32.294  1.00  0.00     0.046 A 
HETATM    9  C   UNL     1      -2.786   4.928 -33.077  1.00  0.00     0.030 A 
HETATM   10  C   UNL     1      -3.189   5.308 -34.351  1.00  0.00     0.063 A 
HETATM   11  C   UNL     1      -1.494   5.508 -32.909  1.00  0.00     0.156 A 
HETATM   12  N   UNL     1      -2.146   6.028 -34.861  1.00  0.00    -0.277 N 
HETATM   13  C   UNL     1      -4.432   4.968 -34.890  1.00  0.00     0.034 A 
HETATM   14  H   UNL     1      -2.086   6.456 -35.777  1.00  0.00     0.189 HD
HETATM   15  N   UNL     1      -1.106   6.173 -34.022  1.00  0.00    -0.168 NA
HETATM   16  C   UNL     1      -5.289   4.208 -34.083  1.00  0.00     0.032 A 
BRANCH  11  17
HETATM   17  C   UNL     1      -0.637   5.456 -31.716  1.00  0.00     0.270 C 
HETATM   18  N   UNL     1       0.046   6.616 -31.467  1.00  0.00    -0.365 N 
HETATM   19  H   UNL     1      -0.108   7.408 -32.081  1.00  0.00     0.159 HD
HETATM   20  H   UNL     1       0.627   6.688 -30.648  1.00  0.00     0.159 HD
HETATM   21  O   UNL     1      -0.529   4.485 -30.974  1.00  0.00    -0.266 OA
ENDBRANCH  11  17
ENDBRANCH   4   7
BRANCH   2  22
HETATM   22  C   UNL     1      -7.814   1.006 -31.646  1.00  0.00     0.153 C 
BRANCH  22  23
HETATM   23  C   UNL     1      -8.180   0.823 -33.127  1.00  0.00     0.195 C 
BRANCH  23  24
HETATM   24  O   UNL     1      -6.996   0.967 -33.924  1.00  0.00    -0.350 OA
BRANCH  24  25
HETATM   25  C   UNL     1      -6.319  -0.214 -34.027  1.00  0.00     0.068 A 
HETATM   26  C   UNL     1      -5.018  -0.267 -33.530  1.00  0.00     0.038 A 
HETATM   27  C   UNL     1      -4.300  -1.463 -33.589  1.00  0.00     0.026 A 
HETATM   28  C   UNL     1      -4.897  -2.598 -34.132  1.00  0.00     0.034 A 
HETATM   29 CL   UNL     1      -4.017  -4.074 -34.206  1.00  0.00    -0.084 Cl
HETATM   30  C   UNL     1      -6.208  -2.550 -34.612  1.00  0.00     0.026 A 
HETATM   31  C   UNL     1      -6.925  -1.353 -34.555  1.00  0.00     0.038 A 
ENDBRANCH  24  25
ENDBRANCH  23  24
ENDBRANCH  22  23
ENDBRANCH   2  22
TORSDOF 6
ENDMDL
MODEL 5
REMARK VINA RESULT:      -8.0      1.585      2.488
REMARK  6 active torsions:
REMARK  status: ('A' for Active; 'I' for Inactive)
REMARK       I    between atoms: N_2  and  C_3 
REMARK    1  A    between atoms: N_2  and  C_19 
REMARK       I    between atoms: C_3  and  N_4 
REMARK    2  A    between atoms: N_4  and  C_5 
REMARK    3  A    between atoms: C_12  and  C_13 
REMARK       I    between atoms: C_13  and  N_14 
REMARK    4  A    between atoms: C_19  and  C_20 
REMARK    5  A    between atoms: C_20  and  O_21 
REMARK    6  A    between atoms: O_21  and  C_22 
ROOT
HETATM    1  C   UNL     1      -5.323   3.177 -30.171  1.00  0.00     0.154 C 
HETATM    2  N   UNL     1      -5.855   2.708 -31.442  1.00  0.00    -0.336 N 
HETATM    3  C   UNL     1      -7.232   2.445 -31.465  1.00  0.00     0.322 C 
HETATM    4  N   UNL     1      -7.723   2.133 -32.711  1.00  0.00    -0.309 N 
HETATM    5  O   UNL     1      -7.919   2.540 -30.450  1.00  0.00    -0.247 OA
HETATM    6  H   UNL     1      -7.199   2.516 -33.480  1.00  0.00     0.170 HD
ENDROOT
BRANCH   4   7
HETATM    7  C   UNL     1      -9.002   1.622 -33.016  1.00  0.00     0.037 A 
HETATM    8  C   UNL     1      -9.994   2.377 -33.657  1.00  0.00     0.046 A 
HETATM    9  C   UNL     1     -11.265   1.809 -33.886  1.00  0.00     0.030 A 
HETATM   10  C   UNL     1     -11.494   0.498 -33.487  1.00  0.00     0.063 A 
HETATM   11  C   UNL     1     -12.500   2.246 -34.450  1.00  0.00     0.156 A 
HETATM   12  N   UNL     1     -12.782   0.228 -33.856  1.00  0.00    -0.277 N 
HETATM   13  C   UNL     1     -10.530  -0.284 -32.846  1.00  0.00     0.034 A 
HETATM   14  H   UNL     1     -13.286  -0.642 -33.729  1.00  0.00     0.189 HD
HETATM   15  N   UNL     1     -13.423   1.256 -34.437  1.00  0.00    -0.168 NA
HETATM   16  C   UNL     1      -9.284   0.312 -32.607  1.00  0.00     0.032 A 
BRANCH  11  17
HETATM   17  C   UNL     1     -12.820   3.578 -34.982  1.00  0.00     0.270 C 
HETATM   18  N   UNL     1     -13.551   4.359 -34.128  1.00  0.00    -0.365 N 
HETATM   19  H   UNL     1     -13.783   3.990 -33.213  1.00  0.00     0.159 HD
HETATM   20  H   UNL     1     -13.783   5.303 -34.390  1.00  0.00     0.159 HD
HETATM   21  O   UNL     1     -12.468   3.996 -36.080  1.00  0.00    -0.266 OA
ENDBRANCH  11  17
ENDBRANCH   4   7
BRANCH   2  22
HETATM   22  C   UNL     1      -4.900   2.021 -32.330  1.00  0.00     0.153 C 
BRANCH  22  23
HETATM   23  C   UNL     1      -4.697   0.539 -31.982  1.00  0.00     0.195 C 
BRANCH  23  24
HETATM   24  O   UNL     1      -3.936  -0.088 -33.023  1.00  0.00    -0.350 OA
BRANCH  24  25
HETATM   25  C   UNL     1      -4.639  -1.097 -33.617  1.00  0.00     0.068 A 
HETATM   26  C   UNL     1      -4.006  -2.328 -33.777  1.00  0.00     0.038 A 
HETATM   27  C   UNL     1      -4.698  -3.395 -34.352  1.00  0.00     0.026 A 
HETATM   28  C   UNL     1      -6.023  -3.223 -34.747  1.00  0.00     0.034 A 
HETATM   29 CL   UNL     1      -6.881  -4.536 -35.455  1.00  0.00    -0.084 Cl
HETATM   30  C   UNL     1      -6.663  -1.995 -34.568  1.00  0.00     0.026 A 
HETATM   31  C   UNL     1      -5.971  -0.927 -33.995  1.00  0.00     0.038 A 
ENDBRANCH  24  25
ENDBRANCH  23  24
ENDBRANCH  22  23
ENDBRANCH   2  22
TORSDOF 6
ENDMDL
MODEL 6
REMARK VINA RESULT:      -8.0      4.221      8.002
REMARK  6 active torsions:
REMARK  status: ('A' for Active; 'I' for Inactive)
REMARK       I    between atoms: N_2  and  C_3 
REMARK    1  A    between atoms: N_2  and  C_19 
REMARK       I    between atoms: C_3  and  N_4 
REMARK    2  A    between atoms: N_4  and  C_5 
REMARK    3  A    between atoms: C_12  and  C_13 
REMARK       I    between atoms: C_13  and  N_14 
REMARK    4  A    between atoms: C_19  and  C_20 
REMARK    5  A    between atoms: C_20  and  O_21 
REMARK    6  A    between atoms: O_21  and  C_22 
ROOT
HETATM    1  C   UNL     1      -6.714   0.832 -30.545  1.00  0.00     0.154 C 
HETATM    2  N   UNL     1      -6.163   1.480 -31.726  1.00  0.00    -0.336 N 
HETATM    3  C   UNL     1      -5.140   2.408 -31.489  1.00  0.00     0.322 C 
HETATM    4  N   UNL     1      -4.553   2.901 -32.632  1.00  0.00    -0.309 N 
HETATM    5  O   UNL     1      -4.790   2.698 -30.347  1.00  0.00    -0.247 OA
HETATM    6  H   UNL     1      -4.598   2.287 -33.428  1.00  0.00     0.170 HD
ENDROOT
BRANCH   4   7
HETATM    7  C   UNL     1      -3.657   3.986 -32.726  1.00  0.00     0.037 A 
HETATM    8  C   UNL     1      -2.514   4.105 -31.924  1.00  0.00     0.046 A 
HETATM    9  C   UNL     1      -1.691   5.245 -32.046  1.00  0.00     0.030 A 
HETATM   10  C   UNL     1      -2.027   6.216 -32.981  1.00  0.00     0.063 A 
HETATM   11  C   UNL     1      -0.511   5.734 -31.411  1.00  0.00     0.156 A 
HETATM   12  N   UNL     1      -1.050   7.166 -32.882  1.00  0.00    -0.277 N 
HETATM   13  C   UNL     1      -3.158   6.131 -33.796  1.00  0.00     0.034 A 
HETATM   14  H   UNL     1      -0.967   8.019 -33.423  1.00  0.00     0.189 HD
HETATM   15  N   UNL     1      -0.119   6.914 -31.946  1.00  0.00    -0.168 NA
HETATM   16  C   UNL     1      -3.972   5.002 -33.637  1.00  0.00     0.032 A 
BRANCH  11  17
HETATM   17  C   UNL     1       0.234   5.114 -30.306  1.00  0.00     0.270 C 
HETATM   18  N   UNL     1      -0.209   5.473 -29.062  1.00  0.00    -0.365 N 
HETATM   19  H   UNL     1      -1.009   6.092 -28.994  1.00  0.00     0.159 HD
HETATM   20  H   UNL     1       0.215   5.067 -28.244  1.00  0.00     0.159 HD
HETATM   21  O   UNL     1       1.164   4.326 -30.445  1.00  0.00    -0.266 OA
ENDBRANCH  11  17
ENDBRANCH   4   7
BRANCH   2  22
HETATM   22  C   UNL     1      -7.057   1.564 -32.896  1.00  0.00     0.153 C 
BRANCH  22  23
HETATM   23  C   UNL     1      -7.522   0.193 -33.410  1.00  0.00     0.195 C 
BRANCH  23  24
HETATM   24  O   UNL     1      -6.760  -0.153 -34.575  1.00  0.00    -0.350 OA
BRANCH  24  25
HETATM   25  C   UNL     1      -5.963  -1.238 -34.345  1.00  0.00     0.068 A 
HETATM   26  C   UNL     1      -6.338  -2.456 -34.907  1.00  0.00     0.038 A 
HETATM   27  C   UNL     1      -5.536  -3.583 -34.721  1.00  0.00     0.026 A 
HETATM   28  C   UNL     1      -4.357  -3.475 -33.987  1.00  0.00     0.034 A 
HETATM   29 CL   UNL     1      -3.364  -4.862 -33.756  1.00  0.00    -0.084 Cl
HETATM   30  C   UNL     1      -3.971  -2.250 -33.441  1.00  0.00     0.026 A 
HETATM   31  C   UNL     1      -4.774  -1.123 -33.624  1.00  0.00     0.038 A 
ENDBRANCH  24  25
ENDBRANCH  23  24
ENDBRANCH  22  23
ENDBRANCH   2  22
TORSDOF 6
ENDMDL
MODEL 7
REMARK VINA RESULT:      -8.0      4.829      8.002
REMARK  6 active torsions:
REMARK  status: ('A' for Active; 'I' for Inactive)
REMARK       I    between atoms: N_2  and  C_3 
REMARK    1  A    between atoms: N_2  and  C_19 
REMARK       I    between atoms: C_3  and  N_4 
REMARK    2  A    between atoms: N_4  and  C_5 
REMARK    3  A    between atoms: C_12  and  C_13 
REMARK       I    between atoms: C_13  and  N_14 
REMARK    4  A    between atoms: C_19  and  C_20 
REMARK    5  A    between atoms: C_20  and  O_21 
REMARK    6  A    between atoms: O_21  and  C_22 
ROOT
HETATM    1  C   UNL     1      -8.279   4.170 -33.029  1.00  0.00     0.154 C 
HETATM    2  N   UNL     1      -6.859   3.854 -32.982  1.00  0.00    -0.336 N 
HETATM    3  C   UNL     1      -6.543   2.497 -32.827  1.00  0.00     0.322 C 
HETATM    4  N   UNL     1      -5.199   2.220 -32.921  1.00  0.00    -0.309 N 
HETATM    5  O   UNL     1      -7.419   1.650 -32.671  1.00  0.00    -0.247 OA
HETATM    6  H   UNL     1      -4.670   2.873 -33.474  1.00  0.00     0.170 HD
ENDROOT
BRANCH   4   7
HETATM    7  C   UNL     1      -4.559   1.004 -32.604  1.00  0.00     0.037 A 
HETATM    8  C   UNL     1      -4.775  -0.182 -33.320  1.00  0.00     0.046 A 
HETATM    9  C   UNL     1      -4.132  -1.370 -32.912  1.00  0.00     0.030 A 
HETATM   10  C   UNL     1      -3.278  -1.327 -31.818  1.00  0.00     0.063 A 
HETATM   11  C   UNL     1      -4.122  -2.732 -33.337  1.00  0.00     0.156 A 
HETATM   12  N   UNL     1      -2.799  -2.600 -31.683  1.00  0.00    -0.277 N 
HETATM   13  C   UNL     1      -3.039  -0.164 -31.081  1.00  0.00     0.034 A 
HETATM   14  H   UNL     1      -2.140  -2.937 -30.991  1.00  0.00     0.189 HD
HETATM   15  N   UNL     1      -3.285  -3.476 -32.578  1.00  0.00    -0.168 NA
HETATM   16  C   UNL     1      -3.710   0.996 -31.490  1.00  0.00     0.032 A 
BRANCH  11  17
HETATM   17  C   UNL     1      -4.898  -3.334 -34.430  1.00  0.00     0.270 C 
HETATM   18  N   UNL     1      -4.952  -4.701 -34.389  1.00  0.00    -0.365 N 
HETATM   19  H   UNL     1      -4.499  -5.180 -33.619  1.00  0.00     0.159 HD
HETATM   20  H   UNL     1      -5.495  -5.201 -35.075  1.00  0.00     0.159 HD
HETATM   21  O   UNL     1      -5.474  -2.704 -35.311  1.00  0.00    -0.266 OA
ENDBRANCH  11  17
ENDBRANCH   4   7
BRANCH   2  22
HETATM   22  C   UNL     1      -5.970   4.936 -32.520  1.00  0.00     0.153 C 
BRANCH  22  23
HETATM   23  C   UNL     1      -5.163   5.591 -33.651  1.00  0.00     0.195 C 
BRANCH  23  24
HETATM   24  O   UNL     1      -4.032   4.765 -33.959  1.00  0.00    -0.350 OA
BRANCH  24  25
HETATM   25  C   UNL     1      -2.901   5.220 -33.343  1.00  0.00     0.068 A 
HETATM   26  C   UNL     1      -2.442   6.492 -33.677  1.00  0.00     0.038 A 
HETATM   27  C   UNL     1      -1.307   7.008 -33.050  1.00  0.00     0.026 A 
HETATM   28  C   UNL     1      -0.650   6.250 -32.083  1.00  0.00     0.034 A 
HETATM   29 CL   UNL     1       0.750   6.882 -31.307  1.00  0.00    -0.084 Cl
HETATM   30  C   UNL     1      -1.122   4.983 -31.734  1.00  0.00     0.026 A 
HETATM   31  C   UNL     1      -2.256   4.466 -32.362  1.00  0.00     0.038 A 
ENDBRANCH  24  25
ENDBRANCH  23  24
ENDBRANCH  22  23
ENDBRANCH   2  22
TORSDOF 6
ENDMDL
MODEL 8
REMARK VINA RESULT:      -8.0      4.909      7.813
REMARK  6 active torsions:
REMARK  status: ('A' for Active; 'I' for Inactive)
REMARK       I    between atoms: N_2  and  C_3 
REMARK    1  A    between atoms: N_2  and  C_19 
REMARK       I    between atoms: C_3  and  N_4 
REMARK    2  A    between atoms: N_4  and  C_5 
REMARK    3  A    between atoms: C_12  and  C_13 
REMARK       I    between atoms: C_13  and  N_14 
REMARK    4  A    between atoms: C_19  and  C_20 
REMARK    5  A    between atoms: C_20  and  O_21 
REMARK    6  A    between atoms: O_21  and  C_22 
ROOT
HETATM    1  C   UNL     1      -6.224   1.012 -30.034  1.00  0.00     0.154 C 
HETATM    2  N   UNL     1      -4.863   1.364 -30.414  1.00  0.00    -0.336 N 
HETATM    3  C   UNL     1      -4.680   2.679 -30.865  1.00  0.00     0.322 C 
HETATM    4  N   UNL     1      -3.365   3.017 -31.088  1.00  0.00    -0.309 N 
HETATM    5  O   UNL     1      -5.628   3.450 -30.993  1.00  0.00    -0.247 OA
HETATM    6  H   UNL     1      -2.697   2.498 -30.543  1.00  0.00     0.170 HD
ENDROOT
BRANCH   4   7
HETATM    7  C   UNL     1      -2.884   4.175 -31.734  1.00  0.00     0.037 A 
HETATM    8  C   UNL     1      -2.817   5.427 -31.107  1.00  0.00     0.046 A 
HETATM    9  C   UNL     1      -2.367   6.549 -31.836  1.00  0.00     0.030 A 
HETATM   10  C   UNL     1      -1.978   6.376 -33.158  1.00  0.00     0.063 A 
HETATM   11  C   UNL     1      -2.196   7.942 -31.577  1.00  0.00     0.156 A 
HETATM   12  N   UNL     1      -1.579   7.613 -33.581  1.00  0.00    -0.277 N 
HETATM   13  C   UNL     1      -2.033   5.145 -33.814  1.00  0.00     0.034 A 
HETATM   14  H   UNL     1      -1.223   7.862 -34.497  1.00  0.00     0.189 HD
HETATM   15  N   UNL     1      -1.697   8.583 -32.659  1.00  0.00    -0.168 NA
HETATM   16  C   UNL     1      -2.508   4.052 -33.077  1.00  0.00     0.032 A 
BRANCH  11  17
HETATM   17  C   UNL     1      -2.509   8.668 -30.338  1.00  0.00     0.270 C 
HETATM   18  N   UNL     1      -3.726   9.293 -30.351  1.00  0.00    -0.365 N 
HETATM   19  H   UNL     1      -4.316   9.188 -31.169  1.00  0.00     0.159 HD
HETATM   20  H   UNL     1      -4.045   9.782 -29.530  1.00  0.00     0.159 HD
HETATM   21  O   UNL     1      -1.780   8.718 -29.353  1.00  0.00    -0.266 OA
ENDBRANCH  11  17
ENDBRANCH   4   7
BRANCH   2  22
HETATM   22  C   UNL     1      -4.001   0.248 -30.844  1.00  0.00     0.153 C 
BRANCH  22  23
HETATM   23  C   UNL     1      -3.723   0.238 -32.355  1.00  0.00     0.195 C 
BRANCH  23  24
HETATM   24  O   UNL     1      -4.968   0.322 -33.061  1.00  0.00    -0.350 OA
BRANCH  24  25
HETATM   25  C   UNL     1      -5.306  -0.878 -33.620  1.00  0.00     0.068 A 
HETATM   26  C   UNL     1      -6.639  -1.082 -33.972  1.00  0.00     0.038 A 
HETATM   27  C   UNL     1      -7.023  -2.282 -34.573  1.00  0.00     0.026 A 
HETATM   28  C   UNL     1      -6.065  -3.261 -34.829  1.00  0.00     0.034 A 
HETATM   29 CL   UNL     1      -6.532  -4.742 -35.570  1.00  0.00    -0.084 Cl
HETATM   30  C   UNL     1      -4.725  -3.047 -34.495  1.00  0.00     0.026 A 
HETATM   31  C   UNL     1      -4.342  -1.848 -33.892  1.00  0.00     0.038 A 
ENDBRANCH  24  25
ENDBRANCH  23  24
ENDBRANCH  22  23
ENDBRANCH   2  22
TORSDOF 6
ENDMDL
MODEL 9
REMARK VINA RESULT:      -7.8      2.873      6.596
REMARK  6 active torsions:
REMARK  status: ('A' for Active; 'I' for Inactive)
REMARK       I    between atoms: N_2  and  C_3 
REMARK    1  A    between atoms: N_2  and  C_19 
REMARK       I    between atoms: C_3  and  N_4 
REMARK    2  A    between atoms: N_4  and  C_5 
REMARK    3  A    between atoms: C_12  and  C_13 
REMARK       I    between atoms: C_13  and  N_14 
REMARK    4  A    between atoms: C_19  and  C_20 
REMARK    5  A    between atoms: C_20  and  O_21 
REMARK    6  A    between atoms: O_21  and  C_22 
ROOT
HETATM    1  C   UNL     1     -10.672   2.491 -34.553  1.00  0.00     0.154 C 
HETATM    2  N   UNL     1      -9.568   2.023 -33.727  1.00  0.00    -0.336 N 
HETATM    3  C   UNL     1      -8.626   2.996 -33.365  1.00  0.00     0.322 C 
HETATM    4  N   UNL     1      -7.673   2.551 -32.479  1.00  0.00    -0.309 N 
HETATM    5  O   UNL     1      -8.703   4.149 -33.784  1.00  0.00    -0.247 OA
HETATM    6  H   UNL     1      -7.965   1.788 -31.891  1.00  0.00     0.170 HD
ENDROOT
BRANCH   4   7
HETATM    7  C   UNL     1      -6.491   3.220 -32.097  1.00  0.00     0.037 A 
HETATM    8  C   UNL     1      -5.604   3.791 -33.021  1.00  0.00     0.046 A 
HETATM    9  C   UNL     1      -4.418   4.403 -32.562  1.00  0.00     0.030 A 
HETATM   10  C   UNL     1      -4.170   4.443 -31.196  1.00  0.00     0.063 A 
HETATM   11  C   UNL     1      -3.290   5.038 -33.163  1.00  0.00     0.156 A 
HETATM   12  N   UNL     1      -2.981   5.104 -31.064  1.00  0.00    -0.277 N 
HETATM   13  C   UNL     1      -5.030   3.883 -30.248  1.00  0.00     0.034 A 
HETATM   14  H   UNL     1      -2.496   5.326 -30.203  1.00  0.00     0.189 HD
HETATM   15  N   UNL     1      -2.419   5.478 -32.225  1.00  0.00    -0.168 NA
HETATM   16  C   UNL     1      -6.188   3.259 -30.731  1.00  0.00     0.032 A 
BRANCH  11  17
HETATM   17  C   UNL     1      -3.023   5.220 -34.596  1.00  0.00     0.270 C 
HETATM   18  N   UNL     1      -1.705   5.081 -34.940  1.00  0.00    -0.365 N 
HETATM   19  H   UNL     1      -1.039   4.840 -34.215  1.00  0.00     0.159 HD
HETATM   20  H   UNL     1      -1.432   5.148 -35.907  1.00  0.00     0.159 HD
HETATM   21  O   UNL     1      -3.877   5.457 -35.443  1.00  0.00    -0.266 OA
ENDBRANCH  11  17
ENDBRANCH   4   7
BRANCH   2  22
HETATM   22  C   UNL     1      -9.229   0.594 -33.848  1.00  0.00     0.153 C 
BRANCH  22  23
HETATM   23  C   UNL     1      -8.161   0.307 -34.916  1.00  0.00     0.195 C 
BRANCH  23  24
HETATM   24  O   UNL     1      -6.862   0.539 -34.353  1.00  0.00    -0.350 OA
BRANCH  24  25
HETATM   25  C   UNL     1      -6.149  -0.621 -34.252  1.00  0.00     0.068 A 
HETATM   26  C   UNL     1      -6.667  -1.762 -34.862  1.00  0.00     0.038 A 
HETATM   27  C   UNL     1      -5.956  -2.962 -34.808  1.00  0.00     0.026 A 
HETATM   28  C   UNL     1      -4.725  -3.004 -34.158  1.00  0.00     0.034 A 
HETATM   29 CL   UNL     1      -3.844  -4.480 -34.090  1.00  0.00    -0.084 Cl
HETATM   30  C   UNL     1      -4.196  -1.855 -33.565  1.00  0.00     0.026 A 
HETATM   31  C   UNL     1      -4.908  -0.656 -33.616  1.00  0.00     0.038 A 
ENDBRANCH  24  25
ENDBRANCH  23  24
ENDBRANCH  22  23
ENDBRANCH   2  22
TORSDOF 6
ENDMDL
MODEL 10
REMARK VINA RESULT:      -7.7      4.874      7.743
REMARK  6 active torsions:
REMARK  status: ('A' for Active; 'I' for Inactive)
REMARK       I    between atoms: N_2  and  C_3 
REMARK    1  A    between atoms: N_2  and  C_19 
REMARK       I    between atoms: C_3  and  N_4 
REMARK    2  A    between atoms: N_4  and  C_5 
REMARK    3  A    between atoms: C_12  and  C_13 
REMARK       I    between atoms: C_13  and  N_14 
REMARK    4  A    between atoms: C_19  and  C_20 
REMARK    5  A    between atoms: C_20  and  O_21 
REMARK    6  A    between atoms: O_21  and  C_22 
ROOT
HETATM    1  C   UNL     1      -7.614   4.326 -30.323  1.00  0.00     0.154 C 
HETATM    2  N   UNL     1      -6.749   3.855 -31.395  1.00  0.00    -0.336 N 
HETATM    3  C   UNL     1      -6.927   2.518 -31.775  1.00  0.00     0.322 C 
HETATM    4  N   UNL     1      -6.190   2.145 -32.876  1.00  0.00    -0.309 N 
HETATM    5  O   UNL     1      -7.715   1.783 -31.185  1.00  0.00    -0.247 OA
HETATM    6  H   UNL     1      -5.963   2.896 -33.507  1.00  0.00     0.170 HD
ENDROOT
BRANCH   4   7
HETATM    7  C   UNL     1      -5.996   0.836 -33.364  1.00  0.00     0.037 A 
HETATM    8  C   UNL     1      -5.098  -0.070 -32.783  1.00  0.00     0.046 A 
HETATM    9  C   UNL     1      -4.925  -1.348 -33.358  1.00  0.00     0.030 A 
HETATM   10  C   UNL     1      -5.673  -1.683 -34.479  1.00  0.00     0.063 A 
HETATM   11  C   UNL     1      -4.114  -2.492 -33.096  1.00  0.00     0.156 A 
HETATM   12  N   UNL     1      -5.310  -2.965 -34.785  1.00  0.00    -0.277 N 
HETATM   13  C   UNL     1      -6.576  -0.806 -35.085  1.00  0.00     0.034 A 
HETATM   14  H   UNL     1      -5.663  -3.537 -35.543  1.00  0.00     0.189 HD
HETATM   15  N   UNL     1      -4.372  -3.487 -33.976  1.00  0.00    -0.168 NA
HETATM   16  C   UNL     1      -6.709   0.465 -34.510  1.00  0.00     0.032 A 
BRANCH  11  17
HETATM   17  C   UNL     1      -3.100  -2.649 -32.045  1.00  0.00     0.270 C 
HETATM   18  N   UNL     1      -2.465  -1.485 -31.704  1.00  0.00    -0.365 N 
HETATM   19  H   UNL     1      -2.751  -0.626 -32.160  1.00  0.00     0.159 HD
HETATM   20  H   UNL     1      -1.782  -1.487 -30.963  1.00  0.00     0.159 HD
HETATM   21  O   UNL     1      -2.829  -3.706 -31.486  1.00  0.00    -0.266 OA
ENDBRANCH  11  17
ENDBRANCH   4   7
BRANCH   2  22
HETATM   22  C   UNL     1      -5.465   4.562 -31.550  1.00  0.00     0.153 C 
BRANCH  22  23
HETATM   23  C   UNL     1      -5.509   5.690 -32.592  1.00  0.00     0.195 C 
BRANCH  23  24
HETATM   24  O   UNL     1      -4.476   5.472 -33.563  1.00  0.00    -0.350 OA
BRANCH  24  25
HETATM   25  C   UNL     1      -3.245   5.783 -33.060  1.00  0.00     0.068 A 
HETATM   26  C   UNL     1      -3.064   7.052 -32.515  1.00  0.00     0.038 A 
HETATM   27  C   UNL     1      -1.830   7.402 -31.963  1.00  0.00     0.026 A 
HETATM   28  C   UNL     1      -0.795   6.470 -31.948  1.00  0.00     0.034 A 
HETATM   29 CL   UNL     1       0.728   6.895 -31.268  1.00  0.00    -0.084 Cl
HETATM   30  C   UNL     1      -0.983   5.191 -32.475  1.00  0.00     0.026 A 
HETATM   31  C   UNL     1      -2.216   4.842 -33.030  1.00  0.00     0.038 A 
ENDBRANCH  24  25
ENDBRANCH  23  24
ENDBRANCH  22  23
ENDBRANCH   2  22
TORSDOF 6
ENDMDL
