MODEL 1
REMARK VINA RESULT:      -9.2      0.000      0.000
REMARK  3 active torsions:
REMARK  status: ('A' for Active; 'I' for Inactive)
REMARK    1  A    between atoms: O_2  and  C_3 
REMARK    2  A    between atoms: C_9  and  C_10 
REMARK       I    between atoms: C_10  and  N_11 
REMARK    3  A    between atoms: N_11  and  C_12 
ROOT
HETATM    1  C   UNL     1      -5.937  -3.235 -34.510  1.00  0.00     0.068 A 
HETATM    2  C   UNL     1      -4.753  -2.663 -34.034  1.00  0.00     0.044 A 
HETATM    3  C   UNL     1      -4.699  -1.304 -33.694  1.00  0.00    -0.043 A 
HETATM    4  C   UNL     1      -5.851  -0.504 -33.864  1.00  0.00    -0.001 A 
HETATM    5  C   UNL     1      -5.731   0.892 -33.478  1.00  0.00     0.069 A 
HETATM    6  C   UNL     1      -4.668   1.416 -32.776  1.00  0.00     0.007 A 
HETATM    7  C   UNL     1      -4.971   2.787 -32.589  1.00  0.00     0.153 A 
HETATM    8  N   UNL     1      -6.151   3.100 -33.178  1.00  0.00    -0.168 NA
HETATM    9  N   UNL     1      -6.578   1.932 -33.704  1.00  0.00    -0.276 N 
HETATM   10  H   UNL     1      -7.459   1.923 -34.205  1.00  0.00     0.189 HD
HETATM   11  C   UNL     1      -3.534   0.562 -32.328  1.00  0.00     0.048 C 
HETATM   12  C   UNL     1      -3.384  -0.681 -33.238  1.00  0.00     0.044 C 
HETATM   13  C   UNL     1      -7.030  -1.073 -34.345  1.00  0.00     0.017 A 
HETATM   14  C   UNL     1      -7.072  -2.436 -34.666  1.00  0.00     0.037 A 
ENDROOT
BRANCH   7  15
HETATM   15  C   UNL     1      -4.188   3.801 -31.855  1.00  0.00     0.277 C 
HETATM   16  N   UNL     1      -2.912   3.926 -32.372  1.00  0.00    -0.322 N 
HETATM   17  H   UNL     1      -2.740   3.291 -33.150  1.00  0.00     0.169 HD
HETATM   18  O   UNL     1      -4.658   4.433 -30.916  1.00  0.00    -0.266 OA
BRANCH  16  19
HETATM   19  C   UNL     1      -1.886   4.800 -31.980  1.00  0.00     0.036 A 
HETATM   20  C   UNL     1      -1.157   4.665 -30.795  1.00  0.00     0.056 A 
HETATM   21  C   UNL     1      -0.158   5.590 -30.478  1.00  0.00     0.074 A 
HETATM   22 CL   UNL     1       0.728   5.411 -29.010  1.00  0.00    -0.081 Cl
HETATM   23  C   UNL     1       0.115   6.647 -31.341  1.00  0.00     0.138 A 
HETATM   24  F   UNL     1       1.069   7.544 -31.051  1.00  0.00    -0.204 F 
HETATM   25  C   UNL     1      -0.600   6.792 -32.523  1.00  0.00     0.046 A 
HETATM   26  C   UNL     1      -1.600   5.869 -32.842  1.00  0.00     0.032 A 
ENDBRANCH  16  19
ENDBRANCH   7  15
BRANCH   1  27
HETATM   27  O   UNL     1      -5.850  -4.570 -34.791  1.00  0.00    -0.356 OA
HETATM   28  C   UNL     1      -4.729  -5.269 -34.263  1.00  0.00     0.210 C 
ENDBRANCH   1  27
TORSDOF 3
ENDMDL
MODEL 2
REMARK VINA RESULT:      -8.9      1.891      2.577
REMARK  3 active torsions:
REMARK  status: ('A' for Active; 'I' for Inactive)
REMARK    1  A    between atoms: O_2  and  C_3 
REMARK    2  A    between atoms: C_9  and  C_10 
REMARK       I    between atoms: C_10  and  N_11 
REMARK    3  A    between atoms: N_11  and  C_12 
ROOT
HETATM    1  C   UNL     1      -4.968  -4.109 -34.317  1.00  0.00     0.068 A 
HETATM    2  C   UNL     1      -5.708  -2.923 -34.333  1.00  0.00     0.044 A 
HETATM    3  C   UNL     1      -5.270  -1.795 -33.626  1.00  0.00    -0.043 A 
HETATM    4  C   UNL     1      -4.080  -1.874 -32.868  1.00  0.00    -0.001 A 
HETATM    5  C   UNL     1      -3.676  -0.664 -32.172  1.00  0.00     0.069 A 
HETATM    6  C   UNL     1      -4.242   0.575 -32.373  1.00  0.00     0.007 A 
HETATM    7  C   UNL     1      -3.534   1.462 -31.526  1.00  0.00     0.153 A 
HETATM    8  N   UNL     1      -2.597   0.793 -30.810  1.00  0.00    -0.168 NA
HETATM    9  N   UNL     1      -2.714  -0.486 -31.227  1.00  0.00    -0.276 N 
HETATM   10  H   UNL     1      -2.102  -1.184 -30.819  1.00  0.00     0.189 HD
HETATM   11  C   UNL     1      -5.332   0.781 -33.366  1.00  0.00     0.048 C 
HETATM   12  C   UNL     1      -6.122  -0.530 -33.601  1.00  0.00     0.044 C 
HETATM   13  C   UNL     1      -3.345  -3.059 -32.847  1.00  0.00     0.017 A 
HETATM   14  C   UNL     1      -3.788  -4.173 -33.572  1.00  0.00     0.037 A 
ENDROOT
BRANCH   7  15
HETATM   15  C   UNL     1      -3.705   2.922 -31.388  1.00  0.00     0.277 C 
HETATM   16  N   UNL     1      -2.562   3.603 -31.764  1.00  0.00    -0.322 N 
HETATM   17  H   UNL     1      -1.810   2.979 -32.051  1.00  0.00     0.169 HD
HETATM   18  O   UNL     1      -4.753   3.421 -30.993  1.00  0.00    -0.266 OA
BRANCH  16  19
HETATM   19  C   UNL     1      -2.340   4.989 -31.812  1.00  0.00     0.036 A 
HETATM   20  C   UNL     1      -2.070   5.774 -30.687  1.00  0.00     0.056 A 
HETATM   21  C   UNL     1      -1.872   7.151 -30.826  1.00  0.00     0.074 A 
HETATM   22 CL   UNL     1      -1.546   8.106 -29.429  1.00  0.00    -0.081 Cl
HETATM   23  C   UNL     1      -1.940   7.743 -32.084  1.00  0.00     0.138 A 
HETATM   24  F   UNL     1      -1.755   9.063 -32.235  1.00  0.00    -0.204 F 
HETATM   25  C   UNL     1      -2.205   6.974 -33.211  1.00  0.00     0.046 A 
HETATM   26  C   UNL     1      -2.405   5.598 -33.074  1.00  0.00     0.032 A 
ENDBRANCH  16  19
ENDBRANCH   7  15
BRANCH   1  27
HETATM   27  O   UNL     1      -5.505  -5.124 -35.060  1.00  0.00    -0.356 OA
HETATM   28  C   UNL     1      -6.688  -4.832 -35.792  1.00  0.00     0.210 C 
ENDBRANCH   1  27
TORSDOF 3
ENDMDL
MODEL 3
REMARK VINA RESULT:      -8.6      6.542      9.047
REMARK  3 active torsions:
REMARK  status: ('A' for Active; 'I' for Inactive)
REMARK    1  A    between atoms: O_2  and  C_3 
REMARK    2  A    between atoms: C_9  and  C_10 
REMARK       I    between atoms: C_10  and  N_11 
REMARK    3  A    between atoms: N_11  and  C_12 
ROOT
HETATM    1  C   UNL     1     -14.338   3.642 -31.939  1.00  0.00     0.068 A 
HETATM    2  C   UNL     1     -13.870   2.843 -32.988  1.00  0.00     0.044 A 
HETATM    3  C   UNL     1     -12.497   2.626 -33.165  1.00  0.00    -0.043 A 
HETATM    4  C   UNL     1     -11.580   3.249 -32.289  1.00  0.00    -0.001 A 
HETATM    5  C   UNL     1     -10.173   2.970 -32.520  1.00  0.00     0.069 A 
HETATM    6  C   UNL     1      -9.703   1.997 -33.375  1.00  0.00     0.007 A 
HETATM    7  C   UNL     1      -8.292   2.047 -33.272  1.00  0.00     0.153 A 
HETATM    8  N   UNL     1      -7.909   3.027 -32.419  1.00  0.00    -0.168 NA
HETATM    9  N   UNL     1      -9.071   3.562 -31.987  1.00  0.00    -0.276 N 
HETATM   10  H   UNL     1      -9.032   4.331 -31.328  1.00  0.00     0.189 HD
HETATM   11  C   UNL     1     -10.631   1.116 -34.135  1.00  0.00     0.048 C 
HETATM   12  C   UNL     1     -11.999   1.806 -34.351  1.00  0.00     0.044 C 
HETATM   13  C   UNL     1     -12.047   4.051 -31.247  1.00  0.00     0.017 A 
HETATM   14  C   UNL     1     -13.424   4.245 -31.073  1.00  0.00     0.037 A 
ENDROOT
BRANCH   7  15
HETATM   15  C   UNL     1      -7.299   1.182 -33.942  1.00  0.00     0.277 C 
HETATM   16  N   UNL     1      -7.147  -0.021 -33.278  1.00  0.00    -0.322 N 
HETATM   17  H   UNL     1      -7.732  -0.087 -32.447  1.00  0.00     0.169 HD
HETATM   18  O   UNL     1      -6.714   1.530 -34.961  1.00  0.00    -0.266 OA
BRANCH  16  19
HETATM   19  C   UNL     1      -6.335  -1.115 -33.616  1.00  0.00     0.036 A 
HETATM   20  C   UNL     1      -6.775  -2.210 -34.367  1.00  0.00     0.056 A 
HETATM   21  C   UNL     1      -5.900  -3.263 -34.648  1.00  0.00     0.074 A 
HETATM   22 CL   UNL     1      -6.459  -4.607 -35.571  1.00  0.00    -0.081 Cl
HETATM   23  C   UNL     1      -4.588  -3.225 -34.184  1.00  0.00     0.138 A 
HETATM   24  F   UNL     1      -3.736  -4.227 -34.442  1.00  0.00    -0.204 F 
HETATM   25  C   UNL     1      -4.137  -2.142 -33.438  1.00  0.00     0.046 A 
HETATM   26  C   UNL     1      -5.011  -1.089 -33.155  1.00  0.00     0.032 A 
ENDBRANCH  16  19
ENDBRANCH   7  15
BRANCH   1  27
HETATM   27  O   UNL     1     -15.700   3.757 -31.877  1.00  0.00    -0.356 OA
HETATM   28  C   UNL     1     -16.460   2.591 -32.169  1.00  0.00     0.210 C 
ENDBRANCH   1  27
TORSDOF 3
ENDMDL
MODEL 4
REMARK VINA RESULT:      -8.4      4.561     10.309
REMARK  3 active torsions:
REMARK  status: ('A' for Active; 'I' for Inactive)
REMARK    1  A    between atoms: O_2  and  C_3 
REMARK    2  A    between atoms: C_9  and  C_10 
REMARK       I    between atoms: C_10  and  N_11 
REMARK    3  A    between atoms: N_11  and  C_12 
ROOT
HETATM    1  C   UNL     1       0.219   9.834 -27.126  1.00  0.00     0.068 A 
HETATM    2  C   UNL     1      -1.008   9.613 -27.759  1.00  0.00     0.044 A 
HETATM    3  C   UNL     1      -1.164   8.562 -28.673  1.00  0.00    -0.043 A 
HETATM    4  C   UNL     1      -0.055   7.739 -28.975  1.00  0.00    -0.001 A 
HETATM    5  C   UNL     1      -0.291   6.660 -29.919  1.00  0.00     0.069 A 
HETATM    6  C   UNL     1      -1.536   6.266 -30.357  1.00  0.00     0.007 A 
HETATM    7  C   UNL     1      -1.307   5.175 -31.231  1.00  0.00     0.153 A 
HETATM    8  N   UNL     1       0.020   4.929 -31.351  1.00  0.00    -0.168 NA
HETATM    9  N   UNL     1       0.600   5.845 -30.546  1.00  0.00    -0.276 N 
HETATM   10  H   UNL     1       1.611   5.854 -30.477  1.00  0.00     0.189 HD
HETATM   11  C   UNL     1      -2.777   6.925 -29.866  1.00  0.00     0.048 C 
HETATM   12  C   UNL     1      -2.490   8.373 -29.403  1.00  0.00     0.044 C 
HETATM   13  C   UNL     1       1.170   7.964 -28.349  1.00  0.00     0.017 A 
HETATM   14  C   UNL     1       1.306   9.009 -27.425  1.00  0.00     0.037 A 
ENDROOT
BRANCH   7  15
HETATM   15  C   UNL     1      -2.307   4.349 -31.937  1.00  0.00     0.277 C 
HETATM   16  N   UNL     1      -2.772   3.323 -31.136  1.00  0.00    -0.322 N 
HETATM   17  H   UNL     1      -2.334   3.314 -30.216  1.00  0.00     0.169 HD
HETATM   18  O   UNL     1      -2.655   4.588 -33.087  1.00  0.00    -0.266 OA
BRANCH  16  19
HETATM   19  C   UNL     1      -3.747   2.354 -31.425  1.00  0.00     0.036 A 
HETATM   20  C   UNL     1      -3.521   1.240 -32.238  1.00  0.00     0.056 A 
HETATM   21  C   UNL     1      -4.553   0.330 -32.481  1.00  0.00     0.074 A 
HETATM   22 CL   UNL     1      -4.260  -1.036 -33.490  1.00  0.00    -0.081 Cl
HETATM   23  C   UNL     1      -5.808   0.529 -31.914  1.00  0.00     0.138 A 
HETATM   24  F   UNL     1      -6.811  -0.333 -32.138  1.00  0.00    -0.204 F 
HETATM   25  C   UNL     1      -6.046   1.631 -31.101  1.00  0.00     0.046 A 
HETATM   26  C   UNL     1      -5.016   2.543 -30.858  1.00  0.00     0.032 A 
ENDBRANCH  16  19
ENDBRANCH   7  15
BRANCH   1  27
HETATM   27  O   UNL     1       0.226  10.884 -26.250  1.00  0.00    -0.356 OA
HETATM   28  C   UNL     1       1.403  11.068 -25.472  1.00  0.00     0.210 C 
ENDBRANCH   1  27
TORSDOF 3
ENDMDL
MODEL 5
REMARK VINA RESULT:      -8.4      2.078      2.249
REMARK  3 active torsions:
REMARK  status: ('A' for Active; 'I' for Inactive)
REMARK    1  A    between atoms: O_2  and  C_3 
REMARK    2  A    between atoms: C_9  and  C_10 
REMARK       I    between atoms: C_10  and  N_11 
REMARK    3  A    between atoms: N_11  and  C_12 
ROOT
HETATM    1  C   UNL     1      -5.655  -3.337 -34.529  1.00  0.00     0.068 A 
HETATM    2  C   UNL     1      -4.574  -2.643 -33.976  1.00  0.00     0.044 A 
HETATM    3  C   UNL     1      -4.689  -1.286 -33.643  1.00  0.00    -0.043 A 
HETATM    4  C   UNL     1      -5.905  -0.612 -33.901  1.00  0.00    -0.001 A 
HETATM    5  C   UNL     1      -5.960   0.789 -33.518  1.00  0.00     0.069 A 
HETATM    6  C   UNL     1      -5.011   1.423 -32.748  1.00  0.00     0.007 A 
HETATM    7  C   UNL     1      -5.470   2.754 -32.594  1.00  0.00     0.153 A 
HETATM    8  N   UNL     1      -6.632   2.940 -33.266  1.00  0.00    -0.168 NA
HETATM    9  N   UNL     1      -6.895   1.732 -33.811  1.00  0.00    -0.276 N 
HETATM   10  H   UNL     1      -7.732   1.630 -34.374  1.00  0.00     0.189 HD
HETATM   11  C   UNL     1      -3.828   0.694 -32.214  1.00  0.00     0.048 C 
HETATM   12  C   UNL     1      -3.483  -0.527 -33.101  1.00  0.00     0.044 C 
HETATM   13  C   UNL     1      -6.980  -1.303 -34.459  1.00  0.00     0.017 A 
HETATM   14  C   UNL     1      -6.854  -2.664 -34.771  1.00  0.00     0.037 A 
ENDROOT
BRANCH   7  15
HETATM   15  C   UNL     1      -4.852   3.846 -31.815  1.00  0.00     0.277 C 
HETATM   16  N   UNL     1      -4.475   4.898 -32.630  1.00  0.00    -0.322 N 
HETATM   17  H   UNL     1      -4.677   4.724 -33.613  1.00  0.00     0.169 HD
HETATM   18  O   UNL     1      -4.719   3.785 -30.598  1.00  0.00    -0.266 OA
BRANCH  16  19
HETATM   19  C   UNL     1      -3.895   6.124 -32.270  1.00  0.00     0.036 A 
HETATM   20  C   UNL     1      -4.584   7.152 -31.621  1.00  0.00     0.056 A 
HETATM   21  C   UNL     1      -3.929   8.347 -31.309  1.00  0.00     0.074 A 
HETATM   22 CL   UNL     1      -4.796   9.607 -30.513  1.00  0.00    -0.081 Cl
HETATM   23  C   UNL     1      -2.589   8.517 -31.643  1.00  0.00     0.138 A 
HETATM   24  F   UNL     1      -1.946   9.658 -31.355  1.00  0.00    -0.204 F 
HETATM   25  C   UNL     1      -1.891   7.503 -32.287  1.00  0.00     0.046 A 
HETATM   26  C   UNL     1      -2.544   6.308 -32.600  1.00  0.00     0.032 A 
ENDBRANCH  16  19
ENDBRANCH   7  15
BRANCH   1  27
HETATM   27  O   UNL     1      -5.407  -4.656 -34.792  1.00  0.00    -0.356 OA
HETATM   28  C   UNL     1      -4.361  -5.276 -34.055  1.00  0.00     0.210 C 
ENDBRANCH   1  27
TORSDOF 3
ENDMDL
MODEL 6
REMARK VINA RESULT:      -8.4      4.460      8.999
REMARK  3 active torsions:
REMARK  status: ('A' for Active; 'I' for Inactive)
REMARK    1  A    between atoms: O_2  and  C_3 
REMARK    2  A    between atoms: C_9  and  C_10 
REMARK       I    between atoms: C_10  and  N_11 
REMARK    3  A    between atoms: N_11  and  C_12 
ROOT
HETATM    1  C   UNL     1      -3.562   8.088 -31.282  1.00  0.00     0.068 A 
HETATM    2  C   UNL     1      -2.788   7.104 -31.905  1.00  0.00     0.044 A 
HETATM    3  C   UNL     1      -3.086   5.745 -31.736  1.00  0.00    -0.043 A 
HETATM    4  C   UNL     1      -4.164   5.372 -30.901  1.00  0.00    -0.001 A 
HETATM    5  C   UNL     1      -4.427   3.948 -30.782  1.00  0.00     0.069 A 
HETATM    6  C   UNL     1      -3.849   2.981 -31.575  1.00  0.00     0.007 A 
HETATM    7  C   UNL     1      -4.404   1.751 -31.144  1.00  0.00     0.153 A 
HETATM    8  N   UNL     1      -5.258   1.948 -30.111  1.00  0.00    -0.168 NA
HETATM    9  N   UNL     1      -5.245   3.285 -29.921  1.00  0.00    -0.276 N 
HETATM   10  H   UNL     1      -5.820   3.672 -29.182  1.00  0.00     0.189 HD
HETATM   11  C   UNL     1      -2.897   3.334 -32.663  1.00  0.00     0.048 C 
HETATM   12  C   UNL     1      -2.194   4.682 -32.369  1.00  0.00     0.044 C 
HETATM   13  C   UNL     1      -4.931   6.354 -30.275  1.00  0.00     0.017 A 
HETATM   14  C   UNL     1      -4.631   7.709 -30.467  1.00  0.00     0.037 A 
ENDROOT
BRANCH   7  15
HETATM   15  C   UNL     1      -4.163   0.401 -31.694  1.00  0.00     0.277 C 
HETATM   16  N   UNL     1      -5.180   0.014 -32.546  1.00  0.00    -0.322 N 
HETATM   17  H   UNL     1      -5.912   0.718 -32.629  1.00  0.00     0.169 HD
HETATM   18  O   UNL     1      -3.167  -0.251 -31.405  1.00  0.00    -0.266 OA
BRANCH  16  19
HETATM   19  C   UNL     1      -5.301  -1.171 -33.289  1.00  0.00     0.036 A 
HETATM   20  C   UNL     1      -4.346  -2.192 -33.289  1.00  0.00     0.056 A 
HETATM   21  C   UNL     1      -4.543  -3.335 -34.069  1.00  0.00     0.074 A 
HETATM   22 CL   UNL     1      -3.354  -4.583 -34.061  1.00  0.00    -0.081 Cl
HETATM   23  C   UNL     1      -5.690  -3.461 -34.847  1.00  0.00     0.138 A 
HETATM   24  F   UNL     1      -5.894  -4.549 -35.604  1.00  0.00    -0.204 F 
HETATM   25  C   UNL     1      -6.648  -2.454 -34.856  1.00  0.00     0.046 A 
HETATM   26  C   UNL     1      -6.453  -1.310 -34.077  1.00  0.00     0.032 A 
ENDBRANCH  16  19
ENDBRANCH   7  15
BRANCH   1  27
HETATM   27  O   UNL     1      -3.167   9.371 -31.544  1.00  0.00    -0.356 OA
HETATM   28  C   UNL     1      -2.577  10.096 -30.472  1.00  0.00     0.210 C 
ENDBRANCH   1  27
TORSDOF 3
ENDMDL
MODEL 7
REMARK VINA RESULT:      -8.3      6.946      9.076
REMARK  3 active torsions:
REMARK  status: ('A' for Active; 'I' for Inactive)
REMARK    1  A    between atoms: O_2  and  C_3 
REMARK    2  A    between atoms: C_9  and  C_10 
REMARK       I    between atoms: C_10  and  N_11 
REMARK    3  A    between atoms: N_11  and  C_12 
ROOT
HETATM    1  C   UNL     1     -16.052   2.540 -32.348  1.00  0.00     0.068 A 
HETATM    2  C   UNL     1     -15.416   1.450 -32.949  1.00  0.00     0.044 A 
HETATM    3  C   UNL     1     -14.038   1.476 -33.204  1.00  0.00    -0.043 A 
HETATM    4  C   UNL     1     -13.296   2.633 -32.875  1.00  0.00    -0.001 A 
HETATM    5  C   UNL     1     -11.871   2.587 -33.152  1.00  0.00     0.069 A 
HETATM    6  C   UNL     1     -11.182   1.447 -33.503  1.00  0.00     0.007 A 
HETATM    7  C   UNL     1      -9.830   1.845 -33.647  1.00  0.00     0.153 A 
HETATM    8  N   UNL     1      -9.698   3.175 -33.428  1.00  0.00    -0.168 NA
HETATM    9  N   UNL     1     -10.950   3.588 -33.133  1.00  0.00    -0.276 N 
HETATM   10  H   UNL     1     -11.098   4.570 -32.931  1.00  0.00     0.189 HD
HETATM   11  C   UNL     1     -11.864   0.128 -33.608  1.00  0.00     0.048 C 
HETATM   12  C   UNL     1     -13.370   0.306 -33.919  1.00  0.00     0.044 C 
HETATM   13  C   UNL     1     -13.933   3.723 -32.281  1.00  0.00     0.017 A 
HETATM   14  C   UNL     1     -15.308   3.674 -32.018  1.00  0.00     0.037 A 
ENDROOT
BRANCH   7  15
HETATM   15  C   UNL     1      -8.661   1.000 -33.966  1.00  0.00     0.277 C 
HETATM   16  N   UNL     1      -7.843   0.832 -32.865  1.00  0.00    -0.322 N 
HETATM   17  H   UNL     1      -8.184   1.329 -32.043  1.00  0.00     0.169 HD
HETATM   18  O   UNL     1      -8.487   0.525 -35.082  1.00  0.00    -0.266 OA
BRANCH  16  19
HETATM   19  C   UNL     1      -6.667   0.075 -32.751  1.00  0.00     0.036 A 
HETATM   20  C   UNL     1      -6.290  -0.921 -33.656  1.00  0.00     0.056 A 
HETATM   21  C   UNL     1      -5.104  -1.635 -33.459  1.00  0.00     0.074 A 
HETATM   22 CL   UNL     1      -4.657  -2.863 -34.582  1.00  0.00    -0.081 Cl
HETATM   23  C   UNL     1      -4.295  -1.355 -32.362  1.00  0.00     0.138 A 
HETATM   24  F   UNL     1      -3.155  -2.031 -32.156  1.00  0.00    -0.204 F 
HETATM   25  C   UNL     1      -4.656  -0.366 -31.455  1.00  0.00     0.046 A 
HETATM   26  C   UNL     1      -5.841   0.348 -31.650  1.00  0.00     0.032 A 
ENDBRANCH  16  19
ENDBRANCH   7  15
BRANCH   1  27
HETATM   27  O   UNL     1     -17.395   2.373 -32.146  1.00  0.00    -0.356 OA
HETATM   28  C   UNL     1     -18.117   3.496 -31.656  1.00  0.00     0.210 C 
ENDBRANCH   1  27
TORSDOF 3
ENDMDL
MODEL 8
REMARK VINA RESULT:      -8.3      5.606      7.297
REMARK  3 active torsions:
REMARK  status: ('A' for Active; 'I' for Inactive)
REMARK    1  A    between atoms: O_2  and  C_3 
REMARK    2  A    between atoms: C_9  and  C_10 
REMARK       I    between atoms: C_10  and  N_11 
REMARK    3  A    between atoms: N_11  and  C_12 
ROOT
HETATM    1  C   UNL     1      -4.261  -3.034 -33.719  1.00  0.00     0.068 A 
HETATM    2  C   UNL     1      -5.405  -2.581 -34.382  1.00  0.00     0.044 A 
HETATM    3  C   UNL     1      -5.915  -1.299 -34.137  1.00  0.00    -0.043 A 
HETATM    4  C   UNL     1      -5.276  -0.471 -33.185  1.00  0.00    -0.001 A 
HETATM    5  C   UNL     1      -5.848   0.850 -32.991  1.00  0.00     0.069 A 
HETATM    6  C   UNL     1      -6.808   1.410 -33.804  1.00  0.00     0.007 A 
HETATM    7  C   UNL     1      -7.051   2.702 -33.277  1.00  0.00     0.153 A 
HETATM    8  N   UNL     1      -6.299   2.915 -32.170  1.00  0.00    -0.168 NA
HETATM    9  N   UNL     1      -5.588   1.776 -32.029  1.00  0.00    -0.276 N 
HETATM   10  H   UNL     1      -4.944   1.703 -31.249  1.00  0.00     0.189 HD
HETATM   11  C   UNL     1      -7.336   0.689 -34.995  1.00  0.00     0.048 C 
HETATM   12  C   UNL     1      -7.201  -0.843 -34.820  1.00  0.00     0.044 C 
HETATM   13  C   UNL     1      -4.139  -0.927 -32.519  1.00  0.00     0.017 A 
HETATM   14  C   UNL     1      -3.632  -2.205 -32.787  1.00  0.00     0.037 A 
ENDROOT
BRANCH   7  15
HETATM   15  C   UNL     1      -7.957   3.744 -33.801  1.00  0.00     0.277 C 
HETATM   16  N   UNL     1      -9.278   3.344 -33.737  1.00  0.00    -0.322 N 
HETATM   17  H   UNL     1      -9.386   2.405 -33.356  1.00  0.00     0.169 HD
HETATM   18  O   UNL     1      -7.541   4.817 -34.222  1.00  0.00    -0.266 OA
BRANCH  16  19
HETATM   19  C   UNL     1     -10.432   4.058 -34.098  1.00  0.00     0.036 A 
HETATM   20  C   UNL     1     -10.979   5.093 -33.335  1.00  0.00     0.056 A 
HETATM   21  C   UNL     1     -12.139   5.743 -33.766  1.00  0.00     0.074 A 
HETATM   22 CL   UNL     1     -12.804   7.014 -32.810  1.00  0.00    -0.081 Cl
HETATM   23  C   UNL     1     -12.752   5.363 -34.956  1.00  0.00     0.138 A 
HETATM   24  F   UNL     1     -13.866   5.975 -35.384  1.00  0.00    -0.204 F 
HETATM   25  C   UNL     1     -12.217   4.337 -35.727  1.00  0.00     0.046 A 
HETATM   26  C   UNL     1     -11.058   3.685 -35.297  1.00  0.00     0.032 A 
ENDBRANCH  16  19
ENDBRANCH   7  15
BRANCH   1  27
HETATM   27  O   UNL     1      -3.867  -4.298 -34.063  1.00  0.00    -0.356 OA
HETATM   28  C   UNL     1      -4.866  -5.163 -34.591  1.00  0.00     0.210 C 
ENDBRANCH   1  27
TORSDOF 3
ENDMDL
MODEL 9
REMARK VINA RESULT:      -8.2      2.320      2.843
REMARK  3 active torsions:
REMARK  status: ('A' for Active; 'I' for Inactive)
REMARK    1  A    between atoms: O_2  and  C_3 
REMARK    2  A    between atoms: C_9  and  C_10 
REMARK       I    between atoms: C_10  and  N_11 
REMARK    3  A    between atoms: N_11  and  C_12 
ROOT
HETATM    1  C   UNL     1      -6.185  -2.408 -34.434  1.00  0.00     0.068 A 
HETATM    2  C   UNL     1      -6.881  -1.201 -34.319  1.00  0.00     0.044 A 
HETATM    3  C   UNL     1      -6.292  -0.090 -33.700  1.00  0.00    -0.043 A 
HETATM    4  C   UNL     1      -4.990  -0.209 -33.163  1.00  0.00    -0.001 A 
HETATM    5  C   UNL     1      -4.434   0.985 -32.549  1.00  0.00     0.069 A 
HETATM    6  C   UNL     1      -4.989   2.242 -32.647  1.00  0.00     0.007 A 
HETATM    7  C   UNL     1      -4.117   3.102 -31.937  1.00  0.00     0.153 A 
HETATM    8  N   UNL     1      -3.090   2.402 -31.397  1.00  0.00    -0.168 NA
HETATM    9  N   UNL     1      -3.316   1.129 -31.787  1.00  0.00    -0.276 N 
HETATM   10  H   UNL     1      -2.664   0.412 -31.493  1.00  0.00     0.189 HD
HETATM   11  C   UNL     1      -6.230   2.485 -33.433  1.00  0.00     0.048 C 
HETATM   12  C   UNL     1      -7.088   1.200 -33.526  1.00  0.00     0.044 C 
HETATM   13  C   UNL     1      -4.299  -1.415 -33.271  1.00  0.00     0.017 A 
HETATM   14  C   UNL     1      -4.896  -2.512 -33.907  1.00  0.00     0.037 A 
ENDROOT
BRANCH   7  15
HETATM   15  C   UNL     1      -4.217   4.567 -31.771  1.00  0.00     0.277 C 
HETATM   16  N   UNL     1      -3.205   5.055 -30.966  1.00  0.00    -0.322 N 
HETATM   17  H   UNL     1      -2.587   4.321 -30.624  1.00  0.00     0.169 HD
HETATM   18  O   UNL     1      -5.102   5.224 -32.307  1.00  0.00    -0.266 OA
BRANCH  16  19
HETATM   19  C   UNL     1      -2.934   6.384 -30.602  1.00  0.00     0.036 A 
HETATM   20  C   UNL     1      -3.241   6.928 -29.352  1.00  0.00     0.056 A 
HETATM   21  C   UNL     1      -2.945   8.266 -29.079  1.00  0.00     0.074 A 
HETATM   22 CL   UNL     1      -3.335   8.923 -27.533  1.00  0.00    -0.081 Cl
HETATM   23  C   UNL     1      -2.343   9.061 -30.050  1.00  0.00     0.138 A 
HETATM   24  F   UNL     1      -2.054  10.348 -29.806  1.00  0.00    -0.204 F 
HETATM   25  C   UNL     1      -2.031   8.532 -31.297  1.00  0.00     0.046 A 
HETATM   26  C   UNL     1      -2.327   7.195 -31.572  1.00  0.00     0.032 A 
ENDBRANCH  16  19
ENDBRANCH   7  15
BRANCH   1  27
HETATM   27  O   UNL     1      -6.875  -3.403 -35.071  1.00  0.00    -0.356 OA
HETATM   28  C   UNL     1      -6.145  -4.574 -35.417  1.00  0.00     0.210 C 
ENDBRANCH   1  27
TORSDOF 3
ENDMDL
MODEL 10
REMARK VINA RESULT:      -8.0      6.818      8.647
REMARK  3 active torsions:
REMARK  status: ('A' for Active; 'I' for Inactive)
REMARK    1  A    between atoms: O_2  and  C_3 
REMARK    2  A    between atoms: C_9  and  C_10 
REMARK       I    between atoms: C_10  and  N_11 
REMARK    3  A    between atoms: N_11  and  C_12 
ROOT
HETATM    1  C   UNL     1      -4.340  -2.572 -33.409  1.00  0.00     0.068 A 
HETATM    2  C   UNL     1      -4.719  -1.684 -32.398  1.00  0.00     0.044 A 
HETATM    3  C   UNL     1      -5.825  -0.840 -32.564  1.00  0.00    -0.043 A 
HETATM    4  C   UNL     1      -6.542  -0.871 -33.781  1.00  0.00    -0.001 A 
HETATM    5  C   UNL     1      -7.686   0.020 -33.880  1.00  0.00     0.069 A 
HETATM    6  C   UNL     1      -8.229   0.711 -32.819  1.00  0.00     0.007 A 
HETATM    7  C   UNL     1      -9.333   1.422 -33.350  1.00  0.00     0.153 A 
HETATM    8  N   UNL     1      -9.444   1.205 -34.683  1.00  0.00    -0.168 NA
HETATM    9  N   UNL     1      -8.433   0.356 -34.966  1.00  0.00    -0.276 N 
HETATM   10  H   UNL     1      -8.316   0.050 -35.925  1.00  0.00     0.189 HD
HETATM   11  C   UNL     1      -7.680   0.578 -31.442  1.00  0.00     0.048 C 
HETATM   12  C   UNL     1      -6.188   0.168 -31.477  1.00  0.00     0.044 C 
HETATM   13  C   UNL     1      -6.159  -1.751 -34.793  1.00  0.00     0.017 A 
HETATM   14  C   UNL     1      -5.061  -2.601 -34.605  1.00  0.00     0.037 A 
ENDROOT
BRANCH   7  15
HETATM   15  C   UNL     1     -10.293   2.282 -32.630  1.00  0.00     0.277 C 
HETATM   16  N   UNL     1     -11.504   2.352 -33.293  1.00  0.00    -0.322 N 
HETATM   17  H   UNL     1     -11.511   1.814 -34.158  1.00  0.00     0.169 HD
HETATM   18  O   UNL     1     -10.007   2.837 -31.576  1.00  0.00    -0.266 OA
BRANCH  16  19
HETATM   19  C   UNL     1     -12.675   3.030 -32.916  1.00  0.00     0.036 A 
HETATM   20  C   UNL     1     -13.894   2.396 -32.657  1.00  0.00     0.056 A 
HETATM   21  C   UNL     1     -15.014   3.151 -32.298  1.00  0.00     0.074 A 
HETATM   22 CL   UNL     1     -16.510   2.354 -31.987  1.00  0.00    -0.081 Cl
HETATM   23  C   UNL     1     -14.918   4.536 -32.195  1.00  0.00     0.138 A 
HETATM   24  F   UNL     1     -15.983   5.276 -31.853  1.00  0.00    -0.204 F 
HETATM   25  C   UNL     1     -13.713   5.179 -32.447  1.00  0.00     0.046 A 
HETATM   26  C   UNL     1     -12.592   4.426 -32.808  1.00  0.00     0.032 A 
ENDBRANCH  16  19
ENDBRANCH   7  15
BRANCH   1  27
HETATM   27  O   UNL     1      -3.252  -3.345 -33.109  1.00  0.00    -0.356 OA
HETATM   28  C   UNL     1      -2.988  -3.578 -31.731  1.00  0.00     0.210 C 
ENDBRANCH   1  27
TORSDOF 3
ENDMDL
