MODEL 1
REMARK VINA RESULT:      -9.6      0.000      0.000
REMARK  6 active torsions:
REMARK  status: ('A' for Active; 'I' for Inactive)
REMARK    1  A    between atoms: C_4  and  O_5 
REMARK    2  A    between atoms: O_5  and  C_6 
REMARK    3  A    between atoms: C_6  and  C_7 
REMARK       I    between atoms: C_7  and  N_8 
REMARK    4  A    between atoms: N_8  and  C_9 
REMARK    5  A    between atoms: C_16  and  C_17 
REMARK       I    between atoms: C_17  and  N_18 
REMARK    6  A    between atoms: C_23  and  C_24 
ROOT
HETATM    1  C   UNL     1      -3.824   1.137 -31.762  1.00  0.00     0.246 C 
HETATM    2  N   UNL     1      -4.213   2.328 -32.353  1.00  0.00    -0.325 N 
HETATM    3  O   UNL     1      -2.810   0.948 -31.098  1.00  0.00    -0.271 OA
HETATM    4  H   UNL     1      -5.150   2.333 -32.744  1.00  0.00     0.169 HD
ENDROOT
BRANCH   2   5
HETATM    5  C   UNL     1      -3.462   3.520 -32.452  1.00  0.00     0.035 A 
HETATM    6  C   UNL     1      -2.381   3.823 -31.611  1.00  0.00     0.046 A 
HETATM    7  C   UNL     1      -1.647   5.013 -31.810  1.00  0.00     0.030 A 
HETATM    8  C   UNL     1      -2.021   5.865 -32.842  1.00  0.00     0.063 A 
HETATM    9  C   UNL     1      -0.520   5.641 -31.199  1.00  0.00     0.156 A 
HETATM   10  N   UNL     1      -1.138   6.907 -32.787  1.00  0.00    -0.277 N 
HETATM   11  C   UNL     1      -3.094   5.599 -33.696  1.00  0.00     0.034 A 
HETATM   12  H   UNL     1      -1.108   7.719 -33.394  1.00  0.00     0.189 HD
HETATM   13  N   UNL     1      -0.220   6.810 -31.811  1.00  0.00    -0.168 NA
HETATM   14  C   UNL     1      -3.803   4.409 -33.479  1.00  0.00     0.032 A 
BRANCH   9  15
HETATM   15  C   UNL     1       0.269   5.150 -30.059  1.00  0.00     0.270 C 
HETATM   16  N   UNL     1      -0.149   5.626 -28.845  1.00  0.00    -0.365 N 
HETATM   17  H   UNL     1      -0.939   6.259 -28.816  1.00  0.00     0.159 HD
HETATM   18  H   UNL     1       0.335   5.344 -28.007  1.00  0.00     0.159 HD
HETATM   19  O   UNL     1       1.224   4.387 -30.144  1.00  0.00    -0.266 OA
ENDBRANCH   9  15
ENDBRANCH   2   5
BRANCH   1  20
HETATM   20  C   UNL     1      -4.745  -0.030 -32.112  1.00  0.00     0.278 C 
BRANCH  20  21
HETATM   21  O   UNL     1      -4.959  -0.151 -33.519  1.00  0.00    -0.342 OA
BRANCH  21  22
HETATM   22  C   UNL     1      -5.215  -1.449 -33.898  1.00  0.00     0.076 A 
HETATM   23  C   UNL     1      -4.232  -2.443 -33.771  1.00  0.00     0.044 A 
HETATM   24  C   UNL     1      -4.492  -3.767 -34.137  1.00  0.00    -0.059 A 
HETATM   25  C   UNL     1      -3.450  -4.834 -33.972  1.00  0.00     0.048 C 
HETATM   26  C   UNL     1      -5.740  -4.085 -34.673  1.00  0.00     0.007 A 
HETATM   27  C   UNL     1      -6.709  -3.094 -34.838  1.00  0.00     0.011 A 
HETATM   28  C   UNL     1      -6.466  -1.758 -34.460  1.00  0.00    -0.021 A 
BRANCH  28  29
HETATM   29  C   UNL     1      -7.589  -0.750 -34.657  1.00  0.00     0.013 C 
HETATM   30  C   UNL     1      -8.255  -0.364 -33.335  1.00  0.00     0.015 C 
HETATM   31  C   UNL     1      -7.150   0.484 -35.448  1.00  0.00     0.015 C 
ENDBRANCH  28  29
ENDBRANCH  21  22
ENDBRANCH  20  21
ENDBRANCH   1  20
TORSDOF 6
ENDMDL
MODEL 2
REMARK VINA RESULT:      -9.4      5.171      8.893
REMARK  6 active torsions:
REMARK  status: ('A' for Active; 'I' for Inactive)
REMARK    1  A    between atoms: C_4  and  O_5 
REMARK    2  A    between atoms: O_5  and  C_6 
REMARK    3  A    between atoms: C_6  and  C_7 
REMARK       I    between atoms: C_7  and  N_8 
REMARK    4  A    between atoms: N_8  and  C_9 
REMARK    5  A    between atoms: C_16  and  C_17 
REMARK       I    between atoms: C_17  and  N_18 
REMARK    6  A    between atoms: C_23  and  C_24 
ROOT
HETATM    1  C   UNL     1      -8.022   0.399 -34.110  1.00  0.00     0.246 C 
HETATM    2  N   UNL     1      -8.794   1.415 -34.649  1.00  0.00    -0.325 N 
HETATM    3  O   UNL     1      -8.299  -0.289 -33.132  1.00  0.00    -0.271 OA
HETATM    4  H   UNL     1      -8.471   1.779 -35.540  1.00  0.00     0.169 HD
ENDROOT
BRANCH   2   5
HETATM    5  C   UNL     1      -9.971   1.975 -34.108  1.00  0.00     0.035 A 
HETATM    6  C   UNL     1     -11.228   1.358 -34.190  1.00  0.00     0.046 A 
HETATM    7  C   UNL     1     -12.348   1.958 -33.575  1.00  0.00     0.030 A 
HETATM    8  C   UNL     1     -12.177   3.160 -32.900  1.00  0.00     0.063 A 
HETATM    9  C   UNL     1     -13.734   1.645 -33.431  1.00  0.00     0.156 A 
HETATM   10  N   UNL     1     -13.414   3.482 -32.417  1.00  0.00    -0.277 N 
HETATM   11  C   UNL     1     -10.942   3.807 -32.800  1.00  0.00     0.034 A 
HETATM   12  H   UNL     1     -13.667   4.298 -31.869  1.00  0.00     0.189 HD
HETATM   13  N   UNL     1     -14.379   2.596 -32.716  1.00  0.00    -0.168 NA
HETATM   14  C   UNL     1      -9.846   3.187 -33.416  1.00  0.00     0.032 A 
BRANCH   9  15
HETATM   15  C   UNL     1     -14.444   0.467 -33.951  1.00  0.00     0.270 C 
HETATM   16  N   UNL     1     -13.976  -0.726 -33.469  1.00  0.00    -0.365 N 
HETATM   17  H   UNL     1     -13.202  -0.716 -32.815  1.00  0.00     0.159 HD
HETATM   18  H   UNL     1     -14.402  -1.587 -33.772  1.00  0.00     0.159 HD
HETATM   19  O   UNL     1     -15.374   0.505 -34.748  1.00  0.00    -0.266 OA
ENDBRANCH   9  15
ENDBRANCH   2   5
BRANCH   1  20
HETATM   20  C   UNL     1      -6.660   0.262 -34.788  1.00  0.00     0.278 C 
BRANCH  20  21
HETATM   21  O   UNL     1      -6.237  -1.099 -34.888  1.00  0.00    -0.342 OA
BRANCH  21  22
HETATM   22  C   UNL     1      -5.262  -1.411 -33.968  1.00  0.00     0.076 A 
HETATM   23  C   UNL     1      -4.702  -0.418 -33.149  1.00  0.00     0.044 A 
HETATM   24  C   UNL     1      -3.725  -0.732 -32.198  1.00  0.00    -0.059 A 
HETATM   25  C   UNL     1      -3.149   0.325 -31.303  1.00  0.00     0.048 C 
HETATM   26  C   UNL     1      -3.280  -2.050 -32.101  1.00  0.00     0.007 A 
HETATM   27  C   UNL     1      -3.806  -3.035 -32.939  1.00  0.00     0.011 A 
HETATM   28  C   UNL     1      -4.800  -2.736 -33.891  1.00  0.00    -0.021 A 
BRANCH  28  29
HETATM   29  C   UNL     1      -5.329  -3.878 -34.747  1.00  0.00     0.013 C 
HETATM   30  C   UNL     1      -4.645  -5.207 -34.421  1.00  0.00     0.015 C 
HETATM   31  C   UNL     1      -6.853  -4.002 -34.699  1.00  0.00     0.015 C 
ENDBRANCH  28  29
ENDBRANCH  21  22
ENDBRANCH  20  21
ENDBRANCH   1  20
TORSDOF 6
ENDMDL
MODEL 3
REMARK VINA RESULT:      -9.3      1.511      3.258
REMARK  6 active torsions:
REMARK  status: ('A' for Active; 'I' for Inactive)
REMARK    1  A    between atoms: C_4  and  O_5 
REMARK    2  A    between atoms: O_5  and  C_6 
REMARK    3  A    between atoms: C_6  and  C_7 
REMARK       I    between atoms: C_7  and  N_8 
REMARK    4  A    between atoms: N_8  and  C_9 
REMARK    5  A    between atoms: C_16  and  C_17 
REMARK       I    between atoms: C_17  and  N_18 
REMARK    6  A    between atoms: C_23  and  C_24 
ROOT
HETATM    1  C   UNL     1      -5.081   1.685 -31.098  1.00  0.00     0.246 C 
HETATM    2  N   UNL     1      -5.533   2.838 -31.719  1.00  0.00    -0.325 N 
HETATM    3  O   UNL     1      -3.917   1.306 -31.020  1.00  0.00    -0.271 OA
HETATM    4  H   UNL     1      -6.511   3.060 -31.563  1.00  0.00     0.169 HD
ENDROOT
BRANCH   2   5
HETATM    5  C   UNL     1      -4.784   3.730 -32.516  1.00  0.00     0.035 A 
HETATM    6  C   UNL     1      -3.533   4.241 -32.137  1.00  0.00     0.046 A 
HETATM    7  C   UNL     1      -2.823   5.087 -33.017  1.00  0.00     0.030 A 
HETATM    8  C   UNL     1      -3.388   5.400 -34.246  1.00  0.00     0.063 A 
HETATM    9  C   UNL     1      -1.568   5.767 -33.000  1.00  0.00     0.156 A 
HETATM   10  N   UNL     1      -2.482   6.215 -34.864  1.00  0.00    -0.277 N 
HETATM   11  C   UNL     1      -4.633   4.916 -34.657  1.00  0.00     0.034 A 
HETATM   12  H   UNL     1      -2.560   6.637 -35.782  1.00  0.00     0.189 HD
HETATM   13  N   UNL     1      -1.373   6.462 -34.146  1.00  0.00    -0.168 NA
HETATM   14  C   UNL     1      -5.315   4.074 -33.766  1.00  0.00     0.032 A 
BRANCH   9  15
HETATM   15  C   UNL     1      -0.562   5.764 -31.928  1.00  0.00     0.270 C 
HETATM   16  N   UNL     1      -0.248   7.009 -31.453  1.00  0.00    -0.365 N 
HETATM   17  H   UNL     1      -0.710   7.815 -31.858  1.00  0.00     0.159 HD
HETATM   18  H   UNL     1       0.434   7.104 -30.717  1.00  0.00     0.159 HD
HETATM   19  O   UNL     1      -0.024   4.761 -31.473  1.00  0.00    -0.266 OA
ENDBRANCH   9  15
ENDBRANCH   2   5
BRANCH   1  20
HETATM   20  C   UNL     1      -6.217   0.800 -30.587  1.00  0.00     0.278 C 
BRANCH  20  21
HETATM   21  O   UNL     1      -6.282  -0.451 -31.272  1.00  0.00    -0.342 OA
BRANCH  21  22
HETATM   22  C   UNL     1      -6.814  -0.327 -32.536  1.00  0.00     0.076 A 
HETATM   23  C   UNL     1      -8.016   0.368 -32.745  1.00  0.00     0.044 A 
HETATM   24  C   UNL     1      -8.551   0.514 -34.029  1.00  0.00    -0.059 A 
HETATM   25  C   UNL     1      -9.819   1.282 -34.255  1.00  0.00     0.048 C 
HETATM   26  C   UNL     1      -7.891  -0.079 -35.105  1.00  0.00     0.007 A 
HETATM   27  C   UNL     1      -6.715  -0.804 -34.898  1.00  0.00     0.011 A 
HETATM   28  C   UNL     1      -6.157  -0.947 -33.612  1.00  0.00    -0.021 A 
BRANCH  28  29
HETATM   29  C   UNL     1      -4.862  -1.737 -33.485  1.00  0.00     0.013 C 
HETATM   30  C   UNL     1      -4.751  -2.835 -34.544  1.00  0.00     0.015 C 
HETATM   31  C   UNL     1      -3.620  -0.844 -33.466  1.00  0.00     0.015 C 
ENDBRANCH  28  29
ENDBRANCH  21  22
ENDBRANCH  20  21
ENDBRANCH   1  20
TORSDOF 6
ENDMDL
MODEL 4
REMARK VINA RESULT:      -9.3      1.618      2.266
REMARK  6 active torsions:
REMARK  status: ('A' for Active; 'I' for Inactive)
REMARK    1  A    between atoms: C_4  and  O_5 
REMARK    2  A    between atoms: O_5  and  C_6 
REMARK    3  A    between atoms: C_6  and  C_7 
REMARK       I    between atoms: C_7  and  N_8 
REMARK    4  A    between atoms: N_8  and  C_9 
REMARK    5  A    between atoms: C_16  and  C_17 
REMARK       I    between atoms: C_17  and  N_18 
REMARK    6  A    between atoms: C_23  and  C_24 
ROOT
HETATM    1  C   UNL     1      -5.537   2.224 -31.176  1.00  0.00     0.246 C 
HETATM    2  N   UNL     1      -4.635   2.313 -32.224  1.00  0.00    -0.325 N 
HETATM    3  O   UNL     1      -6.100   3.159 -30.615  1.00  0.00    -0.271 OA
HETATM    4  H   UNL     1      -4.380   1.429 -32.653  1.00  0.00     0.169 HD
ENDROOT
BRANCH   2   5
HETATM    5  C   UNL     1      -4.057   3.485 -32.758  1.00  0.00     0.035 A 
HETATM    6  C   UNL     1      -2.851   4.032 -32.294  1.00  0.00     0.046 A 
HETATM    7  C   UNL     1      -2.312   5.178 -32.919  1.00  0.00     0.030 A 
HETATM    8  C   UNL     1      -2.999   5.744 -33.986  1.00  0.00     0.063 A 
HETATM    9  C   UNL     1      -1.149   5.988 -32.754  1.00  0.00     0.156 A 
HETATM   10  N   UNL     1      -2.243   6.813 -34.376  1.00  0.00    -0.277 N 
HETATM   11  C   UNL     1      -4.204   5.231 -34.472  1.00  0.00     0.034 A 
HETATM   12  H   UNL     1      -2.437   7.461 -35.131  1.00  0.00     0.189 HD
HETATM   13  N   UNL     1      -1.121   6.995 -33.658  1.00  0.00    -0.168 NA
HETATM   14  C   UNL     1      -4.715   4.090 -33.837  1.00  0.00     0.032 A 
BRANCH   9  15
HETATM   15  C   UNL     1      -0.074   5.820 -31.765  1.00  0.00     0.270 C 
HETATM   16  N   UNL     1       0.466   6.997 -31.321  1.00  0.00    -0.365 N 
HETATM   17  H   UNL     1       0.104   7.868 -31.691  1.00  0.00     0.159 HD
HETATM   18  H   UNL     1       1.211   6.979 -30.642  1.00  0.00     0.159 HD
HETATM   19  O   UNL     1       0.336   4.742 -31.351  1.00  0.00    -0.266 OA
ENDBRANCH   9  15
ENDBRANCH   2   5
BRANCH   1  20
HETATM   20  C   UNL     1      -5.708   0.798 -30.657  1.00  0.00     0.278 C 
BRANCH  20  21
HETATM   21  O   UNL     1      -6.913   0.190 -31.122  1.00  0.00    -0.342 OA
BRANCH  21  22
HETATM   22  C   UNL     1      -6.771  -0.356 -32.378  1.00  0.00     0.076 A 
HETATM   23  C   UNL     1      -5.678  -1.181 -32.684  1.00  0.00     0.044 A 
HETATM   24  C   UNL     1      -5.538  -1.754 -33.952  1.00  0.00    -0.059 A 
HETATM   25  C   UNL     1      -4.386  -2.660 -34.269  1.00  0.00     0.048 C 
HETATM   26  C   UNL     1      -6.487  -1.460 -34.931  1.00  0.00     0.007 A 
HETATM   27  C   UNL     1      -7.557  -0.610 -34.644  1.00  0.00     0.011 A 
HETATM   28  C   UNL     1      -7.717  -0.037 -33.367  1.00  0.00    -0.021 A 
BRANCH  28  29
HETATM   29  C   UNL     1      -8.924   0.861 -33.140  1.00  0.00     0.013 C 
HETATM   30  C   UNL     1      -9.106   1.879 -34.267  1.00  0.00     0.015 C 
HETATM   31  C   UNL     1     -10.210   0.076 -32.877  1.00  0.00     0.015 C 
ENDBRANCH  28  29
ENDBRANCH  21  22
ENDBRANCH  20  21
ENDBRANCH   1  20
TORSDOF 6
ENDMDL
MODEL 5
REMARK VINA RESULT:      -9.0      5.077      8.854
REMARK  6 active torsions:
REMARK  status: ('A' for Active; 'I' for Inactive)
REMARK    1  A    between atoms: C_4  and  O_5 
REMARK    2  A    between atoms: O_5  and  C_6 
REMARK    3  A    between atoms: C_6  and  C_7 
REMARK       I    between atoms: C_7  and  N_8 
REMARK    4  A    between atoms: N_8  and  C_9 
REMARK    5  A    between atoms: C_16  and  C_17 
REMARK       I    between atoms: C_17  and  N_18 
REMARK    6  A    between atoms: C_23  and  C_24 
ROOT
HETATM    1  C   UNL     1      -8.120   0.324 -34.122  1.00  0.00     0.246 C 
HETATM    2  N   UNL     1      -8.893   1.317 -34.700  1.00  0.00    -0.325 N 
HETATM    3  O   UNL     1      -8.384  -0.308 -33.104  1.00  0.00    -0.271 OA
HETATM    4  H   UNL     1      -8.584   1.630 -35.615  1.00  0.00     0.169 HD
ENDROOT
BRANCH   2   5
HETATM    5  C   UNL     1     -10.054   1.917 -34.167  1.00  0.00     0.035 A 
HETATM    6  C   UNL     1     -11.326   1.327 -34.229  1.00  0.00     0.046 A 
HETATM    7  C   UNL     1     -12.429   1.968 -33.623  1.00  0.00     0.030 A 
HETATM    8  C   UNL     1     -12.226   3.181 -32.978  1.00  0.00     0.063 A 
HETATM    9  C   UNL     1     -13.820   1.690 -33.465  1.00  0.00     0.156 A 
HETATM   10  N   UNL     1     -13.453   3.544 -32.498  1.00  0.00    -0.277 N 
HETATM   11  C   UNL     1     -10.977   3.802 -32.900  1.00  0.00     0.034 A 
HETATM   12  H   UNL     1     -13.685   4.378 -31.969  1.00  0.00     0.189 HD
HETATM   13  N   UNL     1     -14.440   2.673 -32.771  1.00  0.00    -0.168 NA
HETATM   14  C   UNL     1      -9.898   3.142 -33.506  1.00  0.00     0.032 A 
BRANCH   9  15
HETATM   15  C   UNL     1     -14.560   0.517 -33.954  1.00  0.00     0.270 C 
HETATM   16  N   UNL     1     -14.121  -0.674 -33.439  1.00  0.00    -0.365 N 
HETATM   17  H   UNL     1     -13.347  -0.666 -32.786  1.00  0.00     0.159 HD
HETATM   18  H   UNL     1     -14.569  -1.533 -33.719  1.00  0.00     0.159 HD
HETATM   19  O   UNL     1     -15.489   0.555 -34.752  1.00  0.00    -0.266 OA
ENDBRANCH   9  15
ENDBRANCH   2   5
BRANCH   1  20
HETATM   20  C   UNL     1      -6.772   0.137 -34.817  1.00  0.00     0.278 C 
BRANCH  20  21
HETATM   21  O   UNL     1      -5.720  -0.153 -33.896  1.00  0.00    -0.342 OA
BRANCH  21  22
HETATM   22  C   UNL     1      -5.321  -1.469 -33.957  1.00  0.00     0.076 A 
HETATM   23  C   UNL     1      -6.023  -2.398 -34.741  1.00  0.00     0.044 A 
HETATM   24  C   UNL     1      -5.611  -3.732 -34.821  1.00  0.00    -0.059 A 
HETATM   25  C   UNL     1      -6.343  -4.716 -35.684  1.00  0.00     0.048 C 
HETATM   26  C   UNL     1      -4.507  -4.142 -34.074  1.00  0.00     0.007 A 
HETATM   27  C   UNL     1      -3.828  -3.231 -33.262  1.00  0.00     0.011 A 
HETATM   28  C   UNL     1      -4.223  -1.881 -33.182  1.00  0.00    -0.021 A 
BRANCH  28  29
HETATM   29  C   UNL     1      -3.411  -0.956 -32.287  1.00  0.00     0.013 C 
HETATM   30  C   UNL     1      -2.774   0.192 -33.072  1.00  0.00     0.015 C 
HETATM   31  C   UNL     1      -4.204  -0.444 -31.083  1.00  0.00     0.015 C 
ENDBRANCH  28  29
ENDBRANCH  21  22
ENDBRANCH  20  21
ENDBRANCH   1  20
TORSDOF 6
ENDMDL
MODEL 6
REMARK VINA RESULT:      -9.0      5.945      9.551
REMARK  6 active torsions:
REMARK  status: ('A' for Active; 'I' for Inactive)
REMARK    1  A    between atoms: C_4  and  O_5 
REMARK    2  A    between atoms: O_5  and  C_6 
REMARK    3  A    between atoms: C_6  and  C_7 
REMARK       I    between atoms: C_7  and  N_8 
REMARK    4  A    between atoms: N_8  and  C_9 
REMARK    5  A    between atoms: C_16  and  C_17 
REMARK       I    between atoms: C_17  and  N_18 
REMARK    6  A    between atoms: C_23  and  C_24 
ROOT
HETATM    1  C   UNL     1      -9.937   0.330 -33.336  1.00  0.00     0.246 C 
HETATM    2  N   UNL     1     -10.835   1.132 -34.021  1.00  0.00    -0.325 N 
HETATM    3  O   UNL     1     -10.200  -0.441 -32.418  1.00  0.00    -0.271 OA
HETATM    4  H   UNL     1     -10.461   1.599 -34.842  1.00  0.00     0.169 HD
ENDROOT
BRANCH   2   5
HETATM    5  C   UNL     1     -12.196   1.349 -33.714  1.00  0.00     0.035 A 
HETATM    6  C   UNL     1     -12.646   2.406 -32.909  1.00  0.00     0.046 A 
HETATM    7  C   UNL     1     -14.030   2.586 -32.693  1.00  0.00     0.030 A 
HETATM    8  C   UNL     1     -14.920   1.701 -33.287  1.00  0.00     0.063 A 
HETATM    9  C   UNL     1     -14.848   3.512 -31.978  1.00  0.00     0.156 A 
HETATM   10  N   UNL     1     -16.162   2.127 -32.906  1.00  0.00    -0.277 N 
HETATM   11  C   UNL     1     -14.510   0.634 -34.091  1.00  0.00     0.034 A 
HETATM   12  H   UNL     1     -17.055   1.718 -33.156  1.00  0.00     0.189 HD
HETATM   13  N   UNL     1     -16.161   3.215 -32.117  1.00  0.00    -0.168 NA
HETATM   14  C   UNL     1     -13.131   0.481 -34.292  1.00  0.00     0.032 A 
BRANCH   9  15
HETATM   15  C   UNL     1     -14.406   4.665 -31.179  1.00  0.00     0.270 C 
HETATM   16  N   UNL     1     -14.886   5.868 -31.622  1.00  0.00    -0.365 N 
HETATM   17  H   UNL     1     -15.486   5.882 -32.438  1.00  0.00     0.159 HD
HETATM   18  H   UNL     1     -14.634   6.714 -31.136  1.00  0.00     0.159 HD
HETATM   19  O   UNL     1     -13.672   4.600 -30.200  1.00  0.00    -0.266 OA
ENDBRANCH   9  15
ENDBRANCH   2   5
BRANCH   1  20
HETATM   20  C   UNL     1      -8.487   0.572 -33.748  1.00  0.00     0.278 C 
BRANCH  20  21
HETATM   21  O   UNL     1      -7.560   0.181 -32.734  1.00  0.00    -0.342 OA
BRANCH  21  22
HETATM   22  C   UNL     1      -6.667  -0.766 -33.181  1.00  0.00     0.076 A 
HETATM   23  C   UNL     1      -7.089  -1.821 -34.005  1.00  0.00     0.044 A 
HETATM   24  C   UNL     1      -6.183  -2.776 -34.477  1.00  0.00    -0.059 A 
HETATM   25  C   UNL     1      -6.630  -3.885 -35.382  1.00  0.00     0.048 C 
HETATM   26  C   UNL     1      -4.848  -2.689 -34.083  1.00  0.00     0.007 A 
HETATM   27  C   UNL     1      -4.428  -1.664 -33.233  1.00  0.00     0.011 A 
HETATM   28  C   UNL     1      -5.328  -0.687 -32.760  1.00  0.00    -0.021 A 
BRANCH  28  29
HETATM   29  C   UNL     1      -4.777   0.405 -31.855  1.00  0.00     0.013 C 
HETATM   30  C   UNL     1      -3.528  -0.050 -31.098  1.00  0.00     0.015 C 
HETATM   31  C   UNL     1      -4.542   1.726 -32.589  1.00  0.00     0.015 C 
ENDBRANCH  28  29
ENDBRANCH  21  22
ENDBRANCH  20  21
ENDBRANCH   1  20
TORSDOF 6
ENDMDL
MODEL 7
REMARK VINA RESULT:      -8.8      5.304      8.884
REMARK  6 active torsions:
REMARK  status: ('A' for Active; 'I' for Inactive)
REMARK    1  A    between atoms: C_4  and  O_5 
REMARK    2  A    between atoms: O_5  and  C_6 
REMARK    3  A    between atoms: C_6  and  C_7 
REMARK       I    between atoms: C_7  and  N_8 
REMARK    4  A    between atoms: N_8  and  C_9 
REMARK    5  A    between atoms: C_16  and  C_17 
REMARK       I    between atoms: C_17  and  N_18 
REMARK    6  A    between atoms: C_23  and  C_24 
ROOT
HETATM    1  C   UNL     1      -8.897   1.001 -34.120  1.00  0.00     0.246 C 
HETATM    2  N   UNL     1      -9.828   1.907 -34.600  1.00  0.00    -0.325 N 
HETATM    3  O   UNL     1      -9.112   0.072 -33.348  1.00  0.00    -0.271 OA
HETATM    4  H   UNL     1      -9.496   2.520 -35.338  1.00  0.00     0.169 HD
ENDROOT
BRANCH   2   5
HETATM    5  C   UNL     1     -11.171   2.053 -34.190  1.00  0.00     0.035 A 
HETATM    6  C   UNL     1     -11.553   2.734 -33.024  1.00  0.00     0.046 A 
HETATM    7  C   UNL     1     -12.922   2.882 -32.713  1.00  0.00     0.030 A 
HETATM    8  C   UNL     1     -13.867   2.339 -33.574  1.00  0.00     0.063 A 
HETATM    9  C   UNL     1     -13.678   3.496 -31.669  1.00  0.00     0.156 A 
HETATM   10  N   UNL     1     -15.078   2.643 -33.019  1.00  0.00    -0.277 N 
HETATM   11  C   UNL     1     -13.525   1.650 -34.741  1.00  0.00     0.034 A 
HETATM   12  H   UNL     1     -15.996   2.406 -33.379  1.00  0.00     0.189 HD
HETATM   13  N   UNL     1     -15.008   3.338 -31.871  1.00  0.00    -0.168 NA
HETATM   14  C   UNL     1     -12.159   1.522 -35.029  1.00  0.00     0.032 A 
BRANCH   9  15
HETATM   15  C   UNL     1     -13.165   4.226 -30.501  1.00  0.00     0.270 C 
HETATM   16  N   UNL     1     -12.037   3.677 -29.951  1.00  0.00    -0.365 N 
HETATM   17  H   UNL     1     -11.651   2.838 -30.369  1.00  0.00     0.159 HD
HETATM   18  H   UNL     1     -11.615   4.110 -29.145  1.00  0.00     0.159 HD
HETATM   19  O   UNL     1     -13.671   5.236 -30.027  1.00  0.00    -0.266 OA
ENDBRANCH   9  15
ENDBRANCH   2   5
BRANCH   1  20
HETATM   20  C   UNL     1      -7.469   1.328 -34.554  1.00  0.00     0.278 C 
BRANCH  20  21
HETATM   21  O   UNL     1      -6.698   0.154 -34.815  1.00  0.00    -0.342 OA
BRANCH  21  22
HETATM   22  C   UNL     1      -5.714  -0.044 -33.873  1.00  0.00     0.076 A 
HETATM   23  C   UNL     1      -5.299   1.004 -33.035  1.00  0.00     0.044 A 
HETATM   24  C   UNL     1      -4.313   0.804 -32.064  1.00  0.00    -0.059 A 
HETATM   25  C   UNL     1      -3.892   1.916 -31.149  1.00  0.00     0.048 C 
HETATM   26  C   UNL     1      -3.712  -0.451 -31.963  1.00  0.00     0.007 A 
HETATM   27  C   UNL     1      -4.093  -1.486 -32.819  1.00  0.00     0.011 A 
HETATM   28  C   UNL     1      -5.095  -1.303 -33.793  1.00  0.00    -0.021 A 
BRANCH  28  29
HETATM   29  C   UNL     1      -5.459  -2.494 -34.667  1.00  0.00     0.013 C 
HETATM   30  C   UNL     1      -4.483  -3.658 -34.492  1.00  0.00     0.015 C 
HETATM   31  C   UNL     1      -6.910  -2.942 -34.488  1.00  0.00     0.015 C 
ENDBRANCH  28  29
ENDBRANCH  21  22
ENDBRANCH  20  21
ENDBRANCH   1  20
TORSDOF 6
ENDMDL
MODEL 8
REMARK VINA RESULT:      -8.7      3.685      8.270
REMARK  6 active torsions:
REMARK  status: ('A' for Active; 'I' for Inactive)
REMARK    1  A    between atoms: C_4  and  O_5 
REMARK    2  A    between atoms: O_5  and  C_6 
REMARK    3  A    between atoms: C_6  and  C_7 
REMARK       I    between atoms: C_7  and  N_8 
REMARK    4  A    between atoms: N_8  and  C_9 
REMARK    5  A    between atoms: C_16  and  C_17 
REMARK       I    between atoms: C_17  and  N_18 
REMARK    6  A    between atoms: C_23  and  C_24 
ROOT
HETATM    1  C   UNL     1      -4.929   6.622 -31.445  1.00  0.00     0.246 C 
HETATM    2  N   UNL     1      -4.957   5.716 -30.397  1.00  0.00    -0.325 N 
HETATM    3  O   UNL     1      -5.477   6.493 -32.536  1.00  0.00    -0.271 OA
HETATM    4  H   UNL     1      -4.565   6.052 -29.523  1.00  0.00     0.169 HD
ENDROOT
BRANCH   2   5
HETATM    5  C   UNL     1      -5.480   4.405 -30.412  1.00  0.00     0.035 A 
HETATM    6  C   UNL     1      -4.737   3.282 -30.803  1.00  0.00     0.046 A 
HETATM    7  C   UNL     1      -5.317   1.996 -30.739  1.00  0.00     0.030 A 
HETATM    8  C   UNL     1      -6.626   1.876 -30.289  1.00  0.00     0.063 A 
HETATM    9  C   UNL     1      -4.897   0.662 -31.024  1.00  0.00     0.156 A 
HETATM   10  N   UNL     1      -6.901   0.537 -30.333  1.00  0.00    -0.277 N 
HETATM   11  C   UNL     1      -7.399   2.971 -29.896  1.00  0.00     0.034 A 
HETATM   12  H   UNL     1      -7.767   0.079 -30.073  1.00  0.00     0.189 HD
HETATM   13  N   UNL     1      -5.886  -0.227 -30.771  1.00  0.00    -0.168 NA
HETATM   14  C   UNL     1      -6.797   4.235 -29.966  1.00  0.00     0.032 A 
BRANCH   9  15
HETATM   15  C   UNL     1      -3.585   0.224 -31.522  1.00  0.00     0.270 C 
HETATM   16  N   UNL     1      -3.620  -0.335 -32.771  1.00  0.00    -0.365 N 
HETATM   17  H   UNL     1      -4.512  -0.407 -33.247  1.00  0.00     0.159 HD
HETATM   18  H   UNL     1      -2.766  -0.665 -33.193  1.00  0.00     0.159 HD
HETATM   19  O   UNL     1      -2.530   0.327 -30.905  1.00  0.00    -0.266 OA
ENDBRANCH   9  15
ENDBRANCH   2   5
BRANCH   1  20
HETATM   20  C   UNL     1      -4.014   7.815 -31.177  1.00  0.00     0.278 C 
BRANCH  20  21
HETATM   21  O   UNL     1      -2.912   7.870 -32.084  1.00  0.00    -0.342 OA
BRANCH  21  22
HETATM   22  C   UNL     1      -1.800   7.225 -31.593  1.00  0.00     0.076 A 
HETATM   23  C   UNL     1      -1.101   7.734 -30.487  1.00  0.00     0.044 A 
HETATM   24  C   UNL     1       0.018   7.072 -29.972  1.00  0.00    -0.059 A 
HETATM   25  C   UNL     1       0.745   7.602 -28.772  1.00  0.00     0.048 C 
HETATM   26  C   UNL     1       0.460   5.909 -30.601  1.00  0.00     0.007 A 
HETATM   27  C   UNL     1      -0.207   5.418 -31.725  1.00  0.00     0.011 A 
HETATM   28  C   UNL     1      -1.345   6.067 -32.247  1.00  0.00    -0.021 A 
BRANCH  28  29
HETATM   29  C   UNL     1      -2.020   5.447 -33.461  1.00  0.00     0.013 C 
HETATM   30  C   UNL     1      -1.154   5.552 -34.718  1.00  0.00     0.015 C 
HETATM   31  C   UNL     1      -2.485   4.011 -33.216  1.00  0.00     0.015 C 
ENDBRANCH  28  29
ENDBRANCH  21  22
ENDBRANCH  20  21
ENDBRANCH   1  20
TORSDOF 6
ENDMDL
MODEL 9
REMARK VINA RESULT:      -8.7      3.485      4.241
REMARK  6 active torsions:
REMARK  status: ('A' for Active; 'I' for Inactive)
REMARK    1  A    between atoms: C_4  and  O_5 
REMARK    2  A    between atoms: O_5  and  C_6 
REMARK    3  A    between atoms: C_6  and  C_7 
REMARK       I    between atoms: C_7  and  N_8 
REMARK    4  A    between atoms: N_8  and  C_9 
REMARK    5  A    between atoms: C_16  and  C_17 
REMARK       I    between atoms: C_17  and  N_18 
REMARK    6  A    between atoms: C_23  and  C_24 
ROOT
HETATM    1  C   UNL     1      -8.014   1.754 -34.134  1.00  0.00     0.246 C 
HETATM    2  N   UNL     1      -6.744   2.128 -33.729  1.00  0.00    -0.325 N 
HETATM    3  O   UNL     1      -8.988   2.490 -34.258  1.00  0.00    -0.271 OA
HETATM    4  H   UNL     1      -6.030   1.411 -33.819  1.00  0.00     0.169 HD
ENDROOT
BRANCH   2   5
HETATM    5  C   UNL     1      -6.340   3.386 -33.230  1.00  0.00     0.035 A 
HETATM    6  C   UNL     1      -6.437   3.747 -31.878  1.00  0.00     0.046 A 
HETATM    7  C   UNL     1      -5.961   5.005 -31.449  1.00  0.00     0.030 A 
HETATM    8  C   UNL     1      -5.407   5.866 -32.389  1.00  0.00     0.063 A 
HETATM    9  C   UNL     1      -5.873   5.703 -30.207  1.00  0.00     0.156 A 
HETATM   10  N   UNL     1      -5.040   6.979 -31.686  1.00  0.00    -0.277 N 
HETATM   11  C   UNL     1      -5.298   5.544 -33.744  1.00  0.00     0.034 A 
HETATM   12  H   UNL     1      -4.600   7.817 -32.049  1.00  0.00     0.189 HD
HETATM   13  N   UNL     1      -5.305   6.921 -30.370  1.00  0.00    -0.168 NA
HETATM   14  C   UNL     1      -5.775   4.286 -34.141  1.00  0.00     0.032 A 
BRANCH   9  15
HETATM   15  C   UNL     1      -6.310   5.235 -28.884  1.00  0.00     0.270 C 
HETATM   16  N   UNL     1      -5.329   4.611 -28.161  1.00  0.00    -0.365 N 
HETATM   17  H   UNL     1      -4.407   4.517 -28.571  1.00  0.00     0.159 HD
HETATM   18  H   UNL     1      -5.538   4.255 -27.241  1.00  0.00     0.159 HD
HETATM   19  O   UNL     1      -7.441   5.367 -28.431  1.00  0.00    -0.266 OA
ENDBRANCH   9  15
ENDBRANCH   2   5
BRANCH   1  20
HETATM   20  C   UNL     1      -8.161   0.244 -34.315  1.00  0.00     0.278 C 
BRANCH  20  21
HETATM   21  O   UNL     1      -7.610  -0.491 -33.221  1.00  0.00    -0.342 OA
BRANCH  21  22
HETATM   22  C   UNL     1      -6.656  -1.395 -33.628  1.00  0.00     0.076 A 
HETATM   23  C   UNL     1      -7.012  -2.531 -34.371  1.00  0.00     0.044 A 
HETATM   24  C   UNL     1      -6.044  -3.444 -34.804  1.00  0.00    -0.059 A 
HETATM   25  C   UNL     1      -6.423  -4.642 -35.624  1.00  0.00     0.048 C 
HETATM   26  C   UNL     1      -4.712  -3.230 -34.451  1.00  0.00     0.007 A 
HETATM   27  C   UNL     1      -4.356  -2.122 -33.679  1.00  0.00     0.011 A 
HETATM   28  C   UNL     1      -5.319  -1.187 -33.248  1.00  0.00    -0.021 A 
BRANCH  28  29
HETATM   29  C   UNL     1      -4.836   0.001 -32.429  1.00  0.00     0.013 C 
HETATM   30  C   UNL     1      -5.276  -0.090 -30.967  1.00  0.00     0.015 C 
HETATM   31  C   UNL     1      -3.329   0.235 -32.550  1.00  0.00     0.015 C 
ENDBRANCH  28  29
ENDBRANCH  21  22
ENDBRANCH  20  21
ENDBRANCH   1  20
TORSDOF 6
ENDMDL
MODEL 10
REMARK VINA RESULT:      -8.6      2.182      3.298
REMARK  6 active torsions:
REMARK  status: ('A' for Active; 'I' for Inactive)
REMARK    1  A    between atoms: C_4  and  O_5 
REMARK    2  A    between atoms: O_5  and  C_6 
REMARK    3  A    between atoms: C_6  and  C_7 
REMARK       I    between atoms: C_7  and  N_8 
REMARK    4  A    between atoms: N_8  and  C_9 
REMARK    5  A    between atoms: C_16  and  C_17 
REMARK       I    between atoms: C_17  and  N_18 
REMARK    6  A    between atoms: C_23  and  C_24 
ROOT
HETATM    1  C   UNL     1      -7.791   1.941 -33.824  1.00  0.00     0.246 C 
HETATM    2  N   UNL     1      -6.602   2.600 -34.090  1.00  0.00    -0.325 N 
HETATM    3  O   UNL     1      -8.709   2.347 -33.119  1.00  0.00    -0.271 OA
HETATM    4  H   UNL     1      -6.021   2.175 -34.807  1.00  0.00     0.169 HD
ENDROOT
BRANCH   2   5
HETATM    5  C   UNL     1      -6.130   3.788 -33.493  1.00  0.00     0.035 A 
HETATM    6  C   UNL     1      -4.818   3.948 -33.024  1.00  0.00     0.046 A 
HETATM    7  C   UNL     1      -4.408   5.188 -32.487  1.00  0.00     0.030 A 
HETATM    8  C   UNL     1      -5.326   6.229 -32.433  1.00  0.00     0.063 A 
HETATM    9  C   UNL     1      -3.203   5.726 -31.943  1.00  0.00     0.156 A 
HETATM   10  N   UNL     1      -4.649   7.280 -31.880  1.00  0.00    -0.277 N 
HETATM   11  C   UNL     1      -6.643   6.107 -32.885  1.00  0.00     0.034 A 
HETATM   12  H   UNL     1      -5.006   8.210 -31.690  1.00  0.00     0.189 HD
HETATM   13  N   UNL     1      -3.368   7.017 -31.570  1.00  0.00    -0.168 NA
HETATM   14  C   UNL     1      -7.021   4.866 -33.417  1.00  0.00     0.032 A 
BRANCH   9  15
HETATM   15  C   UNL     1      -1.912   5.042 -31.778  1.00  0.00     0.270 C 
HETATM   16  N   UNL     1      -1.458   5.011 -30.486  1.00  0.00    -0.365 N 
HETATM   17  H   UNL     1      -2.019   5.445 -29.763  1.00  0.00     0.159 HD
HETATM   18  H   UNL     1      -0.579   4.563 -30.278  1.00  0.00     0.159 HD
HETATM   19  O   UNL     1      -1.265   4.535 -32.687  1.00  0.00    -0.266 OA
ENDBRANCH   9  15
ENDBRANCH   2   5
BRANCH   1  20
HETATM   20  C   UNL     1      -7.837   0.532 -34.413  1.00  0.00     0.278 C 
BRANCH  20  21
HETATM   21  O   UNL     1      -7.694  -0.479 -33.414  1.00  0.00    -0.342 OA
BRANCH  21  22
HETATM   22  C   UNL     1      -6.709  -1.387 -33.728  1.00  0.00     0.076 A 
HETATM   23  C   UNL     1      -7.005  -2.544 -34.466  1.00  0.00     0.044 A 
HETATM   24  C   UNL     1      -6.004  -3.461 -34.804  1.00  0.00    -0.059 A 
HETATM   25  C   UNL     1      -6.316  -4.681 -35.619  1.00  0.00     0.048 C 
HETATM   26  C   UNL     1      -4.702  -3.230 -34.361  1.00  0.00     0.007 A 
HETATM   27  C   UNL     1      -4.408  -2.101 -33.594  1.00  0.00     0.011 A 
HETATM   28  C   UNL     1      -5.404  -1.162 -33.257  1.00  0.00    -0.021 A 
BRANCH  28  29
HETATM   29  C   UNL     1      -4.987   0.050 -32.436  1.00  0.00     0.013 C 
HETATM   30  C   UNL     1      -5.476  -0.039 -30.989  1.00  0.00     0.015 C 
HETATM   31  C   UNL     1      -3.485   0.330 -32.507  1.00  0.00     0.015 C 
ENDBRANCH  28  29
ENDBRANCH  21  22
ENDBRANCH  20  21
ENDBRANCH   1  20
TORSDOF 6
ENDMDL
