MODEL 1
REMARK VINA RESULT:      -9.3      0.000      0.000
REMARK  6 active torsions:
REMARK  status: ('A' for Active; 'I' for Inactive)
REMARK    1  A    between atoms: C_2  and  O_3 
REMARK    2  A    between atoms: C_2  and  C_4 
REMARK    3  A    between atoms: C_6  and  N_7 
REMARK       I    between atoms: N_7  and  C_8 
REMARK    4  A    between atoms: C_8  and  C_9 
REMARK    5  A    between atoms: C_12  and  C_13 
REMARK    6  A    between atoms: C_18  and  C_19 
ROOT
HETATM    1  C   UNL     1      -6.916   1.370 -33.742  1.00  0.00     0.096 C 
HETATM    2  C   UNL     1      -5.960   0.384 -33.579  1.00  0.00     0.138 C 
HETATM    3  N   UNL     1      -4.920   0.978 -32.900  1.00  0.00    -0.240 N 
HETATM    4  C   UNL     1      -3.680   0.310 -32.545  1.00  0.00     0.221 C 
HETATM    5  C   UNL     1      -3.830  -1.215 -32.678  1.00  0.00     0.068 C 
HETATM    6  C   UNL     1      -4.569  -1.573 -33.972  1.00  0.00     0.143 C 
HETATM    7  N   UNL     1      -5.895  -0.924 -33.959  1.00  0.00    -0.363 N 
HETATM    8  N   UNL     1      -5.057   2.306 -32.775  1.00  0.00    -0.181 NA
HETATM    9  C   UNL     1      -6.282   2.538 -33.254  1.00  0.00     0.160 C 
HETATM   10  H   UNL     1      -6.433  -1.198 -34.786  1.00  0.00     0.162 HD
ENDROOT
BRANCH   1  11
HETATM   11  C   UNL     1      -8.251   1.290 -34.313  1.00  0.00     0.261 C 
HETATM   12  N   UNL     1      -9.072   2.336 -33.938  1.00  0.00    -0.323 N 
HETATM   13  H   UNL     1      -8.623   3.067 -33.396  1.00  0.00     0.169 HD
HETATM   14  O   UNL     1      -8.542   0.380 -35.080  1.00  0.00    -0.267 OA
BRANCH  12  15
HETATM   15  C   UNL     1     -10.413   2.559 -34.310  1.00  0.00     0.035 A 
HETATM   16  C   UNL     1     -11.479   1.753 -33.902  1.00  0.00     0.039 A 
HETATM   17  C   UNL     1     -12.795   2.023 -34.319  1.00  0.00    -0.028 A 
HETATM   18  C   UNL     1     -13.027   3.117 -35.165  1.00  0.00     0.010 A 
HETATM   19  C   UNL     1     -11.972   3.934 -35.566  1.00  0.00     0.003 A 
HETATM   20  C   UNL     1     -10.673   3.657 -35.139  1.00  0.00     0.029 A 
BRANCH  17  21
HETATM   21  C   UNL     1     -13.924   1.112 -33.883  1.00  0.00     0.147 C 
HETATM   22  C   UNL     1     -13.458  -0.324 -33.693  1.00  0.00     0.044 C 
BRANCH  21  23
HETATM   23  O   UNL     1     -14.977   1.132 -34.845  1.00  0.00    -0.391 OA
HETATM   24  H   UNL     1     -15.100   2.062 -35.104  1.00  0.00     0.210 HD
ENDBRANCH  21  23
ENDBRANCH  17  21
ENDBRANCH  12  15
ENDBRANCH   1  11
BRANCH   4  25
HETATM   25  C   UNL     1      -3.239   0.655 -31.139  1.00  0.00     0.409 C 
HETATM   26  F   UNL     1      -2.831   1.932 -30.996  1.00  0.00    -0.169 F 
HETATM   27  F   UNL     1      -4.204   0.410 -30.224  1.00  0.00    -0.169 F 
HETATM   28  F   UNL     1      -2.174  -0.120 -30.795  1.00  0.00    -0.169 F 
ENDBRANCH   4  25
BRANCH   6  29
HETATM   29  C   UNL     1      -4.641  -3.059 -34.122  1.00  0.00     0.075 A 
HETATM   30  O   UNL     1      -5.703  -3.545 -34.828  1.00  0.00    -0.325 OA
HETATM   31  C   UNL     1      -5.574  -4.896 -34.861  1.00  0.00     0.142 A 
HETATM   32  C   UNL     1      -4.441  -5.288 -34.186  1.00  0.00     0.027 A 
HETATM   33  C   UNL     1      -3.836  -4.102 -33.708  1.00  0.00     0.037 A 
ENDBRANCH   6  29
TORSDOF 6
ENDMDL
MODEL 2
REMARK VINA RESULT:      -8.9      5.125      8.425
REMARK  6 active torsions:
REMARK  status: ('A' for Active; 'I' for Inactive)
REMARK    1  A    between atoms: C_2  and  O_3 
REMARK    2  A    between atoms: C_2  and  C_4 
REMARK    3  A    between atoms: C_6  and  N_7 
REMARK       I    between atoms: N_7  and  C_8 
REMARK    4  A    between atoms: C_8  and  C_9 
REMARK    5  A    between atoms: C_12  and  C_13 
REMARK    6  A    between atoms: C_18  and  C_19 
ROOT
HETATM    1  C   UNL     1      -4.587   1.918 -31.355  1.00  0.00     0.096 C 
HETATM    2  C   UNL     1      -4.072   3.194 -31.223  1.00  0.00     0.138 C 
HETATM    3  N   UNL     1      -5.155   4.013 -30.991  1.00  0.00    -0.240 N 
HETATM    4  C   UNL     1      -5.078   5.454 -30.824  1.00  0.00     0.221 C 
HETATM    5  C   UNL     1      -3.626   5.890 -30.561  1.00  0.00     0.068 C 
HETATM    6  C   UNL     1      -2.664   5.158 -31.503  1.00  0.00     0.143 C 
HETATM    7  N   UNL     1      -2.810   3.704 -31.298  1.00  0.00    -0.363 N 
HETATM    8  N   UNL     1      -6.333   3.391 -31.142  1.00  0.00    -0.181 NA
HETATM    9  C   UNL     1      -5.989   2.114 -31.329  1.00  0.00     0.160 C 
HETATM   10  H   UNL     1      -2.133   3.193 -31.872  1.00  0.00     0.162 HD
ENDROOT
BRANCH   1  11
HETATM   11  C   UNL     1      -3.900   0.648 -31.529  1.00  0.00     0.261 C 
HETATM   12  N   UNL     1      -4.648  -0.293 -32.211  1.00  0.00    -0.323 N 
HETATM   13  H   UNL     1      -5.531   0.041 -32.582  1.00  0.00     0.169 HD
HETATM   14  O   UNL     1      -2.752   0.505 -31.124  1.00  0.00    -0.267 OA
BRANCH  12  15
HETATM   15  C   UNL     1      -4.282  -1.612 -32.544  1.00  0.00     0.035 A 
HETATM   16  C   UNL     1      -4.850  -2.336 -33.596  1.00  0.00     0.039 A 
HETATM   17  C   UNL     1      -4.448  -3.656 -33.870  1.00  0.00    -0.028 A 
HETATM   18  C   UNL     1      -3.467  -4.247 -33.062  1.00  0.00     0.010 A 
HETATM   19  C   UNL     1      -2.885  -3.529 -32.020  1.00  0.00     0.003 A 
HETATM   20  C   UNL     1      -3.289  -2.217 -31.764  1.00  0.00     0.029 A 
BRANCH  17  21
HETATM   21  C   UNL     1      -5.106  -4.424 -34.998  1.00  0.00     0.147 C 
HETATM   22  C   UNL     1      -6.604  -4.165 -35.067  1.00  0.00     0.044 C 
BRANCH  21  23
HETATM   23  O   UNL     1      -4.886  -5.825 -34.839  1.00  0.00    -0.391 OA
HETATM   24  H   UNL     1      -5.328  -6.262 -35.587  1.00  0.00     0.210 HD
ENDBRANCH  21  23
ENDBRANCH  17  21
ENDBRANCH  12  15
ENDBRANCH   1  11
BRANCH   4  25
HETATM   25  C   UNL     1      -5.964   5.938 -29.698  1.00  0.00     0.409 C 
HETATM   26  F   UNL     1      -5.655   7.172 -29.255  1.00  0.00    -0.169 F 
HETATM   27  F   UNL     1      -7.275   5.920 -30.033  1.00  0.00    -0.169 F 
HETATM   28  F   UNL     1      -5.829   5.109 -28.627  1.00  0.00    -0.169 F 
ENDBRANCH   4  25
BRANCH   6  29
HETATM   29  C   UNL     1      -1.268   5.647 -31.285  1.00  0.00     0.075 A 
HETATM   30  O   UNL     1      -0.368   4.728 -30.829  1.00  0.00    -0.325 OA
HETATM   31  C   UNL     1       0.826   5.362 -30.715  1.00  0.00     0.142 A 
HETATM   32  C   UNL     1       0.709   6.680 -31.092  1.00  0.00     0.027 A 
HETATM   33  C   UNL     1      -0.644   6.866 -31.462  1.00  0.00     0.037 A 
ENDBRANCH   6  29
TORSDOF 6
ENDMDL
MODEL 3
REMARK VINA RESULT:      -8.9      4.638      7.997
REMARK  6 active torsions:
REMARK  status: ('A' for Active; 'I' for Inactive)
REMARK    1  A    between atoms: C_2  and  O_3 
REMARK    2  A    between atoms: C_2  and  C_4 
REMARK    3  A    between atoms: C_6  and  N_7 
REMARK       I    between atoms: N_7  and  C_8 
REMARK    4  A    between atoms: C_8  and  C_9 
REMARK    5  A    between atoms: C_12  and  C_13 
REMARK    6  A    between atoms: C_18  and  C_19 
ROOT
HETATM    1  C   UNL     1      -5.756   2.860 -32.284  1.00  0.00     0.096 C 
HETATM    2  C   UNL     1      -6.331   1.657 -32.649  1.00  0.00     0.138 C 
HETATM    3  N   UNL     1      -7.680   1.797 -32.406  1.00  0.00    -0.240 N 
HETATM    4  C   UNL     1      -8.668   0.754 -32.616  1.00  0.00     0.221 C 
HETATM    5  C   UNL     1      -8.087  -0.372 -33.489  1.00  0.00     0.068 C 
HETATM    6  C   UNL     1      -6.663  -0.721 -33.042  1.00  0.00     0.143 C 
HETATM    7  N   UNL     1      -5.824   0.489 -33.137  1.00  0.00    -0.363 N 
HETATM    8  N   UNL     1      -7.987   2.926 -31.750  1.00  0.00    -0.181 NA
HETATM    9  C   UNL     1      -6.826   3.585 -31.706  1.00  0.00     0.160 C 
HETATM   10  H   UNL     1      -4.852   0.268 -32.901  1.00  0.00     0.162 HD
ENDROOT
BRANCH   1  11
HETATM   11  C   UNL     1      -4.377   3.308 -32.401  1.00  0.00     0.261 C 
HETATM   12  N   UNL     1      -4.213   4.654 -32.134  1.00  0.00    -0.323 N 
HETATM   13  H   UNL     1      -5.043   5.135 -31.804  1.00  0.00     0.169 HD
HETATM   14  O   UNL     1      -3.488   2.510 -32.671  1.00  0.00    -0.267 OA
BRANCH  12  15
HETATM   15  C   UNL     1      -3.018   5.400 -32.158  1.00  0.00     0.035 A 
HETATM   16  C   UNL     1      -1.970   5.222 -31.250  1.00  0.00     0.039 A 
HETATM   17  C   UNL     1      -0.806   6.009 -31.321  1.00  0.00    -0.028 A 
HETATM   18  C   UNL     1      -0.711   6.990 -32.317  1.00  0.00     0.010 A 
HETATM   19  C   UNL     1      -1.744   7.166 -33.235  1.00  0.00     0.003 A 
HETATM   20  C   UNL     1      -2.890   6.373 -33.157  1.00  0.00     0.029 A 
BRANCH  17  21
HETATM   21  C   UNL     1       0.298   5.812 -30.303  1.00  0.00     0.147 C 
HETATM   22  C   UNL     1       1.325   4.789 -30.766  1.00  0.00     0.044 C 
BRANCH  21  23
HETATM   23  O   UNL     1      -0.248   5.385 -29.055  1.00  0.00    -0.391 OA
HETATM   24  H   UNL     1      -0.780   6.126 -28.717  1.00  0.00     0.210 HD
ENDBRANCH  21  23
ENDBRANCH  17  21
ENDBRANCH  12  15
ENDBRANCH   1  11
BRANCH   4  25
HETATM   25  C   UNL     1      -9.927   1.294 -33.258  1.00  0.00     0.409 C 
HETATM   26  F   UNL     1     -10.585   2.189 -32.495  1.00  0.00    -0.169 F 
HETATM   27  F   UNL     1      -9.688   1.855 -34.466  1.00  0.00    -0.169 F 
HETATM   28  F   UNL     1     -10.800   0.272 -33.475  1.00  0.00    -0.169 F 
ENDBRANCH   4  25
BRANCH   6  29
HETATM   29  C   UNL     1      -6.142  -1.865 -33.850  1.00  0.00     0.075 A 
HETATM   30  O   UNL     1      -4.787  -2.027 -33.867  1.00  0.00    -0.325 OA
HETATM   31  C   UNL     1      -4.526  -3.117 -34.633  1.00  0.00     0.142 A 
HETATM   32  C   UNL     1      -5.695  -3.661 -35.111  1.00  0.00     0.027 A 
HETATM   33  C   UNL     1      -6.742  -2.854 -34.605  1.00  0.00     0.037 A 
ENDBRANCH   6  29
TORSDOF 6
ENDMDL
MODEL 4
REMARK VINA RESULT:      -8.6      1.645      2.045
REMARK  6 active torsions:
REMARK  status: ('A' for Active; 'I' for Inactive)
REMARK    1  A    between atoms: C_2  and  O_3 
REMARK    2  A    between atoms: C_2  and  C_4 
REMARK    3  A    between atoms: C_6  and  N_7 
REMARK       I    between atoms: N_7  and  C_8 
REMARK    4  A    between atoms: C_8  and  C_9 
REMARK    5  A    between atoms: C_12  and  C_13 
REMARK    6  A    between atoms: C_18  and  C_19 
ROOT
HETATM    1  C   UNL     1      -7.758   1.067 -32.417  1.00  0.00     0.096 C 
HETATM    2  C   UNL     1      -6.738   0.200 -32.761  1.00  0.00     0.138 C 
HETATM    3  N   UNL     1      -5.575   0.796 -32.326  1.00  0.00    -0.240 N 
HETATM    4  C   UNL     1      -4.245   0.243 -32.512  1.00  0.00     0.221 C 
HETATM    5  C   UNL     1      -4.328  -1.242 -32.904  1.00  0.00     0.068 C 
HETATM    6  C   UNL     1      -5.422  -1.462 -33.955  1.00  0.00     0.143 C 
HETATM    7  N   UNL     1      -6.712  -1.002 -33.405  1.00  0.00    -0.363 N 
HETATM    8  N   UNL     1      -5.753   2.053 -31.893  1.00  0.00    -0.181 NA
HETATM    9  C   UNL     1      -7.080   2.204 -31.916  1.00  0.00     0.160 C 
HETATM   10  H   UNL     1      -7.470  -1.195 -34.065  1.00  0.00     0.162 HD
ENDROOT
BRANCH   1  11
HETATM   11  C   UNL     1      -9.198   0.916 -32.556  1.00  0.00     0.261 C 
HETATM   12  N   UNL     1      -9.806   1.993 -33.173  1.00  0.00    -0.323 N 
HETATM   13  H   UNL     1      -9.174   2.701 -33.531  1.00  0.00     0.169 HD
HETATM   14  O   UNL     1      -9.752  -0.111 -32.182  1.00  0.00    -0.267 OA
BRANCH  12  15
HETATM   15  C   UNL     1     -11.175   2.165 -33.460  1.00  0.00     0.035 A 
HETATM   16  C   UNL     1     -11.994   3.099 -32.820  1.00  0.00     0.039 A 
HETATM   17  C   UNL     1     -13.358   3.213 -33.145  1.00  0.00    -0.028 A 
HETATM   18  C   UNL     1     -13.895   2.364 -34.122  1.00  0.00     0.010 A 
HETATM   19  C   UNL     1     -13.084   1.438 -34.775  1.00  0.00     0.003 A 
HETATM   20  C   UNL     1     -11.730   1.342 -34.447  1.00  0.00     0.029 A 
BRANCH  17  21
HETATM   21  C   UNL     1     -14.224   4.216 -32.411  1.00  0.00     0.147 C 
HETATM   22  C   UNL     1     -13.844   4.332 -30.943  1.00  0.00     0.044 C 
BRANCH  21  23
HETATM   23  O   UNL     1     -15.599   3.845 -32.505  1.00  0.00    -0.391 OA
HETATM   24  H   UNL     1     -15.636   3.054 -33.070  1.00  0.00     0.210 HD
ENDBRANCH  21  23
ENDBRANCH  17  21
ENDBRANCH  12  15
ENDBRANCH   1  11
BRANCH   4  25
HETATM   25  C   UNL     1      -3.396   0.392 -31.269  1.00  0.00     0.409 C 
HETATM   26  F   UNL     1      -4.063   0.154 -30.123  1.00  0.00    -0.169 F 
HETATM   27  F   UNL     1      -2.300  -0.400 -31.298  1.00  0.00    -0.169 F 
HETATM   28  F   UNL     1      -2.943   1.673 -31.180  1.00  0.00    -0.169 F 
ENDBRANCH   4  25
BRANCH   6  29
HETATM   29  C   UNL     1      -5.439  -2.895 -34.379  1.00  0.00     0.075 A 
HETATM   30  O   UNL     1      -6.581  -3.334 -34.984  1.00  0.00    -0.325 OA
HETATM   31  C   UNL     1      -6.386  -4.640 -35.302  1.00  0.00     0.142 A 
HETATM   32  C   UNL     1      -5.134  -5.049 -34.909  1.00  0.00     0.027 A 
HETATM   33  C   UNL     1      -4.519  -3.923 -34.313  1.00  0.00     0.037 A 
ENDBRANCH   6  29
TORSDOF 6
ENDMDL
MODEL 5
REMARK VINA RESULT:      -8.6      3.893      7.840
REMARK  6 active torsions:
REMARK  status: ('A' for Active; 'I' for Inactive)
REMARK    1  A    between atoms: C_2  and  O_3 
REMARK    2  A    between atoms: C_2  and  C_4 
REMARK    3  A    between atoms: C_6  and  N_7 
REMARK       I    between atoms: N_7  and  C_8 
REMARK    4  A    between atoms: C_8  and  C_9 
REMARK    5  A    between atoms: C_12  and  C_13 
REMARK    6  A    between atoms: C_18  and  C_19 
ROOT
HETATM    1  C   UNL     1      -7.259   1.946 -32.549  1.00  0.00     0.096 C 
HETATM    2  C   UNL     1      -6.588   3.116 -32.854  1.00  0.00     0.138 C 
HETATM    3  N   UNL     1      -7.552   4.099 -32.903  1.00  0.00    -0.240 N 
HETATM    4  C   UNL     1      -7.293   5.491 -33.228  1.00  0.00     0.221 C 
HETATM    5  C   UNL     1      -5.789   5.797 -33.133  1.00  0.00     0.068 C 
HETATM    6  C   UNL     1      -4.968   4.677 -33.780  1.00  0.00     0.143 C 
HETATM    7  N   UNL     1      -5.278   3.404 -33.100  1.00  0.00    -0.363 N 
HETATM    8  N   UNL     1      -8.802   3.621 -32.832  1.00  0.00    -0.181 NA
HETATM    9  C   UNL     1      -8.623   2.320 -32.583  1.00  0.00     0.160 C 
HETATM   10  H   UNL     1      -4.696   2.650 -33.473  1.00  0.00     0.162 HD
ENDROOT
BRANCH   1  11
HETATM   11  C   UNL     1      -6.739   0.613 -32.291  1.00  0.00     0.261 C 
HETATM   12  N   UNL     1      -5.865   0.167 -33.264  1.00  0.00    -0.323 N 
HETATM   13  H   UNL     1      -5.625   0.848 -33.977  1.00  0.00     0.169 HD
HETATM   14  O   UNL     1      -7.051   0.014 -31.269  1.00  0.00    -0.267 OA
BRANCH  12  15
HETATM   15  C   UNL     1      -5.189  -1.069 -33.318  1.00  0.00     0.035 A 
HETATM   16  C   UNL     1      -5.556  -2.121 -34.161  1.00  0.00     0.039 A 
HETATM   17  C   UNL     1      -4.845  -3.335 -34.159  1.00  0.00    -0.028 A 
HETATM   18  C   UNL     1      -3.759  -3.483 -33.286  1.00  0.00     0.010 A 
HETATM   19  C   UNL     1      -3.377  -2.435 -32.452  1.00  0.00     0.003 A 
HETATM   20  C   UNL     1      -4.087  -1.233 -32.470  1.00  0.00     0.029 A 
BRANCH  17  21
HETATM   21  C   UNL     1      -5.288  -4.467 -35.063  1.00  0.00     0.147 C 
HETATM   22  C   UNL     1      -6.801  -4.512 -35.223  1.00  0.00     0.044 C 
BRANCH  21  23
HETATM   23  O   UNL     1      -4.842  -5.720 -34.545  1.00  0.00    -0.391 OA
HETATM   24  H   UNL     1      -5.263  -6.410 -35.086  1.00  0.00     0.210 HD
ENDBRANCH  21  23
ENDBRANCH  17  21
ENDBRANCH  12  15
ENDBRANCH   1  11
BRANCH   4  25
HETATM   25  C   UNL     1      -8.061   6.431 -32.325  1.00  0.00     0.409 C 
HETATM   26  F   UNL     1      -9.321   6.673 -32.737  1.00  0.00    -0.169 F 
HETATM   27  F   UNL     1      -8.107   5.990 -31.046  1.00  0.00    -0.169 F 
HETATM   28  F   UNL     1      -7.436   7.640 -32.293  1.00  0.00    -0.169 F 
ENDBRANCH   4  25
BRANCH   6  29
HETATM   29  C   UNL     1      -3.515   5.025 -33.744  1.00  0.00     0.075 A 
HETATM   30  O   UNL     1      -3.136   6.118 -34.468  1.00  0.00    -0.325 OA
HETATM   31  C   UNL     1      -1.799   6.270 -34.291  1.00  0.00     0.142 A 
HETATM   32  C   UNL     1      -1.309   5.288 -33.462  1.00  0.00     0.027 A 
HETATM   33  C   UNL     1      -2.417   4.483 -33.107  1.00  0.00     0.037 A 
ENDBRANCH   6  29
TORSDOF 6
ENDMDL
MODEL 6
REMARK VINA RESULT:      -8.6      3.719      8.665
REMARK  6 active torsions:
REMARK  status: ('A' for Active; 'I' for Inactive)
REMARK    1  A    between atoms: C_2  and  O_3 
REMARK    2  A    between atoms: C_2  and  C_4 
REMARK    3  A    between atoms: C_6  and  N_7 
REMARK       I    between atoms: N_7  and  C_8 
REMARK    4  A    between atoms: C_8  and  C_9 
REMARK    5  A    between atoms: C_12  and  C_13 
REMARK    6  A    between atoms: C_18  and  C_19 
ROOT
HETATM    1  C   UNL     1      -8.390   2.645 -32.981  1.00  0.00     0.096 C 
HETATM    2  C   UNL     1      -9.709   2.962 -33.247  1.00  0.00     0.138 C 
HETATM    3  N   UNL     1      -9.726   4.317 -33.495  1.00  0.00    -0.240 N 
HETATM    4  C   UNL     1     -10.923   5.086 -33.787  1.00  0.00     0.221 C 
HETATM    5  C   UNL     1     -12.088   4.152 -34.158  1.00  0.00     0.068 C 
HETATM    6  C   UNL     1     -12.141   2.952 -33.206  1.00  0.00     0.143 C 
HETATM    7  N   UNL     1     -10.858   2.228 -33.279  1.00  0.00    -0.363 N 
HETATM    8  N   UNL     1      -8.557   4.919 -33.234  1.00  0.00    -0.181 NA
HETATM    9  C   UNL     1      -7.738   3.901 -32.956  1.00  0.00     0.160 C 
HETATM   10  H   UNL     1     -10.890   1.386 -32.697  1.00  0.00     0.162 HD
ENDROOT
BRANCH   1  11
HETATM   11  C   UNL     1      -7.773   1.351 -32.735  1.00  0.00     0.261 C 
HETATM   12  N   UNL     1      -6.917   0.949 -33.742  1.00  0.00    -0.323 N 
HETATM   13  H   UNL     1      -6.754   1.636 -34.472  1.00  0.00     0.169 HD
HETATM   14  O   UNL     1      -8.000   0.746 -31.694  1.00  0.00    -0.267 OA
BRANCH  12  15
HETATM   15  C   UNL     1      -6.166  -0.241 -33.816  1.00  0.00     0.035 A 
HETATM   16  C   UNL     1      -5.040  -0.501 -33.029  1.00  0.00     0.039 A 
HETATM   17  C   UNL     1      -4.326  -1.706 -33.159  1.00  0.00    -0.028 A 
HETATM   18  C   UNL     1      -4.755  -2.649 -34.103  1.00  0.00     0.010 A 
HETATM   19  C   UNL     1      -5.883  -2.405 -34.883  1.00  0.00     0.003 A 
HETATM   20  C   UNL     1      -6.586  -1.207 -34.737  1.00  0.00     0.029 A 
BRANCH  17  21
HETATM   21  C   UNL     1      -3.093  -1.945 -32.313  1.00  0.00     0.147 C 
HETATM   22  C   UNL     1      -3.021  -3.375 -31.798  1.00  0.00     0.044 C 
BRANCH  21  23
HETATM   23  O   UNL     1      -3.075  -1.052 -31.200  1.00  0.00    -0.391 OA
HETATM   24  H   UNL     1      -2.672  -1.538 -30.460  1.00  0.00     0.210 HD
ENDBRANCH  21  23
ENDBRANCH  17  21
ENDBRANCH  12  15
ENDBRANCH   1  11
BRANCH   4  25
HETATM   25  C   UNL     1     -10.694   6.079 -34.906  1.00  0.00     0.409 C 
HETATM   26  F   UNL     1     -10.179   7.253 -34.492  1.00  0.00    -0.169 F 
HETATM   27  F   UNL     1      -9.895   5.581 -35.878  1.00  0.00    -0.169 F 
HETATM   28  F   UNL     1     -11.883   6.377 -35.498  1.00  0.00    -0.169 F 
ENDBRANCH   4  25
BRANCH   6  29
HETATM   29  C   UNL     1     -13.322   2.095 -33.533  1.00  0.00     0.075 A 
HETATM   30  O   UNL     1     -14.439   2.289 -32.774  1.00  0.00    -0.325 OA
HETATM   31  C   UNL     1     -15.388   1.435 -33.237  1.00  0.00     0.142 A 
HETATM   32  C   UNL     1     -14.897   0.694 -34.286  1.00  0.00     0.027 A 
HETATM   33  C   UNL     1     -13.561   1.119 -34.479  1.00  0.00     0.037 A 
ENDBRANCH   6  29
TORSDOF 6
ENDMDL
MODEL 7
REMARK VINA RESULT:      -8.3      4.196      9.407
REMARK  6 active torsions:
REMARK  status: ('A' for Active; 'I' for Inactive)
REMARK    1  A    between atoms: C_2  and  O_3 
REMARK    2  A    between atoms: C_2  and  C_4 
REMARK    3  A    between atoms: C_6  and  N_7 
REMARK       I    between atoms: N_7  and  C_8 
REMARK    4  A    between atoms: C_8  and  C_9 
REMARK    5  A    between atoms: C_12  and  C_13 
REMARK    6  A    between atoms: C_18  and  C_19 
ROOT
HETATM    1  C   UNL     1     -10.485   1.254 -33.822  1.00  0.00     0.096 C 
HETATM    2  C   UNL     1     -11.230   2.398 -34.043  1.00  0.00     0.138 C 
HETATM    3  N   UNL     1     -12.507   2.102 -33.619  1.00  0.00    -0.240 N 
HETATM    4  C   UNL     1     -13.634   3.014 -33.700  1.00  0.00     0.221 C 
HETATM    5  C   UNL     1     -13.149   4.451 -33.953  1.00  0.00     0.068 C 
HETATM    6  C   UNL     1     -12.050   4.469 -35.022  1.00  0.00     0.143 C 
HETATM    7  N   UNL     1     -10.931   3.620 -34.568  1.00  0.00    -0.363 N 
HETATM    8  N   UNL     1     -12.678   0.807 -33.314  1.00  0.00    -0.181 NA
HETATM    9  C   UNL     1     -11.445   0.302 -33.404  1.00  0.00     0.160 C 
HETATM   10  H   UNL     1     -10.157   3.664 -35.237  1.00  0.00     0.162 HD
ENDROOT
BRANCH   1  11
HETATM   11  C   UNL     1      -9.061   1.019 -34.004  1.00  0.00     0.261 C 
HETATM   12  N   UNL     1      -8.636  -0.194 -33.496  1.00  0.00    -0.323 N 
HETATM   13  H   UNL     1      -9.372  -0.801 -33.150  1.00  0.00     0.169 HD
HETATM   14  O   UNL     1      -8.369   1.838 -34.596  1.00  0.00    -0.267 OA
BRANCH  12  15
HETATM   15  C   UNL     1      -7.332  -0.726 -33.507  1.00  0.00     0.035 A 
HETATM   16  C   UNL     1      -6.954  -1.848 -34.251  1.00  0.00     0.039 A 
HETATM   17  C   UNL     1      -5.635  -2.336 -34.209  1.00  0.00    -0.028 A 
HETATM   18  C   UNL     1      -4.697  -1.686 -33.397  1.00  0.00     0.010 A 
HETATM   19  C   UNL     1      -5.060  -0.559 -32.662  1.00  0.00     0.003 A 
HETATM   20  C   UNL     1      -6.371  -0.081 -32.719  1.00  0.00     0.029 A 
BRANCH  17  21
HETATM   21  C   UNL     1      -5.266  -3.572 -35.004  1.00  0.00     0.147 C 
HETATM   22  C   UNL     1      -6.474  -4.455 -35.281  1.00  0.00     0.044 C 
BRANCH  21  23
HETATM   23  O   UNL     1      -4.285  -4.337 -34.305  1.00  0.00    -0.391 OA
HETATM   24  H   UNL     1      -4.653  -4.521 -33.423  1.00  0.00     0.210 HD
ENDBRANCH  21  23
ENDBRANCH  17  21
ENDBRANCH  12  15
ENDBRANCH   1  11
BRANCH   4  25
HETATM   25  C   UNL     1     -14.477   2.978 -32.444  1.00  0.00     0.409 C 
HETATM   26  F   UNL     1     -15.349   4.000 -32.345  1.00  0.00    -0.169 F 
HETATM   27  F   UNL     1     -15.162   1.818 -32.319  1.00  0.00    -0.169 F 
HETATM   28  F   UNL     1     -13.668   3.067 -31.352  1.00  0.00    -0.169 F 
ENDBRANCH   4  25
BRANCH   6  29
HETATM   29  C   UNL     1     -11.642   5.878 -35.309  1.00  0.00     0.075 A 
HETATM   30  O   UNL     1     -12.650   6.795 -35.392  1.00  0.00    -0.325 OA
HETATM   31  C   UNL     1     -12.074   7.999 -35.640  1.00  0.00     0.142 A 
HETATM   32  C   UNL     1     -10.707   7.871 -35.718  1.00  0.00     0.027 A 
HETATM   33  C   UNL     1     -10.425   6.501 -35.504  1.00  0.00     0.037 A 
ENDBRANCH   6  29
TORSDOF 6
ENDMDL
MODEL 8
REMARK VINA RESULT:      -8.2      2.681      4.426
REMARK  6 active torsions:
REMARK  status: ('A' for Active; 'I' for Inactive)
REMARK    1  A    between atoms: C_2  and  O_3 
REMARK    2  A    between atoms: C_2  and  C_4 
REMARK    3  A    between atoms: C_6  and  N_7 
REMARK       I    between atoms: N_7  and  C_8 
REMARK    4  A    between atoms: C_8  and  C_9 
REMARK    5  A    between atoms: C_12  and  C_13 
REMARK    6  A    between atoms: C_18  and  C_19 
ROOT
HETATM    1  C   UNL     1      -7.464   1.188 -31.963  1.00  0.00     0.096 C 
HETATM    2  C   UNL     1      -6.138   1.538 -32.139  1.00  0.00     0.138 C 
HETATM    3  N   UNL     1      -5.404   0.455 -31.708  1.00  0.00    -0.240 N 
HETATM    4  C   UNL     1      -3.952   0.402 -31.683  1.00  0.00     0.221 C 
HETATM    5  C   UNL     1      -3.355   1.531 -32.540  1.00  0.00     0.068 C 
HETATM    6  C   UNL     1      -4.095   2.850 -32.286  1.00  0.00     0.143 C 
HETATM    7  N   UNL     1      -5.524   2.664 -32.603  1.00  0.00    -0.363 N 
HETATM    8  N   UNL     1      -6.146  -0.484 -31.106  1.00  0.00    -0.181 NA
HETATM    9  C   UNL     1      -7.398  -0.056 -31.291  1.00  0.00     0.160 C 
HETATM   10  H   UNL     1      -6.029   3.548 -32.499  1.00  0.00     0.162 HD
ENDROOT
BRANCH   1  11
HETATM   11  C   UNL     1      -8.675   1.909 -32.322  1.00  0.00     0.261 C 
HETATM   12  N   UNL     1      -9.367   1.332 -33.370  1.00  0.00    -0.323 N 
HETATM   13  H   UNL     1      -9.003   0.441 -33.692  1.00  0.00     0.169 HD
HETATM   14  O   UNL     1      -9.016   2.900 -31.689  1.00  0.00    -0.267 OA
BRANCH  12  15
HETATM   15  C   UNL     1     -10.569   1.773 -33.959  1.00  0.00     0.035 A 
HETATM   16  C   UNL     1     -11.793   1.112 -33.822  1.00  0.00     0.039 A 
HETATM   17  C   UNL     1     -12.955   1.599 -34.447  1.00  0.00    -0.028 A 
HETATM   18  C   UNL     1     -12.870   2.762 -35.225  1.00  0.00     0.010 A 
HETATM   19  C   UNL     1     -11.657   3.435 -35.356  1.00  0.00     0.003 A 
HETATM   20  C   UNL     1     -10.514   2.944 -34.724  1.00  0.00     0.029 A 
BRANCH  17  21
HETATM   21  C   UNL     1     -14.259   0.842 -34.304  1.00  0.00     0.147 C 
HETATM   22  C   UNL     1     -15.173   1.471 -33.262  1.00  0.00     0.044 C 
BRANCH  21  23
HETATM   23  O   UNL     1     -14.007  -0.515 -33.938  1.00  0.00    -0.391 OA
HETATM   24  H   UNL     1     -14.639  -1.059 -34.439  1.00  0.00     0.210 HD
ENDBRANCH  21  23
ENDBRANCH  17  21
ENDBRANCH  12  15
ENDBRANCH   1  11
BRANCH   4  25
HETATM   25  C   UNL     1      -3.431  -0.933 -32.169  1.00  0.00     0.409 C 
HETATM   26  F   UNL     1      -3.641  -1.945 -31.304  1.00  0.00    -0.169 F 
HETATM   27  F   UNL     1      -3.950  -1.281 -33.369  1.00  0.00    -0.169 F 
HETATM   28  F   UNL     1      -2.083  -0.858 -32.340  1.00  0.00    -0.169 F 
ENDBRANCH   4  25
BRANCH   6  29
HETATM   29  C   UNL     1      -3.455   3.951 -33.069  1.00  0.00     0.075 A 
HETATM   30  O   UNL     1      -4.294   4.742 -33.797  1.00  0.00    -0.325 OA
HETATM   31  C   UNL     1      -3.526   5.677 -34.412  1.00  0.00     0.142 A 
HETATM   32  C   UNL     1      -2.201   5.499 -34.090  1.00  0.00     0.027 A 
HETATM   33  C   UNL     1      -2.153   4.384 -33.221  1.00  0.00     0.037 A 
ENDBRANCH   6  29
TORSDOF 6
ENDMDL
MODEL 9
REMARK VINA RESULT:      -8.0      4.436      9.328
REMARK  6 active torsions:
REMARK  status: ('A' for Active; 'I' for Inactive)
REMARK    1  A    between atoms: C_2  and  O_3 
REMARK    2  A    between atoms: C_2  and  C_4 
REMARK    3  A    between atoms: C_6  and  N_7 
REMARK       I    between atoms: N_7  and  C_8 
REMARK    4  A    between atoms: C_8  and  C_9 
REMARK    5  A    between atoms: C_12  and  C_13 
REMARK    6  A    between atoms: C_18  and  C_19 
ROOT
HETATM    1  C   UNL     1      -6.353   2.823 -33.377  1.00  0.00     0.096 C 
HETATM    2  C   UNL     1      -7.710   2.827 -33.640  1.00  0.00     0.138 C 
HETATM    3  N   UNL     1      -8.101   1.507 -33.622  1.00  0.00    -0.240 N 
HETATM    4  C   UNL     1      -9.451   1.042 -33.885  1.00  0.00     0.221 C 
HETATM    5  C   UNL     1     -10.449   2.211 -33.808  1.00  0.00     0.068 C 
HETATM    6  C   UNL     1      -9.891   3.445 -34.525  1.00  0.00     0.143 C 
HETATM    7  N   UNL     1      -8.608   3.821 -33.900  1.00  0.00    -0.363 N 
HETATM    8  N   UNL     1      -7.072   0.650 -33.547  1.00  0.00    -0.181 NA
HETATM    9  C   UNL     1      -6.016   1.448 -33.364  1.00  0.00     0.160 C 
HETATM   10  H   UNL     1      -8.244   4.680 -34.322  1.00  0.00     0.162 HD
ENDROOT
BRANCH   1  11
HETATM   11  C   UNL     1      -5.435   3.936 -33.194  1.00  0.00     0.261 C 
HETATM   12  N   UNL     1      -4.108   3.552 -33.152  1.00  0.00    -0.323 N 
HETATM   13  H   UNL     1      -3.934   2.570 -33.344  1.00  0.00     0.169 HD
HETATM   14  O   UNL     1      -5.858   5.084 -33.134  1.00  0.00    -0.267 OA
BRANCH  12  15
HETATM   15  C   UNL     1      -2.975   4.373 -32.988  1.00  0.00     0.035 A 
HETATM   16  C   UNL     1      -2.343   4.593 -31.761  1.00  0.00     0.039 A 
HETATM   17  C   UNL     1      -1.220   5.435 -31.663  1.00  0.00    -0.028 A 
HETATM   18  C   UNL     1      -0.742   6.065 -32.819  1.00  0.00     0.010 A 
HETATM   19  C   UNL     1      -1.357   5.842 -34.049  1.00  0.00     0.003 A 
HETATM   20  C   UNL     1      -2.466   4.998 -34.133  1.00  0.00     0.029 A 
BRANCH  17  21
HETATM   21  C   UNL     1      -0.577   5.676 -30.312  1.00  0.00     0.147 C 
HETATM   22  C   UNL     1       0.458   6.789 -30.363  1.00  0.00     0.044 C 
BRANCH  21  23
HETATM   23  O   UNL     1       0.050   4.483 -29.842  1.00  0.00    -0.391 OA
HETATM   24  H   UNL     1      -0.300   4.320 -28.948  1.00  0.00     0.210 HD
ENDBRANCH  21  23
ENDBRANCH  17  21
ENDBRANCH  12  15
ENDBRANCH   1  11
BRANCH   4  25
HETATM   25  C   UNL     1      -9.870  -0.046 -32.921  1.00  0.00     0.409 C 
HETATM   26  F   UNL     1     -11.193  -0.300 -32.930  1.00  0.00    -0.169 F 
HETATM   27  F   UNL     1      -9.210  -1.207 -33.140  1.00  0.00    -0.169 F 
HETATM   28  F   UNL     1      -9.569   0.335 -31.649  1.00  0.00    -0.169 F 
ENDBRANCH   4  25
BRANCH   6  29
HETATM   29  C   UNL     1     -10.901   4.546 -34.505  1.00  0.00     0.075 A 
HETATM   30  O   UNL     1     -10.791   5.451 -33.490  1.00  0.00    -0.325 OA
HETATM   31  C   UNL     1     -11.780   6.365 -33.661  1.00  0.00     0.142 A 
HETATM   32  C   UNL     1     -12.528   6.061 -34.774  1.00  0.00     0.027 A 
HETATM   33  C   UNL     1     -11.961   4.886 -35.322  1.00  0.00     0.037 A 
ENDBRANCH   6  29
TORSDOF 6
ENDMDL
MODEL 10
REMARK VINA RESULT:      -7.9      4.327      9.498
REMARK  6 active torsions:
REMARK  status: ('A' for Active; 'I' for Inactive)
REMARK    1  A    between atoms: C_2  and  O_3 
REMARK    2  A    between atoms: C_2  and  C_4 
REMARK    3  A    between atoms: C_6  and  N_7 
REMARK       I    between atoms: N_7  and  C_8 
REMARK    4  A    between atoms: C_8  and  C_9 
REMARK    5  A    between atoms: C_12  and  C_13 
REMARK    6  A    between atoms: C_18  and  C_19 
ROOT
HETATM    1  C   UNL     1     -10.380   1.273 -33.715  1.00  0.00     0.096 C 
HETATM    2  C   UNL     1     -11.105   2.444 -33.845  1.00  0.00     0.138 C 
HETATM    3  N   UNL     1     -12.407   2.114 -33.539  1.00  0.00    -0.240 N 
HETATM    4  C   UNL     1     -13.523   3.042 -33.580  1.00  0.00     0.221 C 
HETATM    5  C   UNL     1     -13.017   4.494 -33.633  1.00  0.00     0.068 C 
HETATM    6  C   UNL     1     -11.853   4.624 -34.621  1.00  0.00     0.143 C 
HETATM    7  N   UNL     1     -10.768   3.716 -34.203  1.00  0.00    -0.363 N 
HETATM    8  N   UNL     1     -12.602   0.795 -33.399  1.00  0.00    -0.181 NA
HETATM    9  C   UNL     1     -11.367   0.289 -33.472  1.00  0.00     0.160 C 
HETATM   10  H   UNL     1      -9.954   3.829 -34.813  1.00  0.00     0.162 HD
ENDROOT
BRANCH   1  11
HETATM   11  C   UNL     1      -8.948   1.045 -33.835  1.00  0.00     0.261 C 
HETATM   12  N   UNL     1      -8.565  -0.234 -33.479  1.00  0.00    -0.323 N 
HETATM   13  H   UNL     1      -9.325  -0.873 -33.271  1.00  0.00     0.169 HD
HETATM   14  O   UNL     1      -8.214   1.929 -34.258  1.00  0.00    -0.267 OA
BRANCH  12  15
HETATM   15  C   UNL     1      -7.265  -0.779 -33.480  1.00  0.00     0.035 A 
HETATM   16  C   UNL     1      -6.285  -0.459 -32.535  1.00  0.00     0.039 A 
HETATM   17  C   UNL     1      -5.001  -1.030 -32.600  1.00  0.00    -0.028 A 
HETATM   18  C   UNL     1      -4.709  -1.926 -33.637  1.00  0.00     0.010 A 
HETATM   19  C   UNL     1      -5.682  -2.260 -34.575  1.00  0.00     0.003 A 
HETATM   20  C   UNL     1      -6.955  -1.692 -34.495  1.00  0.00     0.029 A 
BRANCH  17  21
HETATM   21  C   UNL     1      -3.953  -0.639 -31.578  1.00  0.00     0.147 C 
HETATM   22  C   UNL     1      -3.406   0.759 -31.827  1.00  0.00     0.044 C 
BRANCH  21  23
HETATM   23  O   UNL     1      -2.871  -1.569 -31.597  1.00  0.00    -0.391 OA
HETATM   24  H   UNL     1      -3.162  -2.345 -31.089  1.00  0.00     0.210 HD
ENDBRANCH  21  23
ENDBRANCH  17  21
ENDBRANCH  12  15
ENDBRANCH   1  11
BRANCH   4  25
HETATM   25  C   UNL     1     -14.443   2.868 -32.392  1.00  0.00     0.409 C 
HETATM   26  F   UNL     1     -15.394   3.818 -32.298  1.00  0.00    -0.169 F 
HETATM   27  F   UNL     1     -15.046   1.657 -32.382  1.00  0.00    -0.169 F 
HETATM   28  F   UNL     1     -13.718   2.947 -31.242  1.00  0.00    -0.169 F 
ENDBRANCH   4  25
BRANCH   6  29
HETATM   29  C   UNL     1     -11.423   6.053 -34.715  1.00  0.00     0.075 A 
HETATM   30  O   UNL     1     -10.828   6.580 -33.606  1.00  0.00    -0.325 OA
HETATM   31  C   UNL     1     -10.503   7.865 -33.901  1.00  0.00     0.142 A 
HETATM   32  C   UNL     1     -10.881   8.173 -35.187  1.00  0.00     0.027 A 
HETATM   33  C   UNL     1     -11.475   7.003 -35.716  1.00  0.00     0.037 A 
ENDBRANCH   6  29
TORSDOF 6
ENDMDL
