MODEL 1
REMARK VINA RESULT:      -9.0      0.000      0.000
REMARK  3 active torsions:
REMARK  status: ('A' for Active; 'I' for Inactive)
REMARK    1  A    between atoms: C_3  and  C_4 
REMARK       I    between atoms: C_4  and  N_5 
REMARK    2  A    between atoms: N_5  and  C_6 
REMARK    3  A    between atoms: C_13  and  C_14 
REMARK       I    between atoms: C_14  and  N_15 
ROOT
HETATM    1  C   UNL     1      -3.488   3.604 -32.320  1.00  0.00     0.036 A 
HETATM    2  C   UNL     1      -2.307   3.835 -31.602  1.00  0.00     0.046 A 
HETATM    3  C   UNL     1      -1.927   5.160 -31.291  1.00  0.00     0.030 A 
HETATM    4  C   UNL     1      -2.737   6.207 -31.712  1.00  0.00     0.063 A 
HETATM    5  N   UNL     1      -2.119   7.344 -31.272  1.00  0.00    -0.277 N 
HETATM    6  H   UNL     1      -2.430   8.300 -31.401  1.00  0.00     0.189 HD
HETATM    7  N   UNL     1      -0.978   7.132 -30.599  1.00  0.00    -0.168 NA
HETATM    8  C   UNL     1      -0.844   5.786 -30.601  1.00  0.00     0.156 A 
HETATM    9  C   UNL     1      -3.917   6.015 -32.431  1.00  0.00     0.034 A 
HETATM   10  C   UNL     1      -4.274   4.693 -32.725  1.00  0.00     0.032 A 
ENDROOT
BRANCH   1  11
HETATM   11  N   UNL     1      -3.956   2.321 -32.683  1.00  0.00    -0.322 N 
HETATM   12  C   UNL     1      -4.636   1.405 -31.900  1.00  0.00     0.273 C 
HETATM   13  O   UNL     1      -4.976   1.599 -30.738  1.00  0.00    -0.266 OA
HETATM   14  H   UNL     1      -3.815   2.061 -33.647  1.00  0.00     0.169 HD
BRANCH  12  15
HETATM   15  C   UNL     1      -4.948   0.155 -32.592  1.00  0.00     0.104 A 
HETATM   16  N   UNL     1      -4.092  -0.936 -32.667  1.00  0.00    -0.346 N 
HETATM   17  C   UNL     1      -2.790  -1.004 -32.029  1.00  0.00     0.156 C 
HETATM   18  C   UNL     1      -4.652  -1.955 -33.417  1.00  0.00     0.045 A 
HETATM   19  C   UNL     1      -5.910  -1.513 -33.826  1.00  0.00    -0.007 A 
HETATM   20  C   UNL     1      -4.167  -3.223 -33.778  1.00  0.00     0.030 A 
HETATM   21  C   UNL     1      -6.081  -0.202 -33.314  1.00  0.00     0.049 A 
HETATM   22  C   UNL     1      -6.715  -2.359 -34.615  1.00  0.00     0.014 A 
HETATM   23  C   UNL     1      -6.240  -3.624 -34.974  1.00  0.00     0.001 A 
HETATM   24  C   UNL     1      -4.982  -4.048 -34.561  1.00  0.00     0.002 A 
ENDBRANCH  12  15
ENDBRANCH   1  11
BRANCH   8  25
HETATM   25  C   UNL     1       0.302   5.136 -29.950  1.00  0.00     0.270 C 
HETATM   26  N   UNL     1       0.325   5.279 -28.589  1.00  0.00    -0.365 N 
HETATM   27  H   UNL     1      -0.420   5.801 -28.143  1.00  0.00     0.159 HD
HETATM   28  H   UNL     1       1.073   4.865 -28.056  1.00  0.00     0.159 HD
HETATM   29  O   UNL     1       1.178   4.511 -30.536  1.00  0.00    -0.266 OA
ENDBRANCH   8  25
TORSDOF 3
ENDMDL
MODEL 2
REMARK VINA RESULT:      -8.9      0.656      1.509
REMARK  3 active torsions:
REMARK  status: ('A' for Active; 'I' for Inactive)
REMARK    1  A    between atoms: C_3  and  C_4 
REMARK       I    between atoms: C_4  and  N_5 
REMARK    2  A    between atoms: N_5  and  C_6 
REMARK    3  A    between atoms: C_13  and  C_14 
REMARK       I    between atoms: C_14  and  N_15 
ROOT
HETATM    1  C   UNL     1      -3.530   3.620 -32.331  1.00  0.00     0.036 A 
HETATM    2  C   UNL     1      -2.358   3.868 -31.603  1.00  0.00     0.046 A 
HETATM    3  C   UNL     1      -2.016   5.197 -31.262  1.00  0.00     0.030 A 
HETATM    4  C   UNL     1      -2.853   6.230 -31.666  1.00  0.00     0.063 A 
HETATM    5  N   UNL     1      -2.268   7.374 -31.201  1.00  0.00    -0.277 N 
HETATM    6  H   UNL     1      -2.604   8.324 -31.311  1.00  0.00     0.189 HD
HETATM    7  N   UNL     1      -1.125   7.180 -30.526  1.00  0.00    -0.168 NA
HETATM    8  C   UNL     1      -0.954   5.838 -30.555  1.00  0.00     0.156 A 
HETATM    9  C   UNL     1      -4.024   6.021 -32.395  1.00  0.00     0.034 A 
HETATM   10  C   UNL     1      -4.343   4.696 -32.718  1.00  0.00     0.032 A 
ENDROOT
BRANCH   1  11
HETATM   11  N   UNL     1      -3.962   2.333 -32.722  1.00  0.00    -0.322 N 
HETATM   12  C   UNL     1      -4.496   1.332 -31.930  1.00  0.00     0.273 C 
HETATM   13  O   UNL     1      -4.713   1.437 -30.729  1.00  0.00    -0.266 OA
HETATM   14  H   UNL     1      -3.914   2.138 -33.710  1.00  0.00     0.169 HD
BRANCH  12  15
HETATM   15  C   UNL     1      -4.811   0.106 -32.663  1.00  0.00     0.104 A 
HETATM   16  N   UNL     1      -6.091  -0.270 -33.050  1.00  0.00    -0.346 N 
HETATM   17  C   UNL     1      -7.285   0.524 -32.821  1.00  0.00     0.156 C 
HETATM   18  C   UNL     1      -6.074  -1.494 -33.695  1.00  0.00     0.045 A 
HETATM   19  C   UNL     1      -4.744  -1.911 -33.738  1.00  0.00    -0.007 A 
HETATM   20  C   UNL     1      -7.106  -2.275 -34.242  1.00  0.00     0.030 A 
HETATM   21  C   UNL     1      -3.971  -0.915 -33.090  1.00  0.00     0.049 A 
HETATM   22  C   UNL     1      -4.427  -3.142 -34.347  1.00  0.00     0.014 A 
HETATM   23  C   UNL     1      -5.448  -3.922 -34.897  1.00  0.00     0.001 A 
HETATM   24  C   UNL     1      -6.769  -3.493 -34.843  1.00  0.00     0.002 A 
ENDBRANCH  12  15
ENDBRANCH   1  11
BRANCH   8  25
HETATM   25  C   UNL     1       0.206   5.206 -29.912  1.00  0.00     0.270 C 
HETATM   26  N   UNL     1       0.256   5.380 -28.555  1.00  0.00    -0.365 N 
HETATM   27  H   UNL     1      -0.482   5.911 -28.107  1.00  0.00     0.159 HD
HETATM   28  H   UNL     1       1.015   4.981 -28.028  1.00  0.00     0.159 HD
HETATM   29  O   UNL     1       1.073   4.570 -30.500  1.00  0.00    -0.266 OA
ENDBRANCH   8  25
TORSDOF 3
ENDMDL
MODEL 3
REMARK VINA RESULT:      -8.8      5.600      8.237
REMARK  3 active torsions:
REMARK  status: ('A' for Active; 'I' for Inactive)
REMARK    1  A    between atoms: C_3  and  C_4 
REMARK       I    between atoms: C_4  and  N_5 
REMARK    2  A    between atoms: N_5  and  C_6 
REMARK    3  A    between atoms: C_13  and  C_14 
REMARK       I    between atoms: C_14  and  N_15 
ROOT
HETATM    1  C   UNL     1      -9.334   1.251 -33.428  1.00  0.00     0.036 A 
HETATM    2  C   UNL     1     -10.722   1.113 -33.571  1.00  0.00     0.046 A 
HETATM    3  C   UNL     1     -11.557   2.240 -33.402  1.00  0.00     0.030 A 
HETATM    4  C   UNL     1     -10.977   3.464 -33.091  1.00  0.00     0.063 A 
HETATM    5  N   UNL     1     -12.018   4.344 -32.990  1.00  0.00    -0.277 N 
HETATM    6  H   UNL     1     -11.967   5.333 -32.773  1.00  0.00     0.189 HD
HETATM    7  N   UNL     1     -13.227   3.804 -33.209  1.00  0.00    -0.168 NA
HETATM    8  C   UNL     1     -12.959   2.502 -33.465  1.00  0.00     0.156 A 
HETATM    9  C   UNL     1      -9.602   3.639 -32.938  1.00  0.00     0.034 A 
HETATM   10  C   UNL     1      -8.795   2.507 -33.113  1.00  0.00     0.032 A 
ENDROOT
BRANCH   1  11
HETATM   11  N   UNL     1      -8.414   0.190 -33.575  1.00  0.00    -0.322 N 
HETATM   12  C   UNL     1      -7.470   0.007 -34.571  1.00  0.00     0.273 C 
HETATM   13  O   UNL     1      -7.265   0.794 -35.488  1.00  0.00    -0.266 OA
HETATM   14  H   UNL     1      -8.416  -0.496 -32.837  1.00  0.00     0.169 HD
BRANCH  12  15
HETATM   15  C   UNL     1      -6.695  -1.226 -34.429  1.00  0.00     0.104 A 
HETATM   16  N   UNL     1      -5.448  -1.303 -33.822  1.00  0.00    -0.346 N 
HETATM   17  C   UNL     1      -4.763  -0.181 -33.206  1.00  0.00     0.156 C 
HETATM   18  C   UNL     1      -4.953  -2.595 -33.872  1.00  0.00     0.045 A 
HETATM   19  C   UNL     1      -5.914  -3.373 -34.515  1.00  0.00    -0.007 A 
HETATM   20  C   UNL     1      -3.746  -3.149 -33.413  1.00  0.00     0.030 A 
HETATM   21  C   UNL     1      -6.987  -2.513 -34.861  1.00  0.00     0.049 A 
HETATM   22  C   UNL     1      -5.672  -4.748 -34.707  1.00  0.00     0.014 A 
HETATM   23  C   UNL     1      -4.476  -5.308 -34.249  1.00  0.00     0.001 A 
HETATM   24  C   UNL     1      -3.526  -4.517 -33.612  1.00  0.00     0.002 A 
ENDBRANCH  12  15
ENDBRANCH   1  11
BRANCH   8  25
HETATM   25  C   UNL     1     -14.038   1.550 -33.763  1.00  0.00     0.270 C 
HETATM   26  N   UNL     1     -14.839   1.259 -32.691  1.00  0.00    -0.365 N 
HETATM   27  H   UNL     1     -14.639   1.703 -31.803  1.00  0.00     0.159 HD
HETATM   28  H   UNL     1     -15.606   0.617 -32.802  1.00  0.00     0.159 HD
HETATM   29  O   UNL     1     -14.240   1.042 -34.860  1.00  0.00    -0.266 OA
ENDBRANCH   8  25
TORSDOF 3
ENDMDL
MODEL 4
REMARK VINA RESULT:      -8.4      3.893      4.331
REMARK  3 active torsions:
REMARK  status: ('A' for Active; 'I' for Inactive)
REMARK    1  A    between atoms: C_3  and  C_4 
REMARK       I    between atoms: C_4  and  N_5 
REMARK    2  A    between atoms: N_5  and  C_6 
REMARK    3  A    between atoms: C_13  and  C_14 
REMARK       I    between atoms: C_14  and  N_15 
ROOT
HETATM    1  C   UNL     1      -7.533   3.237 -30.665  1.00  0.00     0.036 A 
HETATM    2  C   UNL     1      -6.660   3.951 -29.833  1.00  0.00     0.046 A 
HETATM    3  C   UNL     1      -7.132   5.088 -29.138  1.00  0.00     0.030 A 
HETATM    4  C   UNL     1      -8.455   5.475 -29.305  1.00  0.00     0.063 A 
HETATM    5  N   UNL     1      -8.610   6.586 -28.524  1.00  0.00    -0.277 N 
HETATM    6  H   UNL     1      -9.452   7.138 -28.402  1.00  0.00     0.189 HD
HETATM    7  N   UNL     1      -7.505   6.958 -27.860  1.00  0.00    -0.168 NA
HETATM    8  C   UNL     1      -6.580   6.042 -28.230  1.00  0.00     0.156 A 
HETATM    9  C   UNL     1      -9.351   4.792 -30.128  1.00  0.00     0.034 A 
HETATM   10  C   UNL     1      -8.861   3.667 -30.803  1.00  0.00     0.032 A 
ENDROOT
BRANCH   1  11
HETATM   11  N   UNL     1      -7.163   2.091 -31.403  1.00  0.00    -0.322 N 
HETATM   12  C   UNL     1      -6.830   2.005 -32.743  1.00  0.00     0.273 C 
HETATM   13  O   UNL     1      -6.770   2.962 -33.507  1.00  0.00    -0.266 OA
HETATM   14  H   UNL     1      -7.091   1.235 -30.874  1.00  0.00     0.169 HD
BRANCH  12  15
HETATM   15  C   UNL     1      -6.523   0.646 -33.189  1.00  0.00     0.104 A 
HETATM   16  N   UNL     1      -5.268   0.057 -33.104  1.00  0.00    -0.346 N 
HETATM   17  C   UNL     1      -4.100   0.692 -32.519  1.00  0.00     0.156 C 
HETATM   18  C   UNL     1      -5.283  -1.220 -33.637  1.00  0.00     0.045 A 
HETATM   19  C   UNL     1      -6.588  -1.465 -34.064  1.00  0.00    -0.007 A 
HETATM   20  C   UNL     1      -4.269  -2.181 -33.786  1.00  0.00     0.030 A 
HETATM   21  C   UNL     1      -7.346  -0.300 -33.787  1.00  0.00     0.049 A 
HETATM   22  C   UNL     1      -6.897  -2.706 -34.656  1.00  0.00     0.014 A 
HETATM   23  C   UNL     1      -5.894  -3.669 -34.803  1.00  0.00     0.001 A 
HETATM   24  C   UNL     1      -4.598  -3.407 -34.375  1.00  0.00     0.002 A 
ENDBRANCH  12  15
ENDBRANCH   1  11
BRANCH   8  25
HETATM   25  C   UNL     1      -5.207   6.097 -27.709  1.00  0.00     0.270 C 
HETATM   26  N   UNL     1      -4.963   5.221 -26.685  1.00  0.00    -0.365 N 
HETATM   27  H   UNL     1      -5.715   4.621 -26.371  1.00  0.00     0.159 HD
HETATM   28  H   UNL     1      -4.048   5.187 -26.266  1.00  0.00     0.159 HD
HETATM   29  O   UNL     1      -4.329   6.843 -28.127  1.00  0.00    -0.266 OA
ENDBRANCH   8  25
TORSDOF 3
ENDMDL
MODEL 5
REMARK VINA RESULT:      -8.3      4.935      9.304
REMARK  3 active torsions:
REMARK  status: ('A' for Active; 'I' for Inactive)
REMARK    1  A    between atoms: C_3  and  C_4 
REMARK       I    between atoms: C_4  and  N_5 
REMARK    2  A    between atoms: N_5  and  C_6 
REMARK    3  A    between atoms: C_13  and  C_14 
REMARK       I    between atoms: C_14  and  N_15 
ROOT
HETATM    1  C   UNL     1      -8.483   1.856 -33.428  1.00  0.00     0.036 A 
HETATM    2  C   UNL     1      -9.635   2.290 -34.099  1.00  0.00     0.046 A 
HETATM    3  C   UNL     1     -10.832   1.547 -33.982  1.00  0.00     0.030 A 
HETATM    4  C   UNL     1     -10.834   0.396 -33.205  1.00  0.00     0.063 A 
HETATM    5  N   UNL     1     -12.107  -0.094 -33.286  1.00  0.00    -0.277 N 
HETATM    6  H   UNL     1     -12.473  -0.929 -32.842  1.00  0.00     0.189 HD
HETATM    7  N   UNL     1     -12.938   0.636 -34.046  1.00  0.00    -0.168 NA
HETATM    8  C   UNL     1     -12.164   1.656 -34.485  1.00  0.00     0.156 A 
HETATM    9  C   UNL     1      -9.707  -0.068 -32.526  1.00  0.00     0.034 A 
HETATM   10  C   UNL     1      -8.534   0.687 -32.655  1.00  0.00     0.032 A 
ENDROOT
BRANCH   1  11
HETATM   11  N   UNL     1      -7.239   2.522 -33.479  1.00  0.00    -0.322 N 
HETATM   12  C   UNL     1      -6.891   3.732 -32.902  1.00  0.00     0.273 C 
HETATM   13  O   UNL     1      -7.636   4.409 -32.204  1.00  0.00    -0.266 OA
HETATM   14  H   UNL     1      -6.500   2.032 -33.959  1.00  0.00     0.169 HD
BRANCH  12  15
HETATM   15  C   UNL     1      -5.515   4.143 -33.181  1.00  0.00     0.104 A 
HETATM   16  N   UNL     1      -4.470   4.054 -32.270  1.00  0.00    -0.346 N 
HETATM   17  C   UNL     1      -4.589   3.497 -30.935  1.00  0.00     0.156 C 
HETATM   18  C   UNL     1      -3.298   4.552 -32.812  1.00  0.00     0.045 A 
HETATM   19  C   UNL     1      -3.593   4.960 -34.112  1.00  0.00    -0.007 A 
HETATM   20  C   UNL     1      -2.005   4.684 -32.277  1.00  0.00     0.030 A 
HETATM   21  C   UNL     1      -4.972   4.707 -34.328  1.00  0.00     0.049 A 
HETATM   22  C   UNL     1      -2.572   5.515 -34.910  1.00  0.00     0.014 A 
HETATM   23  C   UNL     1      -1.283   5.646 -34.385  1.00  0.00     0.001 A 
HETATM   24  C   UNL     1      -1.006   5.236 -33.086  1.00  0.00     0.002 A 
ENDBRANCH  12  15
ENDBRANCH   1  11
BRANCH   8  25
HETATM   25  C   UNL     1     -12.711   2.700 -35.363  1.00  0.00     0.270 C 
HETATM   26  N   UNL     1     -13.386   3.689 -34.700  1.00  0.00    -0.365 N 
HETATM   27  H   UNL     1     -13.459   3.634 -33.691  1.00  0.00     0.159 HD
HETATM   28  H   UNL     1     -13.795   4.449 -35.220  1.00  0.00     0.159 HD
HETATM   29  O   UNL     1     -12.592   2.721 -36.583  1.00  0.00    -0.266 OA
ENDBRANCH   8  25
TORSDOF 3
ENDMDL
MODEL 6
REMARK VINA RESULT:      -8.3      5.673      9.135
REMARK  3 active torsions:
REMARK  status: ('A' for Active; 'I' for Inactive)
REMARK    1  A    between atoms: C_3  and  C_4 
REMARK       I    between atoms: C_4  and  N_5 
REMARK    2  A    between atoms: N_5  and  C_6 
REMARK    3  A    between atoms: C_13  and  C_14 
REMARK       I    between atoms: C_14  and  N_15 
ROOT
HETATM    1  C   UNL     1      -7.834  -0.150 -33.421  1.00  0.00     0.036 A 
HETATM    2  C   UNL     1      -7.465  -1.415 -33.897  1.00  0.00     0.046 A 
HETATM    3  C   UNL     1      -6.099  -1.779 -33.925  1.00  0.00     0.030 A 
HETATM    4  C   UNL     1      -5.152  -0.865 -33.482  1.00  0.00     0.063 A 
HETATM    5  N   UNL     1      -3.946  -1.491 -33.630  1.00  0.00    -0.277 N 
HETATM    6  H   UNL     1      -3.030  -1.118 -33.406  1.00  0.00     0.189 HD
HETATM    7  N   UNL     1      -4.021  -2.734 -34.128  1.00  0.00    -0.168 NA
HETATM    8  C   UNL     1      -5.348  -2.928 -34.317  1.00  0.00     0.156 A 
HETATM    9  C   UNL     1      -5.482   0.404 -33.006  1.00  0.00     0.034 A 
HETATM   10  C   UNL     1      -6.842   0.740 -32.985  1.00  0.00     0.032 A 
ENDROOT
BRANCH   1  11
HETATM   11  N   UNL     1      -9.167   0.312 -33.353  1.00  0.00    -0.322 N 
HETATM   12  C   UNL     1      -9.718   1.430 -33.955  1.00  0.00     0.273 C 
HETATM   13  O   UNL     1      -9.109   2.192 -34.695  1.00  0.00    -0.266 OA
HETATM   14  H   UNL     1      -9.806  -0.272 -32.835  1.00  0.00     0.169 HD
BRANCH  12  15
HETATM   15  C   UNL     1     -11.135   1.627 -33.647  1.00  0.00     0.104 A 
HETATM   16  N   UNL     1     -11.634   2.672 -32.880  1.00  0.00    -0.346 N 
HETATM   17  C   UNL     1     -10.824   3.737 -32.317  1.00  0.00     0.156 C 
HETATM   18  C   UNL     1     -13.007   2.569 -32.737  1.00  0.00     0.045 A 
HETATM   19  C   UNL     1     -13.404   1.434 -33.443  1.00  0.00    -0.007 A 
HETATM   20  C   UNL     1     -13.935   3.368 -32.047  1.00  0.00     0.030 A 
HETATM   21  C   UNL     1     -12.235   0.855 -33.998  1.00  0.00     0.049 A 
HETATM   22  C   UNL     1     -14.769   1.082 -33.470  1.00  0.00     0.014 A 
HETATM   23  C   UNL     1     -15.698   1.875 -32.790  1.00  0.00     0.001 A 
HETATM   24  C   UNL     1     -15.285   3.001 -32.088  1.00  0.00     0.002 A 
ENDBRANCH  12  15
ENDBRANCH   1  11
BRANCH   8  25
HETATM   25  C   UNL     1      -5.859  -4.195 -34.859  1.00  0.00     0.270 C 
HETATM   26  N   UNL     1      -5.044  -5.271 -34.629  1.00  0.00    -0.365 N 
HETATM   27  H   UNL     1      -4.180  -5.124 -34.121  1.00  0.00     0.159 HD
HETATM   28  H   UNL     1      -5.315  -6.181 -34.962  1.00  0.00     0.159 HD
HETATM   29  O   UNL     1      -6.917  -4.320 -35.466  1.00  0.00    -0.266 OA
ENDBRANCH   8  25
TORSDOF 3
ENDMDL
MODEL 7
REMARK VINA RESULT:      -8.2      1.279      1.659
REMARK  3 active torsions:
REMARK  status: ('A' for Active; 'I' for Inactive)
REMARK    1  A    between atoms: C_3  and  C_4 
REMARK       I    between atoms: C_4  and  N_5 
REMARK    2  A    between atoms: N_5  and  C_6 
REMARK    3  A    between atoms: C_13  and  C_14 
REMARK       I    between atoms: C_14  and  N_15 
ROOT
HETATM    1  C   UNL     1      -4.873   3.114 -32.774  1.00  0.00     0.036 A 
HETATM    2  C   UNL     1      -3.628   3.672 -32.455  1.00  0.00     0.046 A 
HETATM    3  C   UNL     1      -3.536   5.052 -32.160  1.00  0.00     0.030 A 
HETATM    4  C   UNL     1      -4.689   5.825 -32.201  1.00  0.00     0.063 A 
HETATM    5  N   UNL     1      -4.289   7.091 -31.879  1.00  0.00    -0.277 N 
HETATM    6  H   UNL     1      -4.869   7.920 -31.813  1.00  0.00     0.189 HD
HETATM    7  N   UNL     1      -2.976   7.214 -31.630  1.00  0.00    -0.168 NA
HETATM    8  C   UNL     1      -2.495   5.961 -31.800  1.00  0.00     0.156 A 
HETATM    9  C   UNL     1      -5.944   5.305 -32.519  1.00  0.00     0.034 A 
HETATM   10  C   UNL     1      -6.010   3.935 -32.804  1.00  0.00     0.032 A 
ENDROOT
BRANCH   1  11
HETATM   11  N   UNL     1      -5.074   1.751 -33.085  1.00  0.00    -0.322 N 
HETATM   12  C   UNL     1      -5.479   0.731 -32.241  1.00  0.00     0.273 C 
HETATM   13  O   UNL     1      -5.770   0.880 -31.060  1.00  0.00    -0.266 OA
HETATM   14  H   UNL     1      -4.947   1.500 -34.053  1.00  0.00     0.169 HD
BRANCH  12  15
HETATM   15  C   UNL     1      -5.558  -0.576 -32.893  1.00  0.00     0.104 A 
HETATM   16  N   UNL     1      -4.532  -1.512 -32.900  1.00  0.00    -0.346 N 
HETATM   17  C   UNL     1      -3.259  -1.342 -32.223  1.00  0.00     0.156 C 
HETATM   18  C   UNL     1      -4.892  -2.635 -33.625  1.00  0.00     0.045 A 
HETATM   19  C   UNL     1      -6.190  -2.421 -34.086  1.00  0.00    -0.007 A 
HETATM   20  C   UNL     1      -4.193  -3.817 -33.922  1.00  0.00     0.030 A 
HETATM   21  C   UNL     1      -6.591  -1.139 -33.631  1.00  0.00     0.049 A 
HETATM   22  C   UNL     1      -6.818  -3.415 -34.864  1.00  0.00     0.014 A 
HETATM   23  C   UNL     1      -6.130  -4.595 -35.159  1.00  0.00     0.001 A 
HETATM   24  C   UNL     1      -4.835  -4.791 -34.694  1.00  0.00     0.002 A 
ENDBRANCH  12  15
ENDBRANCH   1  11
BRANCH   8  25
HETATM   25  C   UNL     1      -1.068   5.664 -31.613  1.00  0.00     0.270 C 
HETATM   26  N   UNL     1      -0.243   6.736 -31.822  1.00  0.00    -0.365 N 
HETATM   27  H   UNL     1      -0.657   7.623 -32.081  1.00  0.00     0.159 HD
HETATM   28  H   UNL     1       0.753   6.627 -31.715  1.00  0.00     0.159 HD
HETATM   29  O   UNL     1      -0.616   4.569 -31.295  1.00  0.00    -0.266 OA
ENDBRANCH   8  25
TORSDOF 3
ENDMDL
MODEL 8
REMARK VINA RESULT:      -8.1      1.904      2.693
REMARK  3 active torsions:
REMARK  status: ('A' for Active; 'I' for Inactive)
REMARK    1  A    between atoms: C_3  and  C_4 
REMARK       I    between atoms: C_4  and  N_5 
REMARK    2  A    between atoms: N_5  and  C_6 
REMARK    3  A    between atoms: C_13  and  C_14 
REMARK       I    between atoms: C_14  and  N_15 
ROOT
HETATM    1  C   UNL     1      -3.018   3.971 -32.335  1.00  0.00     0.036 A 
HETATM    2  C   UNL     1      -3.483   4.729 -31.251  1.00  0.00     0.046 A 
HETATM    3  C   UNL     1      -2.886   5.978 -30.966  1.00  0.00     0.030 A 
HETATM    4  C   UNL     1      -1.844   6.423 -31.769  1.00  0.00     0.063 A 
HETATM    5  N   UNL     1      -1.480   7.635 -31.254  1.00  0.00    -0.277 N 
HETATM    6  H   UNL     1      -0.747   8.250 -31.590  1.00  0.00     0.189 HD
HETATM    7  N   UNL     1      -2.194   8.023 -30.186  1.00  0.00    -0.168 NA
HETATM    8  C   UNL     1      -3.069   7.009 -29.994  1.00  0.00     0.156 A 
HETATM    9  C   UNL     1      -1.353   5.694 -32.853  1.00  0.00     0.034 A 
HETATM   10  C   UNL     1      -1.962   4.461 -33.117  1.00  0.00     0.032 A 
ENDROOT
BRANCH   1  11
HETATM   11  N   UNL     1      -3.543   2.713 -32.704  1.00  0.00    -0.322 N 
HETATM   12  C   UNL     1      -3.446   1.511 -32.023  1.00  0.00     0.273 C 
HETATM   13  O   UNL     1      -2.897   1.370 -30.937  1.00  0.00    -0.266 OA
HETATM   14  H   UNL     1      -4.095   2.700 -33.548  1.00  0.00     0.169 HD
BRANCH  12  15
HETATM   15  C   UNL     1      -4.088   0.391 -32.711  1.00  0.00     0.104 A 
HETATM   16  N   UNL     1      -5.462   0.242 -32.856  1.00  0.00    -0.346 N 
HETATM   17  C   UNL     1      -6.446   1.200 -32.385  1.00  0.00     0.156 C 
HETATM   18  C   UNL     1      -5.765  -0.933 -33.520  1.00  0.00     0.045 A 
HETATM   19  C   UNL     1      -4.553  -1.551 -33.825  1.00  0.00    -0.007 A 
HETATM   20  C   UNL     1      -6.994  -1.512 -33.879  1.00  0.00     0.030 A 
HETATM   21  C   UNL     1      -3.520  -0.724 -33.313  1.00  0.00     0.049 A 
HETATM   22  C   UNL     1      -4.560  -2.782 -34.511  1.00  0.00     0.014 A 
HETATM   23  C   UNL     1      -5.779  -3.361 -34.874  1.00  0.00     0.001 A 
HETATM   24  C   UNL     1      -6.979  -2.733 -34.560  1.00  0.00     0.002 A 
ENDBRANCH  12  15
ENDBRANCH   1  11
BRANCH   8  25
HETATM   25  C   UNL     1      -4.049   7.049 -28.900  1.00  0.00     0.270 C 
HETATM   26  N   UNL     1      -3.506   7.321 -27.674  1.00  0.00    -0.365 N 
HETATM   27  H   UNL     1      -2.507   7.470 -27.608  1.00  0.00     0.159 HD
HETATM   28  H   UNL     1      -4.103   7.370 -26.864  1.00  0.00     0.159 HD
HETATM   29  O   UNL     1      -5.254   6.863 -29.033  1.00  0.00    -0.266 OA
ENDBRANCH   8  25
TORSDOF 3
ENDMDL
MODEL 9
REMARK VINA RESULT:      -8.0      2.479      8.929
REMARK  3 active torsions:
REMARK  status: ('A' for Active; 'I' for Inactive)
REMARK    1  A    between atoms: C_3  and  C_4 
REMARK       I    between atoms: C_4  and  N_5 
REMARK    2  A    between atoms: N_5  and  C_6 
REMARK    3  A    between atoms: C_13  and  C_14 
REMARK       I    between atoms: C_14  and  N_15 
ROOT
HETATM    1  C   UNL     1      -4.073   1.958 -31.862  1.00  0.00     0.036 A 
HETATM    2  C   UNL     1      -5.473   1.907 -31.927  1.00  0.00     0.046 A 
HETATM    3  C   UNL     1      -6.105   0.760 -32.459  1.00  0.00     0.030 A 
HETATM    4  C   UNL     1      -5.318  -0.290 -32.913  1.00  0.00     0.063 A 
HETATM    5  N   UNL     1      -6.197  -1.235 -33.364  1.00  0.00    -0.277 N 
HETATM    6  H   UNL     1      -5.975  -2.138 -33.766  1.00  0.00     0.189 HD
HETATM    7  N   UNL     1      -7.490  -0.895 -33.242  1.00  0.00    -0.168 NA
HETATM    8  C   UNL     1      -7.450   0.338 -32.685  1.00  0.00     0.156 A 
HETATM    9  C   UNL     1      -3.924  -0.273 -32.868  1.00  0.00     0.034 A 
HETATM   10  C   UNL     1      -3.320   0.873 -32.333  1.00  0.00     0.032 A 
ENDROOT
BRANCH   1  11
HETATM   11  N   UNL     1      -3.344   3.055 -31.351  1.00  0.00    -0.322 N 
HETATM   12  C   UNL     1      -2.682   4.046 -32.054  1.00  0.00     0.273 C 
HETATM   13  O   UNL     1      -2.664   4.138 -33.276  1.00  0.00    -0.266 OA
HETATM   14  H   UNL     1      -3.344   3.149 -30.347  1.00  0.00     0.169 HD
BRANCH  12  15
HETATM   15  C   UNL     1      -2.002   5.020 -31.201  1.00  0.00     0.104 A 
HETATM   16  N   UNL     1      -2.607   6.147 -30.660  1.00  0.00    -0.346 N 
HETATM   17  C   UNL     1      -4.007   6.490 -30.830  1.00  0.00     0.156 C 
HETATM   18  C   UNL     1      -1.699   6.892 -29.927  1.00  0.00     0.045 A 
HETATM   19  C   UNL     1      -0.480   6.218 -29.986  1.00  0.00    -0.007 A 
HETATM   20  C   UNL     1      -1.838   8.099 -29.221  1.00  0.00     0.030 A 
HETATM   21  C   UNL     1      -0.678   5.062 -30.782  1.00  0.00     0.049 A 
HETATM   22  C   UNL     1       0.638   6.757 -29.318  1.00  0.00     0.014 A 
HETATM   23  C   UNL     1       0.507   7.955 -28.610  1.00  0.00     0.001 A 
HETATM   24  C   UNL     1      -0.715   8.616 -28.565  1.00  0.00     0.002 A 
ENDBRANCH  12  15
ENDBRANCH   1  11
BRANCH   8  25
HETATM   25  C   UNL     1      -8.686   1.073 -32.382  1.00  0.00     0.270 C 
HETATM   26  N   UNL     1      -9.315   0.661 -31.238  1.00  0.00    -0.365 N 
HETATM   27  H   UNL     1      -8.901  -0.092 -30.702  1.00  0.00     0.159 HD
HETATM   28  H   UNL     1     -10.169   1.109 -30.949  1.00  0.00     0.159 HD
HETATM   29  O   UNL     1      -9.145   1.982 -33.064  1.00  0.00    -0.266 OA
ENDBRANCH   8  25
TORSDOF 3
ENDMDL
MODEL 10
REMARK VINA RESULT:      -7.9      4.488      5.687
REMARK  3 active torsions:
REMARK  status: ('A' for Active; 'I' for Inactive)
REMARK    1  A    between atoms: C_3  and  C_4 
REMARK       I    between atoms: C_4  and  N_5 
REMARK    2  A    between atoms: N_5  and  C_6 
REMARK    3  A    between atoms: C_13  and  C_14 
REMARK       I    between atoms: C_14  and  N_15 
ROOT
HETATM    1  C   UNL     1      -6.060   3.049 -32.456  1.00  0.00     0.036 A 
HETATM    2  C   UNL     1      -5.128   3.658 -33.308  1.00  0.00     0.046 A 
HETATM    3  C   UNL     1      -3.831   3.951 -32.828  1.00  0.00     0.030 A 
HETATM    4  C   UNL     1      -3.513   3.631 -31.514  1.00  0.00     0.063 A 
HETATM    5  N   UNL     1      -2.217   4.029 -31.346  1.00  0.00    -0.277 N 
HETATM    6  H   UNL     1      -1.655   3.950 -30.506  1.00  0.00     0.189 HD
HETATM    7  N   UNL     1      -1.658   4.579 -32.435  1.00  0.00    -0.168 NA
HETATM    8  C   UNL     1      -2.644   4.539 -33.361  1.00  0.00     0.156 A 
HETATM    9  C   UNL     1      -4.416   3.028 -30.637  1.00  0.00     0.034 A 
HETATM   10  C   UNL     1      -5.694   2.745 -31.137  1.00  0.00     0.032 A 
ENDROOT
BRANCH   1  11
HETATM   11  N   UNL     1      -7.379   2.716 -32.835  1.00  0.00    -0.322 N 
HETATM   12  C   UNL     1      -7.793   1.943 -33.906  1.00  0.00     0.273 C 
HETATM   13  O   UNL     1      -7.038   1.382 -34.692  1.00  0.00    -0.266 OA
HETATM   14  H   UNL     1      -8.107   3.048 -32.222  1.00  0.00     0.169 HD
BRANCH  12  15
HETATM   15  C   UNL     1      -9.247   1.824 -34.020  1.00  0.00     0.104 A 
HETATM   16  N   UNL     1      -9.992   0.779 -33.490  1.00  0.00    -0.346 N 
HETATM   17  C   UNL     1      -9.438  -0.314 -32.711  1.00  0.00     0.156 C 
HETATM   18  C   UNL     1     -11.335   0.926 -33.791  1.00  0.00     0.045 A 
HETATM   19  C   UNL     1     -11.459   2.107 -34.522  1.00  0.00    -0.007 A 
HETATM   20  C   UNL     1     -12.452   0.128 -33.490  1.00  0.00     0.030 A 
HETATM   21  C   UNL     1     -10.158   2.652 -34.663  1.00  0.00     0.049 A 
HETATM   22  C   UNL     1     -12.734   2.512 -34.967  1.00  0.00     0.014 A 
HETATM   23  C   UNL     1     -13.850   1.725 -34.668  1.00  0.00     0.001 A 
HETATM   24  C   UNL     1     -13.708   0.549 -33.940  1.00  0.00     0.002 A 
ENDBRANCH  12  15
ENDBRANCH   1  11
BRANCH   8  25
HETATM   25  C   UNL     1      -2.429   5.055 -34.720  1.00  0.00     0.270 C 
HETATM   26  N   UNL     1      -3.572   5.481 -35.342  1.00  0.00    -0.365 N 
HETATM   27  H   UNL     1      -4.450   5.413 -34.842  1.00  0.00     0.159 HD
HETATM   28  H   UNL     1      -3.522   5.853 -36.277  1.00  0.00     0.159 HD
HETATM   29  O   UNL     1      -1.341   5.119 -35.281  1.00  0.00    -0.266 OA
ENDBRANCH   8  25
TORSDOF 3
ENDMDL
