MODEL 1
REMARK VINA RESULT:      -8.2      0.000      0.000
REMARK  7 active torsions:
REMARK  status: ('A' for Active; 'I' for Inactive)
REMARK       I    between atoms: N_2  and  C_3 
REMARK    1  A    between atoms: N_2  and  C_17 
REMARK       I    between atoms: C_3  and  N_4 
REMARK    2  A    between atoms: N_4  and  C_5 
REMARK    3  A    between atoms: N_6  and  C_7 
REMARK    4  A    between atoms: C_17  and  C_18 
REMARK    5  A    between atoms: C_18  and  C_19 
REMARK    6  A    between atoms: C_19  and  O_20 
REMARK    7  A    between atoms: C_19  and  C_21 
ROOT
HETATM    1  C   UNL     1      -2.970   3.484 -32.604  1.00  0.00     0.154 C 
HETATM    2  N   UNL     1      -3.850   2.705 -31.746  1.00  0.00    -0.343 N 
HETATM    3  C   UNL     1      -5.208   3.038 -31.759  1.00  0.00     0.301 C 
HETATM    4  N   UNL     1      -5.977   2.317 -30.855  1.00  0.00    -0.194 NA
HETATM    5  O   UNL     1      -5.646   3.921 -32.495  1.00  0.00    -0.254 OA
HETATM    6  H   UNL     1      -5.494   2.280 -29.964  1.00  0.00     0.140 HD
ENDROOT
BRANCH   2   7
HETATM    7  C   UNL     1      -3.337   1.421 -31.266  1.00  0.00     0.129 C 
BRANCH   7   8
HETATM    8  C   UNL     1      -3.377   0.292 -32.305  1.00  0.00     0.056 C 
BRANCH   8   9
HETATM    9  C   UNL     1      -3.177  -1.131 -31.757  1.00  0.00     0.152 C 
BRANCH   9  10
HETATM   10  O   UNL     1      -1.793  -1.293 -31.429  1.00  0.00    -0.391 OA
HETATM   11  H   UNL     1      -1.351  -1.660 -32.215  1.00  0.00     0.210 HD
ENDBRANCH   9  10
BRANCH   9  12
HETATM   12  C   UNL     1      -3.617  -2.317 -32.596  1.00  0.00    -0.030 A 
HETATM   13  C   UNL     1      -4.440  -2.096 -33.718  1.00  0.00     0.010 A 
HETATM   14  C   UNL     1      -4.840  -3.147 -34.545  1.00  0.00     0.001 A 
HETATM   15  C   UNL     1      -4.422  -4.443 -34.269  1.00  0.00     0.000 A 
HETATM   16  C   UNL     1      -3.594  -4.683 -33.176  1.00  0.00     0.001 A 
HETATM   17  C   UNL     1      -3.184  -3.628 -32.355  1.00  0.00     0.010 A 
ENDBRANCH   9  12
ENDBRANCH   8   9
ENDBRANCH   7   8
ENDBRANCH   2   7
BRANCH   4  18
HETATM   18  C   UNL     1      -7.314   2.675 -30.749  1.00  0.00     0.109 A 
HETATM   19  N   UNL     1      -8.376   2.004 -31.329  1.00  0.00    -0.254 N 
HETATM   20  N   UNL     1      -9.555   2.638 -31.101  1.00  0.00    -0.183 NA
HETATM   21  C   UNL     1      -9.230   3.664 -30.316  1.00  0.00     0.142 A 
HETATM   22  C   UNL     1      -7.859   3.708 -30.025  1.00  0.00     0.065 A 
BRANCH  19  23
HETATM   23  C   UNL     1      -8.373   0.622 -31.823  1.00  0.00     0.111 C 
HETATM   24  C   UNL     1      -9.604   0.255 -32.686  1.00  0.00     0.027 C 
HETATM   25  C   UNL     1      -9.510   0.719 -34.144  1.00  0.00     0.002 C 
HETATM   26  C   UNL     1      -8.189   0.323 -34.795  1.00  0.00     0.000 C 
HETATM   27  C   UNL     1      -6.995   0.770 -33.963  1.00  0.00     0.002 C 
HETATM   28  C   UNL     1      -7.079   0.221 -32.543  1.00  0.00     0.027 C 
ENDBRANCH  19  23
ENDBRANCH   4  18
TORSDOF 7
ENDMDL
MODEL 2
REMARK VINA RESULT:      -8.1      2.978      6.432
REMARK  7 active torsions:
REMARK  status: ('A' for Active; 'I' for Inactive)
REMARK       I    between atoms: N_2  and  C_3 
REMARK    1  A    between atoms: N_2  and  C_17 
REMARK       I    between atoms: C_3  and  N_4 
REMARK    2  A    between atoms: N_4  and  C_5 
REMARK    3  A    between atoms: N_6  and  C_7 
REMARK    4  A    between atoms: C_17  and  C_18 
REMARK    5  A    between atoms: C_18  and  C_19 
REMARK    6  A    between atoms: C_19  and  O_20 
REMARK    7  A    between atoms: C_19  and  C_21 
ROOT
HETATM    1  C   UNL     1      -6.715   2.881 -32.362  1.00  0.00     0.154 C 
HETATM    2  N   UNL     1      -5.293   2.659 -32.582  1.00  0.00    -0.343 N 
HETATM    3  C   UNL     1      -4.506   3.789 -32.824  1.00  0.00     0.301 C 
HETATM    4  N   UNL     1      -3.178   3.501 -33.112  1.00  0.00    -0.194 NA
HETATM    5  O   UNL     1      -4.983   4.922 -32.808  1.00  0.00    -0.254 OA
HETATM    6  H   UNL     1      -3.140   2.732 -33.772  1.00  0.00     0.140 HD
ENDROOT
BRANCH   2   7
HETATM    7  C   UNL     1      -4.751   1.372 -32.147  1.00  0.00     0.129 C 
BRANCH   7   8
HETATM    8  C   UNL     1      -5.635   0.163 -32.481  1.00  0.00     0.056 C 
BRANCH   8   9
HETATM    9  C   UNL     1      -5.526  -0.370 -33.920  1.00  0.00     0.152 C 
BRANCH   9  10
HETATM   10  O   UNL     1      -6.576   0.220 -34.695  1.00  0.00    -0.391 OA
HETATM   11  H   UNL     1      -6.313   1.138 -34.883  1.00  0.00     0.210 HD
ENDBRANCH   9  10
BRANCH   9  12
HETATM   12  C   UNL     1      -5.534  -1.869 -34.157  1.00  0.00    -0.030 A 
HETATM   13  C   UNL     1      -6.714  -2.485 -34.617  1.00  0.00     0.010 A 
HETATM   14  C   UNL     1      -6.763  -3.854 -34.889  1.00  0.00     0.001 A 
HETATM   15  C   UNL     1      -5.629  -4.636 -34.709  1.00  0.00     0.000 A 
HETATM   16  C   UNL     1      -4.446  -4.046 -34.272  1.00  0.00     0.001 A 
HETATM   17  C   UNL     1      -4.396  -2.673 -34.012  1.00  0.00     0.010 A 
ENDBRANCH   9  12
ENDBRANCH   8   9
ENDBRANCH   7   8
ENDBRANCH   2   7
BRANCH   4  18
HETATM   18  C   UNL     1      -2.369   4.574 -33.462  1.00  0.00     0.109 A 
HETATM   19  N   UNL     1      -1.796   5.473 -32.579  1.00  0.00    -0.254 N 
HETATM   20  N   UNL     1      -1.117   6.452 -33.230  1.00  0.00    -0.183 NA
HETATM   21  C   UNL     1      -1.209   6.117 -34.516  1.00  0.00     0.142 A 
HETATM   22  C   UNL     1      -1.933   4.933 -34.715  1.00  0.00     0.065 A 
BRANCH  19  23
HETATM   23  C   UNL     1      -1.595   5.276 -31.139  1.00  0.00     0.111 C 
HETATM   24  C   UNL     1      -0.109   5.183 -30.714  1.00  0.00     0.027 C 
HETATM   25  C   UNL     1       0.589   6.540 -30.571  1.00  0.00     0.002 C 
HETATM   26  C   UNL     1      -0.213   7.518 -29.719  1.00  0.00     0.000 C 
HETATM   27  C   UNL     1      -1.648   7.650 -30.212  1.00  0.00     0.002 C 
HETATM   28  C   UNL     1      -2.337   6.292 -30.262  1.00  0.00     0.027 C 
ENDBRANCH  19  23
ENDBRANCH   4  18
TORSDOF 7
ENDMDL
MODEL 3
REMARK VINA RESULT:      -8.0      2.537      5.156
REMARK  7 active torsions:
REMARK  status: ('A' for Active; 'I' for Inactive)
REMARK       I    between atoms: N_2  and  C_3 
REMARK    1  A    between atoms: N_2  and  C_17 
REMARK       I    between atoms: C_3  and  N_4 
REMARK    2  A    between atoms: N_4  and  C_5 
REMARK    3  A    between atoms: N_6  and  C_7 
REMARK    4  A    between atoms: C_17  and  C_18 
REMARK    5  A    between atoms: C_18  and  C_19 
REMARK    6  A    between atoms: C_19  and  O_20 
REMARK    7  A    between atoms: C_19  and  C_21 
ROOT
HETATM    1  C   UNL     1      -5.934   0.641 -29.768  1.00  0.00     0.154 C 
HETATM    2  N   UNL     1      -5.642   1.385 -30.985  1.00  0.00    -0.343 N 
HETATM    3  C   UNL     1      -5.392   2.753 -30.848  1.00  0.00     0.301 C 
HETATM    4  N   UNL     1      -5.208   3.419 -32.052  1.00  0.00    -0.194 NA
HETATM    5  O   UNL     1      -5.375   3.297 -29.744  1.00  0.00    -0.254 OA
HETATM    6  H   UNL     1      -5.919   3.118 -32.710  1.00  0.00     0.140 HD
ENDROOT
BRANCH   2   7
HETATM    7  C   UNL     1      -5.246   0.603 -32.156  1.00  0.00     0.129 C 
BRANCH   7   8
HETATM    8  C   UNL     1      -6.412  -0.052 -32.909  1.00  0.00     0.056 C 
BRANCH   8   9
HETATM    9  C   UNL     1      -6.064  -0.683 -34.268  1.00  0.00     0.152 C 
BRANCH   9  10
HETATM   10  O   UNL     1      -7.135  -0.406 -35.176  1.00  0.00    -0.391 OA
HETATM   11  H   UNL     1      -6.996  -0.962 -35.963  1.00  0.00     0.210 HD
ENDBRANCH   9  10
BRANCH   9  12
HETATM   12  C   UNL     1      -5.743  -2.165 -34.336  1.00  0.00    -0.030 A 
HETATM   13  C   UNL     1      -6.749  -3.067 -34.734  1.00  0.00     0.010 A 
HETATM   14  C   UNL     1      -6.496  -4.435 -34.851  1.00  0.00     0.001 A 
HETATM   15  C   UNL     1      -5.228  -4.930 -34.574  1.00  0.00     0.000 A 
HETATM   16  C   UNL     1      -4.213  -4.056 -34.195  1.00  0.00     0.001 A 
HETATM   17  C   UNL     1      -4.465  -2.684 -34.091  1.00  0.00     0.010 A 
ENDBRANCH   9  12
ENDBRANCH   8   9
ENDBRANCH   7   8
ENDBRANCH   2   7
BRANCH   4  18
HETATM   18  C   UNL     1      -5.057   4.797 -31.988  1.00  0.00     0.109 A 
HETATM   19  N   UNL     1      -3.858   5.471 -31.829  1.00  0.00    -0.254 N 
HETATM   20  N   UNL     1      -4.045   6.812 -31.731  1.00  0.00    -0.183 NA
HETATM   21  C   UNL     1      -5.356   6.975 -31.902  1.00  0.00     0.142 A 
HETATM   22  C   UNL     1      -6.027   5.762 -32.114  1.00  0.00     0.065 A 
BRANCH  19  23
HETATM   23  C   UNL     1      -2.515   4.936 -32.081  1.00  0.00     0.111 C 
HETATM   24  C   UNL     1      -2.376   4.181 -33.425  1.00  0.00     0.027 C 
HETATM   25  C   UNL     1      -2.180   5.094 -34.640  1.00  0.00     0.002 C 
HETATM   26  C   UNL     1      -1.078   6.124 -34.421  1.00  0.00     0.000 C 
HETATM   27  C   UNL     1      -1.288   6.907 -33.131  1.00  0.00     0.002 C 
HETATM   28  C   UNL     1      -1.394   5.972 -31.933  1.00  0.00     0.027 C 
ENDBRANCH  19  23
ENDBRANCH   4  18
TORSDOF 7
ENDMDL
MODEL 4
REMARK VINA RESULT:      -7.9      1.952      2.936
REMARK  7 active torsions:
REMARK  status: ('A' for Active; 'I' for Inactive)
REMARK       I    between atoms: N_2  and  C_3 
REMARK    1  A    between atoms: N_2  and  C_17 
REMARK       I    between atoms: C_3  and  N_4 
REMARK    2  A    between atoms: N_4  and  C_5 
REMARK    3  A    between atoms: N_6  and  C_7 
REMARK    4  A    between atoms: C_17  and  C_18 
REMARK    5  A    between atoms: C_18  and  C_19 
REMARK    6  A    between atoms: C_19  and  O_20 
REMARK    7  A    between atoms: C_19  and  C_21 
ROOT
HETATM    1  C   UNL     1      -4.324   2.567 -31.316  1.00  0.00     0.154 C 
HETATM    2  N   UNL     1      -5.610   1.890 -31.237  1.00  0.00    -0.343 N 
HETATM    3  C   UNL     1      -6.753   2.679 -31.400  1.00  0.00     0.301 C 
HETATM    4  N   UNL     1      -7.946   1.989 -31.227  1.00  0.00    -0.194 NA
HETATM    5  O   UNL     1      -6.676   3.882 -31.643  1.00  0.00    -0.254 OA
HETATM    6  H   UNL     1      -7.874   1.402 -30.402  1.00  0.00     0.140 HD
ENDROOT
BRANCH   2   7
HETATM    7  C   UNL     1      -5.601   0.436 -31.396  1.00  0.00     0.129 C 
BRANCH   7   8
HETATM    8  C   UNL     1      -4.940  -0.058 -32.691  1.00  0.00     0.056 C 
BRANCH   8   9
HETATM    9  C   UNL     1      -5.893  -0.622 -33.758  1.00  0.00     0.152 C 
BRANCH   9  10
HETATM   10  O   UNL     1      -7.237  -0.373 -33.332  1.00  0.00    -0.391 OA
HETATM   11  H   UNL     1      -7.694  -1.231 -33.304  1.00  0.00     0.210 HD
ENDBRANCH   9  10
BRANCH   9  12
HETATM   12  C   UNL     1      -5.776  -2.081 -34.159  1.00  0.00    -0.030 A 
HETATM   13  C   UNL     1      -4.535  -2.733 -34.022  1.00  0.00     0.010 A 
HETATM   14  C   UNL     1      -4.383  -4.084 -34.340  1.00  0.00     0.001 A 
HETATM   15  C   UNL     1      -5.472  -4.814 -34.799  1.00  0.00     0.000 A 
HETATM   16  C   UNL     1      -6.713  -4.195 -34.927  1.00  0.00     0.001 A 
HETATM   17  C   UNL     1      -6.866  -2.845 -34.597  1.00  0.00     0.010 A 
ENDBRANCH   9  12
ENDBRANCH   8   9
ENDBRANCH   7   8
ENDBRANCH   2   7
BRANCH   4  18
HETATM   18  C   UNL     1      -9.114   2.738 -31.274  1.00  0.00     0.109 A 
HETATM   19  N   UNL     1      -9.879   2.967 -32.404  1.00  0.00    -0.254 N 
HETATM   20  N   UNL     1     -10.922   3.797 -32.144  1.00  0.00    -0.183 NA
HETATM   21  C   UNL     1     -10.844   4.023 -30.834  1.00  0.00     0.142 A 
HETATM   22  C   UNL     1      -9.769   3.352 -30.234  1.00  0.00     0.065 A 
BRANCH  19  23
HETATM   23  C   UNL     1      -9.855   2.190 -33.648  1.00  0.00     0.111 C 
HETATM   24  C   UNL     1     -10.524   0.798 -33.539  1.00  0.00     0.027 C 
HETATM   25  C   UNL     1     -12.052   0.827 -33.651  1.00  0.00     0.002 C 
HETATM   26  C   UNL     1     -12.532   1.623 -34.859  1.00  0.00     0.000 C 
HETATM   27  C   UNL     1     -11.919   3.017 -34.895  1.00  0.00     0.002 C 
HETATM   28  C   UNL     1     -10.397   2.947 -34.867  1.00  0.00     0.027 C 
ENDBRANCH  19  23
ENDBRANCH   4  18
TORSDOF 7
ENDMDL
MODEL 5
REMARK VINA RESULT:      -7.7      2.910      4.286
REMARK  7 active torsions:
REMARK  status: ('A' for Active; 'I' for Inactive)
REMARK       I    between atoms: N_2  and  C_3 
REMARK    1  A    between atoms: N_2  and  C_17 
REMARK       I    between atoms: C_3  and  N_4 
REMARK    2  A    between atoms: N_4  and  C_5 
REMARK    3  A    between atoms: N_6  and  C_7 
REMARK    4  A    between atoms: C_17  and  C_18 
REMARK    5  A    between atoms: C_18  and  C_19 
REMARK    6  A    between atoms: C_19  and  O_20 
REMARK    7  A    between atoms: C_19  and  C_21 
ROOT
HETATM    1  C   UNL     1      -6.758   2.070 -30.251  1.00  0.00     0.154 C 
HETATM    2  N   UNL     1      -7.209   1.611 -31.556  1.00  0.00    -0.343 N 
HETATM    3  C   UNL     1      -8.571   1.749 -31.841  1.00  0.00     0.301 C 
HETATM    4  N   UNL     1      -8.950   1.214 -33.065  1.00  0.00    -0.194 NA
HETATM    5  O   UNL     1      -9.346   2.274 -31.043  1.00  0.00    -0.254 OA
HETATM    6  H   UNL     1      -8.520   0.302 -33.176  1.00  0.00     0.140 HD
ENDROOT
BRANCH   2   7
HETATM    7  C   UNL     1      -6.182   1.428 -32.582  1.00  0.00     0.129 C 
BRANCH   7   8
HETATM    8  C   UNL     1      -5.669  -0.013 -32.718  1.00  0.00     0.056 C 
BRANCH   8   9
HETATM    9  C   UNL     1      -5.798  -0.642 -34.115  1.00  0.00     0.152 C 
BRANCH   9  10
HETATM   10  O   UNL     1      -7.068  -0.265 -34.658  1.00  0.00    -0.391 OA
HETATM   11  H   UNL     1      -6.942  -0.122 -35.612  1.00  0.00     0.210 HD
ENDBRANCH   9  10
BRANCH   9  12
HETATM   12  C   UNL     1      -5.631  -2.142 -34.271  1.00  0.00    -0.030 A 
HETATM   13  C   UNL     1      -6.714  -2.907 -34.746  1.00  0.00     0.010 A 
HETATM   14  C   UNL     1      -6.600  -4.285 -34.944  1.00  0.00     0.001 A 
HETATM   15  C   UNL     1      -5.398  -4.926 -34.675  1.00  0.00     0.000 A 
HETATM   16  C   UNL     1      -4.308  -4.188 -34.221  1.00  0.00     0.001 A 
HETATM   17  C   UNL     1      -4.420  -2.806 -34.034  1.00  0.00     0.010 A 
ENDBRANCH   9  12
ENDBRANCH   8   9
ENDBRANCH   7   8
ENDBRANCH   2   7
BRANCH   4  18
HETATM   18  C   UNL     1     -10.306   1.228 -33.360  1.00  0.00     0.109 A 
HETATM   19  N   UNL     1     -11.009   2.306 -33.868  1.00  0.00    -0.254 N 
HETATM   20  N   UNL     1     -12.334   2.033 -33.983  1.00  0.00    -0.183 NA
HETATM   21  C   UNL     1     -12.440   0.757 -33.613  1.00  0.00     0.142 A 
HETATM   22  C   UNL     1     -11.205   0.193 -33.264  1.00  0.00     0.065 A 
BRANCH  19  23
HETATM   23  C   UNL     1     -10.443   3.478 -34.546  1.00  0.00     0.111 C 
HETATM   24  C   UNL     1     -11.287   3.988 -35.739  1.00  0.00     0.027 C 
HETATM   25  C   UNL     1     -12.478   4.865 -35.336  1.00  0.00     0.002 C 
HETATM   26  C   UNL     1     -12.080   5.977 -34.372  1.00  0.00     0.000 C 
HETATM   27  C   UNL     1     -11.322   5.434 -33.167  1.00  0.00     0.002 C 
HETATM   28  C   UNL     1     -10.098   4.637 -33.603  1.00  0.00     0.027 C 
ENDBRANCH  19  23
ENDBRANCH   4  18
TORSDOF 7
ENDMDL
MODEL 6
REMARK VINA RESULT:      -7.5      2.585      5.936
REMARK  7 active torsions:
REMARK  status: ('A' for Active; 'I' for Inactive)
REMARK       I    between atoms: N_2  and  C_3 
REMARK    1  A    between atoms: N_2  and  C_17 
REMARK       I    between atoms: C_3  and  N_4 
REMARK    2  A    between atoms: N_4  and  C_5 
REMARK    3  A    between atoms: N_6  and  C_7 
REMARK    4  A    between atoms: C_17  and  C_18 
REMARK    5  A    between atoms: C_18  and  C_19 
REMARK    6  A    between atoms: C_19  and  O_20 
REMARK    7  A    between atoms: C_19  and  C_21 
ROOT
HETATM    1  C   UNL     1      -9.529   4.013 -30.591  1.00  0.00     0.154 C 
HETATM    2  N   UNL     1      -8.595   3.608 -31.631  1.00  0.00    -0.343 N 
HETATM    3  C   UNL     1      -7.300   3.270 -31.225  1.00  0.00     0.301 C 
HETATM    4  N   UNL     1      -6.437   2.979 -32.273  1.00  0.00    -0.194 NA
HETATM    5  O   UNL     1      -6.977   3.273 -30.038  1.00  0.00    -0.254 OA
HETATM    6  H   UNL     1      -6.551   3.675 -33.001  1.00  0.00     0.140 HD
ENDROOT
BRANCH   2   7
HETATM    7  C   UNL     1      -9.170   3.208 -32.915  1.00  0.00     0.129 C 
BRANCH   7   8
HETATM    8  C   UNL     1     -10.246   2.117 -32.818  1.00  0.00     0.056 C 
BRANCH   8   9
HETATM    9  C   UNL     1      -9.730   0.681 -32.624  1.00  0.00     0.152 C 
BRANCH   9  10
HETATM   10  O   UNL     1      -9.543   0.461 -31.222  1.00  0.00    -0.391 OA
HETATM   11  H   UNL     1      -8.925  -0.285 -31.128  1.00  0.00     0.210 HD
ENDBRANCH   9  10
BRANCH   9  12
HETATM   12  C   UNL     1      -8.476   0.239 -33.355  1.00  0.00    -0.030 A 
HETATM   13  C   UNL     1      -7.451  -0.403 -32.633  1.00  0.00     0.010 A 
HETATM   14  C   UNL     1      -6.294  -0.864 -33.264  1.00  0.00     0.001 A 
HETATM   15  C   UNL     1      -6.139  -0.695 -34.635  1.00  0.00     0.000 A 
HETATM   16  C   UNL     1      -7.147  -0.079 -35.372  1.00  0.00     0.001 A 
HETATM   17  C   UNL     1      -8.310   0.371 -34.740  1.00  0.00     0.010 A 
ENDBRANCH   9  12
ENDBRANCH   8   9
ENDBRANCH   7   8
ENDBRANCH   2   7
BRANCH   4  18
HETATM   18  C   UNL     1      -5.111   2.737 -31.939  1.00  0.00     0.109 A 
HETATM   19  N   UNL     1      -4.054   3.604 -32.157  1.00  0.00    -0.254 N 
HETATM   20  N   UNL     1      -2.869   3.053 -31.787  1.00  0.00    -0.183 NA
HETATM   21  C   UNL     1      -3.202   1.870 -31.273  1.00  0.00     0.142 A 
HETATM   22  C   UNL     1      -4.586   1.642 -31.297  1.00  0.00     0.065 A 
BRANCH  19  23
HETATM   23  C   UNL     1      -4.144   5.047 -32.404  1.00  0.00     0.111 C 
HETATM   24  C   UNL     1      -2.892   5.845 -31.963  1.00  0.00     0.027 C 
HETATM   25  C   UNL     1      -1.735   5.801 -32.967  1.00  0.00     0.002 C 
HETATM   26  C   UNL     1      -2.183   6.135 -34.385  1.00  0.00     0.000 C 
HETATM   27  C   UNL     1      -3.364   5.277 -34.820  1.00  0.00     0.002 C 
HETATM   28  C   UNL     1      -4.527   5.410 -33.844  1.00  0.00     0.027 C 
ENDBRANCH  19  23
ENDBRANCH   4  18
TORSDOF 7
ENDMDL
MODEL 7
REMARK VINA RESULT:      -7.5      2.742      6.405
REMARK  7 active torsions:
REMARK  status: ('A' for Active; 'I' for Inactive)
REMARK       I    between atoms: N_2  and  C_3 
REMARK    1  A    between atoms: N_2  and  C_17 
REMARK       I    between atoms: C_3  and  N_4 
REMARK    2  A    between atoms: N_4  and  C_5 
REMARK    3  A    between atoms: N_6  and  C_7 
REMARK    4  A    between atoms: C_17  and  C_18 
REMARK    5  A    between atoms: C_18  and  C_19 
REMARK    6  A    between atoms: C_19  and  O_20 
REMARK    7  A    between atoms: C_19  and  C_21 
ROOT
HETATM    1  C   UNL     1      -5.825   1.465 -30.009  1.00  0.00     0.154 C 
HETATM    2  N   UNL     1      -6.208   2.668 -30.734  1.00  0.00    -0.343 N 
HETATM    3  C   UNL     1      -5.374   3.070 -31.781  1.00  0.00     0.301 C 
HETATM    4  N   UNL     1      -5.748   4.270 -32.373  1.00  0.00    -0.194 NA
HETATM    5  O   UNL     1      -4.385   2.414 -32.105  1.00  0.00    -0.254 OA
HETATM    6  H   UNL     1      -5.976   4.941 -31.647  1.00  0.00     0.140 HD
ENDROOT
BRANCH   2   7
HETATM    7  C   UNL     1      -7.594   3.114 -30.585  1.00  0.00     0.129 C 
BRANCH   7   8
HETATM    8  C   UNL     1      -8.645   2.053 -30.938  1.00  0.00     0.056 C 
BRANCH   8   9
HETATM    9  C   UNL     1      -8.979   1.911 -32.433  1.00  0.00     0.152 C 
BRANCH   9  10
HETATM   10  O   UNL     1     -10.377   1.625 -32.553  1.00  0.00    -0.391 OA
HETATM   11  H   UNL     1     -10.545   0.800 -32.066  1.00  0.00     0.210 HD
ENDBRANCH   9  10
BRANCH   9  12
HETATM   12  C   UNL     1      -8.207   0.910 -33.273  1.00  0.00    -0.030 A 
HETATM   13  C   UNL     1      -7.985   1.185 -34.637  1.00  0.00     0.010 A 
HETATM   14  C   UNL     1      -7.248   0.316 -35.444  1.00  0.00     0.001 A 
HETATM   15  C   UNL     1      -6.713  -0.846 -34.902  1.00  0.00     0.000 A 
HETATM   16  C   UNL     1      -6.905  -1.130 -33.553  1.00  0.00     0.001 A 
HETATM   17  C   UNL     1      -7.633  -0.253 -32.743  1.00  0.00     0.010 A 
ENDBRANCH   9  12
ENDBRANCH   8   9
ENDBRANCH   7   8
ENDBRANCH   2   7
BRANCH   4  18
HETATM   18  C   UNL     1      -4.901   4.774 -33.350  1.00  0.00     0.109 A 
HETATM   19  N   UNL     1      -3.916   5.726 -33.150  1.00  0.00    -0.254 N 
HETATM   20  N   UNL     1      -3.304   6.066 -34.313  1.00  0.00    -0.183 NA
HETATM   21  C   UNL     1      -3.860   5.269 -35.224  1.00  0.00     0.142 A 
HETATM   22  C   UNL     1      -4.824   4.412 -34.673  1.00  0.00     0.065 A 
BRANCH  19  23
HETATM   23  C   UNL     1      -3.311   6.102 -31.868  1.00  0.00     0.111 C 
HETATM   24  C   UNL     1      -2.232   5.113 -31.363  1.00  0.00     0.027 C 
HETATM   25  C   UNL     1      -0.854   5.305 -32.007  1.00  0.00     0.002 C 
HETATM   26  C   UNL     1      -0.393   6.758 -31.969  1.00  0.00     0.000 C 
HETATM   27  C   UNL     1      -1.443   7.698 -32.548  1.00  0.00     0.002 C 
HETATM   28  C   UNL     1      -2.777   7.539 -31.828  1.00  0.00     0.027 C 
ENDBRANCH  19  23
ENDBRANCH   4  18
TORSDOF 7
ENDMDL
MODEL 8
REMARK VINA RESULT:      -7.4      3.153      6.712
REMARK  7 active torsions:
REMARK  status: ('A' for Active; 'I' for Inactive)
REMARK       I    between atoms: N_2  and  C_3 
REMARK    1  A    between atoms: N_2  and  C_17 
REMARK       I    between atoms: C_3  and  N_4 
REMARK    2  A    between atoms: N_4  and  C_5 
REMARK    3  A    between atoms: N_6  and  C_7 
REMARK    4  A    between atoms: C_17  and  C_18 
REMARK    5  A    between atoms: C_18  and  C_19 
REMARK    6  A    between atoms: C_19  and  O_20 
REMARK    7  A    between atoms: C_19  and  C_21 
ROOT
HETATM    1  C   UNL     1      -7.254   4.320 -33.453  1.00  0.00     0.154 C 
HETATM    2  N   UNL     1      -5.899   3.798 -33.349  1.00  0.00    -0.343 N 
HETATM    3  C   UNL     1      -4.854   4.720 -33.459  1.00  0.00     0.301 C 
HETATM    4  N   UNL     1      -3.590   4.147 -33.439  1.00  0.00    -0.194 NA
HETATM    5  O   UNL     1      -5.069   5.924 -33.594  1.00  0.00    -0.254 OA
HETATM    6  H   UNL     1      -3.584   3.332 -34.043  1.00  0.00     0.140 HD
ENDROOT
BRANCH   2   7
HETATM    7  C   UNL     1      -5.748   2.471 -32.753  1.00  0.00     0.129 C 
BRANCH   7   8
HETATM    8  C   UNL     1      -6.807   2.122 -31.698  1.00  0.00     0.056 C 
BRANCH   8   9
HETATM    9  C   UNL     1      -7.372   0.693 -31.762  1.00  0.00     0.152 C 
BRANCH   9  10
HETATM   10  O   UNL     1      -7.322   0.134 -30.445  1.00  0.00    -0.391 OA
HETATM   11  H   UNL     1      -6.490   0.431 -30.038  1.00  0.00     0.210 HD
ENDBRANCH   9  10
BRANCH   9  12
HETATM   12  C   UNL     1      -6.763  -0.302 -32.732  1.00  0.00    -0.030 A 
HETATM   13  C   UNL     1      -5.469  -0.801 -32.482  1.00  0.00     0.010 A 
HETATM   14  C   UNL     1      -4.878  -1.747 -33.322  1.00  0.00     0.001 A 
HETATM   15  C   UNL     1      -5.572  -2.218 -34.430  1.00  0.00     0.000 A 
HETATM   16  C   UNL     1      -6.858  -1.753 -34.688  1.00  0.00     0.001 A 
HETATM   17  C   UNL     1      -7.453  -0.814 -33.839  1.00  0.00     0.010 A 
ENDBRANCH   9  12
ENDBRANCH   8   9
ENDBRANCH   7   8
ENDBRANCH   2   7
BRANCH   4  18
HETATM   18  C   UNL     1      -2.514   5.001 -33.648  1.00  0.00     0.109 A 
HETATM   19  N   UNL     1      -1.876   5.746 -32.672  1.00  0.00    -0.254 N 
HETATM   20  N   UNL     1      -0.907   6.537 -33.199  1.00  0.00    -0.183 NA
HETATM   21  C   UNL     1      -0.895   6.226 -34.494  1.00  0.00     0.142 A 
HETATM   22  C   UNL     1      -1.839   5.242 -34.820  1.00  0.00     0.065 A 
BRANCH  19  23
HETATM   23  C   UNL     1      -1.926   5.517 -31.224  1.00  0.00     0.111 C 
HETATM   24  C   UNL     1      -0.545   5.249 -30.577  1.00  0.00     0.027 C 
HETATM   25  C   UNL     1       0.270   6.516 -30.292  1.00  0.00     0.002 C 
HETATM   26  C   UNL     1      -0.540   7.573 -29.549  1.00  0.00     0.000 C 
HETATM   27  C   UNL     1      -1.856   7.873 -30.254  1.00  0.00     0.002 C 
HETATM   28  C   UNL     1      -2.678   6.603 -30.445  1.00  0.00     0.027 C 
ENDBRANCH  19  23
ENDBRANCH   4  18
TORSDOF 7
ENDMDL
MODEL 9
REMARK VINA RESULT:      -7.0      3.110      4.270
REMARK  7 active torsions:
REMARK  status: ('A' for Active; 'I' for Inactive)
REMARK       I    between atoms: N_2  and  C_3 
REMARK    1  A    between atoms: N_2  and  C_17 
REMARK       I    between atoms: C_3  and  N_4 
REMARK    2  A    between atoms: N_4  and  C_5 
REMARK    3  A    between atoms: N_6  and  C_7 
REMARK    4  A    between atoms: C_17  and  C_18 
REMARK    5  A    between atoms: C_18  and  C_19 
REMARK    6  A    between atoms: C_19  and  O_20 
REMARK    7  A    between atoms: C_19  and  C_21 
ROOT
HETATM    1  C   UNL     1      -6.748   3.839 -30.422  1.00  0.00     0.154 C 
HETATM    2  N   UNL     1      -7.009   3.611 -31.835  1.00  0.00    -0.343 N 
HETATM    3  C   UNL     1      -8.111   4.267 -32.391  1.00  0.00     0.301 C 
HETATM    4  N   UNL     1      -8.355   3.940 -33.718  1.00  0.00    -0.194 NA
HETATM    5  O   UNL     1      -8.804   5.037 -31.727  1.00  0.00    -0.254 OA
HETATM    6  H   UNL     1      -8.280   2.934 -33.831  1.00  0.00     0.140 HD
ENDROOT
BRANCH   2   7
HETATM    7  C   UNL     1      -5.909   3.064 -32.629  1.00  0.00     0.129 C 
BRANCH   7   8
HETATM    8  C   UNL     1      -5.792   1.534 -32.585  1.00  0.00     0.056 C 
BRANCH   8   9
HETATM    9  C   UNL     1      -6.490   0.775 -33.726  1.00  0.00     0.152 C 
BRANCH   9  10
HETATM   10  O   UNL     1      -7.901   0.803 -33.483  1.00  0.00    -0.391 OA
HETATM   11  H   UNL     1      -8.025   0.879 -32.520  1.00  0.00     0.210 HD
ENDBRANCH   9  10
BRANCH   9  12
HETATM   12  C   UNL     1      -6.079  -0.655 -34.026  1.00  0.00    -0.030 A 
HETATM   13  C   UNL     1      -4.799  -1.096 -33.639  1.00  0.00     0.010 A 
HETATM   14  C   UNL     1      -4.385  -2.412 -33.856  1.00  0.00     0.001 A 
HETATM   15  C   UNL     1      -5.248  -3.317 -34.462  1.00  0.00     0.000 A 
HETATM   16  C   UNL     1      -6.525  -2.909 -34.837  1.00  0.00     0.001 A 
HETATM   17  C   UNL     1      -6.941  -1.593 -34.608  1.00  0.00     0.010 A 
ENDBRANCH   9  12
ENDBRANCH   8   9
ENDBRANCH   7   8
ENDBRANCH   2   7
BRANCH   4  18
HETATM   18  C   UNL     1      -9.497   4.480 -34.295  1.00  0.00     0.109 A 
HETATM   19  N   UNL     1     -10.739   3.872 -34.345  1.00  0.00    -0.254 N 
HETATM   20  N   UNL     1     -11.636   4.620 -35.037  1.00  0.00    -0.183 NA
HETATM   21  C   UNL     1     -10.967   5.727 -35.353  1.00  0.00     0.142 A 
HETATM   22  C   UNL     1      -9.649   5.716 -34.875  1.00  0.00     0.065 A 
BRANCH  19  23
HETATM   23  C   UNL     1     -11.206   2.765 -33.502  1.00  0.00     0.111 C 
HETATM   24  C   UNL     1     -12.515   3.063 -32.732  1.00  0.00     0.027 C 
HETATM   25  C   UNL     1     -13.788   2.890 -33.568  1.00  0.00     0.002 C 
HETATM   26  C   UNL     1     -13.822   1.555 -34.304  1.00  0.00     0.000 C 
HETATM   27  C   UNL     1     -12.555   1.328 -35.118  1.00  0.00     0.002 C 
HETATM   28  C   UNL     1     -11.314   1.423 -34.239  1.00  0.00     0.027 C 
ENDBRANCH  19  23
ENDBRANCH   4  18
TORSDOF 7
ENDMDL
MODEL 10
REMARK VINA RESULT:      -6.9      4.082      8.412
REMARK  7 active torsions:
REMARK  status: ('A' for Active; 'I' for Inactive)
REMARK       I    between atoms: N_2  and  C_3 
REMARK    1  A    between atoms: N_2  and  C_17 
REMARK       I    between atoms: C_3  and  N_4 
REMARK    2  A    between atoms: N_4  and  C_5 
REMARK    3  A    between atoms: N_6  and  C_7 
REMARK    4  A    between atoms: C_17  and  C_18 
REMARK    5  A    between atoms: C_18  and  C_19 
REMARK    6  A    between atoms: C_19  and  O_20 
REMARK    7  A    between atoms: C_19  and  C_21 
ROOT
HETATM    1  C   UNL     1      -9.628   3.422 -34.657  1.00  0.00     0.154 C 
HETATM    2  N   UNL     1      -9.536   2.134 -33.986  1.00  0.00    -0.343 N 
HETATM    3  C   UNL     1      -8.391   1.899 -33.219  1.00  0.00     0.301 C 
HETATM    4  N   UNL     1      -8.324   0.621 -32.679  1.00  0.00    -0.194 NA
HETATM    5  O   UNL     1      -7.521   2.757 -33.080  1.00  0.00    -0.254 OA
HETATM    6  H   UNL     1      -8.579  -0.055 -33.391  1.00  0.00     0.140 HD
ENDROOT
BRANCH   2   7
HETATM    7  C   UNL     1     -10.779   1.377 -33.838  1.00  0.00     0.129 C 
BRANCH   7   8
HETATM    8  C   UNL     1     -11.911   2.143 -33.140  1.00  0.00     0.056 C 
BRANCH   8   9
HETATM    9  C   UNL     1     -13.340   1.692 -33.488  1.00  0.00     0.152 C 
BRANCH   9  10
HETATM   10  O   UNL     1     -13.457   1.641 -34.914  1.00  0.00    -0.391 OA
HETATM   11  H   UNL     1     -14.402   1.536 -35.122  1.00  0.00     0.210 HD
ENDBRANCH   9  10
BRANCH   9  12
HETATM   12  C   UNL     1     -14.518   2.471 -32.933  1.00  0.00    -0.030 A 
HETATM   13  C   UNL     1     -15.777   1.844 -32.851  1.00  0.00     0.010 A 
HETATM   14  C   UNL     1     -16.885   2.502 -32.313  1.00  0.00     0.001 A 
HETATM   15  C   UNL     1     -16.755   3.803 -31.841  1.00  0.00     0.000 A 
HETATM   16  C   UNL     1     -15.517   4.436 -31.895  1.00  0.00     0.001 A 
HETATM   17  C   UNL     1     -14.406   3.771 -32.424  1.00  0.00     0.010 A 
ENDBRANCH   9  12
ENDBRANCH   8   9
ENDBRANCH   7   8
ENDBRANCH   2   7
BRANCH   4  18
HETATM   18  C   UNL     1      -7.163   0.293 -31.992  1.00  0.00     0.109 A 
HETATM   19  N   UNL     1      -6.091  -0.410 -32.513  1.00  0.00    -0.254 N 
HETATM   20  N   UNL     1      -5.135  -0.635 -31.575  1.00  0.00    -0.183 NA
HETATM   21  C   UNL     1      -5.584  -0.006 -30.490  1.00  0.00     0.142 A 
HETATM   22  C   UNL     1      -6.816   0.629 -30.706  1.00  0.00     0.065 A 
BRANCH  19  23
HETATM   23  C   UNL     1      -5.782  -0.608 -33.934  1.00  0.00     0.111 C 
HETATM   24  C   UNL     1      -4.432  -1.319 -34.196  1.00  0.00     0.027 C 
HETATM   25  C   UNL     1      -4.488  -2.844 -34.052  1.00  0.00     0.002 C 
HETATM   26  C   UNL     1      -5.645  -3.459 -34.833  1.00  0.00     0.000 C 
HETATM   27  C   UNL     1      -6.971  -2.792 -34.493  1.00  0.00     0.002 C 
HETATM   28  C   UNL     1      -6.905  -1.287 -34.727  1.00  0.00     0.027 C 
ENDBRANCH  19  23
ENDBRANCH   4  18
TORSDOF 7
ENDMDL
