MODEL 1
REMARK VINA RESULT:      -8.7      0.000      0.000
REMARK  4 active torsions:
REMARK  status: ('A' for Active; 'I' for Inactive)
REMARK    1  A    between atoms: C_7  and  N_8 
REMARK       I    between atoms: N_8  and  C_9 
REMARK    2  A    between atoms: C_9  and  C_10 
REMARK    3  A    between atoms: C_10  and  C_11 
REMARK    4  A    between atoms: C_14  and  O_15 
ROOT
HETATM    1  N   UNL     1      -7.995   0.607 -33.414  1.00  0.00    -0.326 N 
HETATM    2  C   UNL     1      -7.053   0.349 -34.397  1.00  0.00     0.226 C 
HETATM    3  O   UNL     1      -7.207   0.520 -35.603  1.00  0.00    -0.273 OA
HETATM    4  H   UNL     1      -7.715   0.439 -32.455  1.00  0.00     0.169 HD
ENDROOT
BRANCH   1   5
HETATM    5  C   UNL     1      -9.302   1.101 -33.614  1.00  0.00     0.053 A 
HETATM    6  C   UNL     1      -9.620   2.405 -33.972  1.00  0.00     0.146 A 
HETATM    7  N   UNL     1     -10.887   2.861 -34.159  1.00  0.00    -0.258 NA
HETATM    8  C   UNL     1     -11.902   1.999 -33.993  1.00  0.00     0.066 A 
HETATM    9  C   UNL     1     -11.691   0.652 -33.634  1.00  0.00    -0.005 A 
HETATM   10  C   UNL     1     -13.206   2.435 -34.182  1.00  0.00     0.032 A 
HETATM   11  C   UNL     1     -12.789  -0.216 -33.480  1.00  0.00     0.014 A 
HETATM   12  C   UNL     1     -10.369   0.218 -33.441  1.00  0.00     0.044 A 
HETATM   13  C   UNL     1     -14.088   0.248 -33.679  1.00  0.00     0.001 A 
HETATM   14  C   UNL     1     -14.297   1.577 -34.028  1.00  0.00     0.002 A 
ENDBRANCH   1   5
BRANCH   2  15
HETATM   15  C   UNL     1      -5.741  -0.192 -33.846  1.00  0.00     0.141 C 
BRANCH  15  16
HETATM   16  C   UNL     1      -5.542  -1.678 -34.039  1.00  0.00    -0.049 A 
HETATM   17  C   UNL     1      -6.583  -2.451 -34.581  1.00  0.00     0.010 A 
HETATM   18  C   UNL     1      -6.407  -3.814 -34.829  1.00  0.00     0.037 A 
HETATM   19  C   UNL     1      -5.183  -4.408 -34.543  1.00  0.00     0.065 A 
HETATM   20  C   UNL     1      -4.137  -3.662 -34.019  1.00  0.00     0.037 A 
HETATM   21  C   UNL     1      -4.311  -2.297 -33.778  1.00  0.00     0.010 A 
BRANCH  19  22
HETATM   22  O   UNL     1      -4.964  -5.733 -34.777  1.00  0.00    -0.361 OA
HETATM   23  H   UNL     1      -4.664  -6.150 -33.952  1.00  0.00     0.217 HD
ENDBRANCH  19  22
ENDBRANCH  15  16
ENDBRANCH   2  15
TORSDOF 4
ENDMDL
MODEL 2
REMARK VINA RESULT:      -8.5      2.224      7.609
REMARK  4 active torsions:
REMARK  status: ('A' for Active; 'I' for Inactive)
REMARK    1  A    between atoms: C_7  and  N_8 
REMARK       I    between atoms: N_8  and  C_9 
REMARK    2  A    between atoms: C_9  and  C_10 
REMARK    3  A    between atoms: C_10  and  C_11 
REMARK    4  A    between atoms: C_14  and  O_15 
ROOT
HETATM    1  N   UNL     1      -7.879   0.754 -34.485  1.00  0.00    -0.326 N 
HETATM    2  C   UNL     1      -8.557   1.410 -33.471  1.00  0.00     0.226 C 
HETATM    3  O   UNL     1      -8.399   1.229 -32.267  1.00  0.00    -0.273 OA
HETATM    4  H   UNL     1      -8.098   1.027 -35.436  1.00  0.00     0.169 HD
ENDROOT
BRANCH   1   5
HETATM    5  C   UNL     1      -6.893  -0.244 -34.326  1.00  0.00     0.053 A 
HETATM    6  C   UNL     1      -5.615  -0.037 -33.822  1.00  0.00     0.146 A 
HETATM    7  N   UNL     1      -4.681  -1.013 -33.677  1.00  0.00    -0.258 NA
HETATM    8  C   UNL     1      -5.008  -2.263 -34.040  1.00  0.00     0.066 A 
HETATM    9  C   UNL     1      -6.278  -2.584 -34.561  1.00  0.00    -0.005 A 
HETATM   10  C   UNL     1      -4.075  -3.281 -33.900  1.00  0.00     0.032 A 
HETATM   11  C   UNL     1      -6.576  -3.913 -34.919  1.00  0.00     0.014 A 
HETATM   12  C   UNL     1      -7.216  -1.549 -34.704  1.00  0.00     0.044 A 
HETATM   13  C   UNL     1      -5.622  -4.916 -34.764  1.00  0.00     0.001 A 
HETATM   14  C   UNL     1      -4.367  -4.599 -34.256  1.00  0.00     0.002 A 
ENDBRANCH   1   5
BRANCH   2  15
HETATM   15  C   UNL     1      -9.569   2.426 -33.983  1.00  0.00     0.141 C 
BRANCH  15  16
HETATM   16  C   UNL     1     -10.956   1.872 -34.212  1.00  0.00    -0.049 A 
HETATM   17  C   UNL     1     -11.363   0.717 -33.522  1.00  0.00     0.010 A 
HETATM   18  C   UNL     1     -12.660   0.218 -33.666  1.00  0.00     0.037 A 
HETATM   19  C   UNL     1     -13.558   0.878 -34.496  1.00  0.00     0.065 A 
HETATM   20  C   UNL     1     -13.182   2.027 -35.178  1.00  0.00     0.037 A 
HETATM   21  C   UNL     1     -11.888   2.530 -35.028  1.00  0.00     0.010 A 
BRANCH  19  22
HETATM   22  O   UNL     1     -14.836   0.431 -34.660  1.00  0.00    -0.361 OA
HETATM   23  H   UNL     1     -15.044  -0.189 -33.942  1.00  0.00     0.217 HD
ENDBRANCH  19  22
ENDBRANCH  15  16
ENDBRANCH   2  15
TORSDOF 4
ENDMDL
MODEL 3
REMARK VINA RESULT:      -8.3      4.987      7.773
REMARK  4 active torsions:
REMARK  status: ('A' for Active; 'I' for Inactive)
REMARK    1  A    between atoms: C_7  and  N_8 
REMARK       I    between atoms: N_8  and  C_9 
REMARK    2  A    between atoms: C_9  and  C_10 
REMARK    3  A    between atoms: C_10  and  C_11 
REMARK    4  A    between atoms: C_14  and  O_15 
ROOT
HETATM    1  N   UNL     1      -5.192   1.173 -33.336  1.00  0.00    -0.326 N 
HETATM    2  C   UNL     1      -5.563   1.809 -32.164  1.00  0.00     0.226 C 
HETATM    3  O   UNL     1      -5.742   1.267 -31.077  1.00  0.00    -0.273 OA
HETATM    4  H   UNL     1      -5.057   1.756 -34.153  1.00  0.00     0.169 HD
ENDROOT
BRANCH   1   5
HETATM    5  C   UNL     1      -4.959  -0.210 -33.503  1.00  0.00     0.053 A 
HETATM    6  C   UNL     1      -3.823  -0.889 -33.081  1.00  0.00     0.146 A 
HETATM    7  N   UNL     1      -3.620  -2.222 -33.252  1.00  0.00    -0.258 NA
HETATM    8  C   UNL     1      -4.576  -2.936 -33.865  1.00  0.00     0.066 A 
HETATM    9  C   UNL     1      -5.770  -2.348 -34.330  1.00  0.00    -0.005 A 
HETATM   10  C   UNL     1      -4.397  -4.300 -34.050  1.00  0.00     0.032 A 
HETATM   11  C   UNL     1      -6.748  -3.141 -34.959  1.00  0.00     0.014 A 
HETATM   12  C   UNL     1      -5.943  -0.966 -34.143  1.00  0.00     0.044 A 
HETATM   13  C   UNL     1      -6.544  -4.509 -35.128  1.00  0.00     0.001 A 
HETATM   14  C   UNL     1      -5.365  -5.090 -34.675  1.00  0.00     0.002 A 
ENDBRANCH   1   5
BRANCH   2  15
HETATM   15  C   UNL     1      -5.746   3.311 -32.326  1.00  0.00     0.141 C 
BRANCH  15  16
HETATM   16  C   UNL     1      -4.640   4.001 -33.092  1.00  0.00    -0.049 A 
HETATM   17  C   UNL     1      -3.314   3.897 -32.638  1.00  0.00     0.010 A 
HETATM   18  C   UNL     1      -2.264   4.471 -33.358  1.00  0.00     0.037 A 
HETATM   19  C   UNL     1      -2.536   5.145 -34.543  1.00  0.00     0.065 A 
HETATM   20  C   UNL     1      -3.837   5.250 -35.018  1.00  0.00     0.037 A 
HETATM   21  C   UNL     1      -4.885   4.669 -34.301  1.00  0.00     0.010 A 
BRANCH  19  22
HETATM   22  O   UNL     1      -1.542   5.713 -35.283  1.00  0.00    -0.361 OA
HETATM   23  H   UNL     1      -0.788   5.900 -34.701  1.00  0.00     0.217 HD
ENDBRANCH  19  22
ENDBRANCH  15  16
ENDBRANCH   2  15
TORSDOF 4
ENDMDL
MODEL 4
REMARK VINA RESULT:      -8.2      1.561      1.959
REMARK  4 active torsions:
REMARK  status: ('A' for Active; 'I' for Inactive)
REMARK    1  A    between atoms: C_7  and  N_8 
REMARK       I    between atoms: N_8  and  C_9 
REMARK    2  A    between atoms: C_9  and  C_10 
REMARK    3  A    between atoms: C_10  and  C_11 
REMARK    4  A    between atoms: C_14  and  O_15 
ROOT
HETATM    1  N   UNL     1      -9.472   1.433 -34.647  1.00  0.00    -0.326 N 
HETATM    2  C   UNL     1      -8.629   0.425 -34.208  1.00  0.00     0.226 C 
HETATM    3  O   UNL     1      -8.763  -0.225 -33.176  1.00  0.00    -0.273 OA
HETATM    4  H   UNL     1      -9.247   1.866 -35.535  1.00  0.00     0.169 HD
ENDROOT
BRANCH   1   5
HETATM    5  C   UNL     1     -10.629   1.904 -33.990  1.00  0.00     0.053 A 
HETATM    6  C   UNL     1     -10.675   2.991 -33.125  1.00  0.00     0.146 A 
HETATM    7  N   UNL     1     -11.802   3.428 -32.503  1.00  0.00    -0.258 NA
HETATM    8  C   UNL     1     -12.950   2.774 -32.738  1.00  0.00     0.066 A 
HETATM    9  C   UNL     1     -13.017   1.662 -33.600  1.00  0.00    -0.005 A 
HETATM   10  C   UNL     1     -14.117   3.201 -32.119  1.00  0.00     0.032 A 
HETATM   11  C   UNL     1     -14.248   1.015 -33.821  1.00  0.00     0.014 A 
HETATM   12  C   UNL     1     -11.832   1.232 -34.220  1.00  0.00     0.044 A 
HETATM   13  C   UNL     1     -15.405   1.467 -33.189  1.00  0.00     0.001 A 
HETATM   14  C   UNL     1     -15.339   2.561 -32.334  1.00  0.00     0.002 A 
ENDBRANCH   1   5
BRANCH   2  15
HETATM   15  C   UNL     1      -7.460   0.168 -35.148  1.00  0.00     0.141 C 
BRANCH  15  16
HETATM   16  C   UNL     1      -6.468  -0.860 -34.652  1.00  0.00    -0.049 A 
HETATM   17  C   UNL     1      -6.614  -2.204 -35.037  1.00  0.00     0.010 A 
HETATM   18  C   UNL     1      -5.679  -3.165 -34.646  1.00  0.00     0.037 A 
HETATM   19  C   UNL     1      -4.588  -2.783 -33.874  1.00  0.00     0.065 A 
HETATM   20  C   UNL     1      -4.417  -1.459 -33.491  1.00  0.00     0.037 A 
HETATM   21  C   UNL     1      -5.348  -0.497 -33.889  1.00  0.00     0.010 A 
BRANCH  19  22
HETATM   22  O   UNL     1      -3.647  -3.685 -33.476  1.00  0.00    -0.361 OA
HETATM   23  H   UNL     1      -3.978  -4.581 -33.654  1.00  0.00     0.217 HD
ENDBRANCH  19  22
ENDBRANCH  15  16
ENDBRANCH   2  15
TORSDOF 4
ENDMDL
MODEL 5
REMARK VINA RESULT:      -7.9      1.369      2.589
REMARK  4 active torsions:
REMARK  status: ('A' for Active; 'I' for Inactive)
REMARK    1  A    between atoms: C_7  and  N_8 
REMARK       I    between atoms: N_8  and  C_9 
REMARK    2  A    between atoms: C_9  and  C_10 
REMARK    3  A    between atoms: C_10  and  C_11 
REMARK    4  A    between atoms: C_14  and  O_15 
ROOT
HETATM    1  N   UNL     1      -8.047   0.921 -33.515  1.00  0.00    -0.326 N 
HETATM    2  C   UNL     1      -7.088   0.451 -34.397  1.00  0.00     0.226 C 
HETATM    3  O   UNL     1      -7.137   0.530 -35.621  1.00  0.00    -0.273 OA
HETATM    4  H   UNL     1      -7.858   0.806 -32.527  1.00  0.00     0.169 HD
ENDROOT
BRANCH   1   5
HETATM    5  C   UNL     1      -9.256   1.566 -33.856  1.00  0.00     0.053 A 
HETATM    6  C   UNL     1     -10.512   0.972 -33.848  1.00  0.00     0.146 A 
HETATM    7  N   UNL     1     -11.664   1.612 -34.179  1.00  0.00    -0.258 NA
HETATM    8  C   UNL     1     -11.592   2.904 -34.536  1.00  0.00     0.066 A 
HETATM    9  C   UNL     1     -10.370   3.604 -34.575  1.00  0.00    -0.005 A 
HETATM   10  C   UNL     1     -12.754   3.584 -34.876  1.00  0.00     0.032 A 
HETATM   11  C   UNL     1     -10.347   4.962 -34.947  1.00  0.00     0.014 A 
HETATM   12  C   UNL     1      -9.198   2.909 -34.233  1.00  0.00     0.044 A 
HETATM   13  C   UNL     1     -11.529   5.621 -35.280  1.00  0.00     0.001 A 
HETATM   14  C   UNL     1     -12.735   4.930 -35.247  1.00  0.00     0.002 A 
ENDBRANCH   1   5
BRANCH   2  15
HETATM   15  C   UNL     1      -5.904  -0.207 -33.703  1.00  0.00     0.141 C 
BRANCH  15  16
HETATM   16  C   UNL     1      -5.683  -1.656 -34.073  1.00  0.00    -0.049 A 
HETATM   17  C   UNL     1      -4.415  -2.232 -33.887  1.00  0.00     0.010 A 
HETATM   18  C   UNL     1      -4.197  -3.584 -34.162  1.00  0.00     0.037 A 
HETATM   19  C   UNL     1      -5.251  -4.369 -34.616  1.00  0.00     0.065 A 
HETATM   20  C   UNL     1      -6.515  -3.824 -34.795  1.00  0.00     0.037 A 
HETATM   21  C   UNL     1      -6.735  -2.474 -34.513  1.00  0.00     0.010 A 
BRANCH  19  22
HETATM   22  O   UNL     1      -5.086  -5.694 -34.889  1.00  0.00    -0.361 OA
HETATM   23  H   UNL     1      -5.839  -6.185 -34.520  1.00  0.00     0.217 HD
ENDBRANCH  19  22
ENDBRANCH  15  16
ENDBRANCH   2  15
TORSDOF 4
ENDMDL
MODEL 6
REMARK VINA RESULT:      -7.8      4.906      7.488
REMARK  4 active torsions:
REMARK  status: ('A' for Active; 'I' for Inactive)
REMARK    1  A    between atoms: C_7  and  N_8 
REMARK       I    between atoms: N_8  and  C_9 
REMARK    2  A    between atoms: C_9  and  C_10 
REMARK    3  A    between atoms: C_10  and  C_11 
REMARK    4  A    between atoms: C_14  and  O_15 
ROOT
HETATM    1  N   UNL     1      -4.511   2.066 -31.549  1.00  0.00    -0.326 N 
HETATM    2  C   UNL     1      -5.445   1.407 -32.331  1.00  0.00     0.226 C 
HETATM    3  O   UNL     1      -6.002   1.864 -33.324  1.00  0.00    -0.273 OA
HETATM    4  H   UNL     1      -4.117   1.550 -30.771  1.00  0.00     0.169 HD
ENDROOT
BRANCH   1   5
HETATM    5  C   UNL     1      -4.033   3.380 -31.741  1.00  0.00     0.053 A 
HETATM    6  C   UNL     1      -4.434   4.494 -31.014  1.00  0.00     0.146 A 
HETATM    7  N   UNL     1      -3.961   5.752 -31.216  1.00  0.00    -0.258 NA
HETATM    8  C   UNL     1      -3.043   5.937 -32.177  1.00  0.00     0.066 A 
HETATM    9  C   UNL     1      -2.563   4.876 -32.971  1.00  0.00    -0.005 A 
HETATM   10  C   UNL     1      -2.539   7.211 -32.402  1.00  0.00     0.032 A 
HETATM   11  C   UNL     1      -1.593   5.121 -33.961  1.00  0.00     0.014 A 
HETATM   12  C   UNL     1      -3.081   3.591 -32.740  1.00  0.00     0.044 A 
HETATM   13  C   UNL     1      -1.101   6.409 -34.164  1.00  0.00     0.001 A 
HETATM   14  C   UNL     1      -1.577   7.457 -33.385  1.00  0.00     0.002 A 
ENDBRANCH   1   5
BRANCH   2  15
HETATM   15  C   UNL     1      -5.751  -0.002 -31.843  1.00  0.00     0.141 C 
BRANCH  15  16
HETATM   16  C   UNL     1      -5.753  -1.057 -32.926  1.00  0.00    -0.049 A 
HETATM   17  C   UNL     1      -4.563  -1.741 -33.227  1.00  0.00     0.010 A 
HETATM   18  C   UNL     1      -4.547  -2.763 -34.180  1.00  0.00     0.037 A 
HETATM   19  C   UNL     1      -5.726  -3.111 -34.828  1.00  0.00     0.065 A 
HETATM   20  C   UNL     1      -6.916  -2.457 -34.538  1.00  0.00     0.037 A 
HETATM   21  C   UNL     1      -6.933  -1.441 -33.581  1.00  0.00     0.010 A 
BRANCH  19  22
HETATM   22  O   UNL     1      -5.759  -4.108 -35.758  1.00  0.00    -0.361 OA
HETATM   23  H   UNL     1      -6.675  -4.224 -36.058  1.00  0.00     0.217 HD
ENDBRANCH  19  22
ENDBRANCH  15  16
ENDBRANCH   2  15
TORSDOF 4
ENDMDL
MODEL 7
REMARK VINA RESULT:      -7.7     13.498     15.004
REMARK  4 active torsions:
REMARK  status: ('A' for Active; 'I' for Inactive)
REMARK    1  A    between atoms: C_7  and  N_8 
REMARK       I    between atoms: N_8  and  C_9 
REMARK    2  A    between atoms: C_9  and  C_10 
REMARK    3  A    between atoms: C_10  and  C_11 
REMARK    4  A    between atoms: C_14  and  O_15 
ROOT
HETATM    1  N   UNL     1      -4.219 -12.943 -39.214  1.00  0.00    -0.326 N 
HETATM    2  C   UNL     1      -3.518 -12.470 -38.118  1.00  0.00     0.226 C 
HETATM    3  O   UNL     1      -3.961 -12.345 -36.980  1.00  0.00    -0.273 OA
HETATM    4  H   UNL     1      -3.713 -13.013 -40.089  1.00  0.00     0.169 HD
ENDROOT
BRANCH   1   5
HETATM    5  C   UNL     1      -5.568 -13.360 -39.231  1.00  0.00     0.053 A 
HETATM    6  C   UNL     1      -6.032 -14.595 -38.798  1.00  0.00     0.146 A 
HETATM    7  N   UNL     1      -7.337 -14.975 -38.823  1.00  0.00    -0.258 NA
HETATM    8  C   UNL     1      -8.242 -14.104 -39.292  1.00  0.00     0.066 A 
HETATM    9  C   UNL     1      -7.881 -12.822 -39.754  1.00  0.00    -0.005 A 
HETATM   10  C   UNL     1      -9.583 -14.464 -39.326  1.00  0.00     0.032 A 
HETATM   11  C   UNL     1      -8.870 -11.940 -40.229  1.00  0.00     0.014 A 
HETATM   12  C   UNL     1      -6.523 -12.466 -39.721  1.00  0.00     0.044 A 
HETATM   13  C   UNL     1     -10.209 -12.326 -40.248  1.00  0.00     0.001 A 
HETATM   14  C   UNL     1     -10.566 -13.592 -39.798  1.00  0.00     0.002 A 
ENDBRANCH   1   5
BRANCH   2  15
HETATM   15  C   UNL     1      -2.079 -12.093 -38.442  1.00  0.00     0.141 C 
BRANCH  15  16
HETATM   16  C   UNL     1      -1.179 -13.263 -38.767  1.00  0.00    -0.049 A 
HETATM   17  C   UNL     1      -0.746 -14.111 -37.734  1.00  0.00     0.010 A 
HETATM   18  C   UNL     1       0.035 -15.236 -38.012  1.00  0.00     0.037 A 
HETATM   19  C   UNL     1       0.378 -15.521 -39.328  1.00  0.00     0.065 A 
HETATM   20  C   UNL     1      -0.049 -14.704 -40.367  1.00  0.00     0.037 A 
HETATM   21  C   UNL     1      -0.835 -13.584 -40.089  1.00  0.00     0.010 A 
BRANCH  19  22
HETATM   22  O   UNL     1       1.131 -16.612 -39.647  1.00  0.00    -0.361 OA
HETATM   23  H   UNL     1       2.050 -16.446 -39.381  1.00  0.00     0.217 HD
ENDBRANCH  19  22
ENDBRANCH  15  16
ENDBRANCH   2  15
TORSDOF 4
ENDMDL
MODEL 8
REMARK VINA RESULT:      -7.6     13.388     16.771
REMARK  4 active torsions:
REMARK  status: ('A' for Active; 'I' for Inactive)
REMARK    1  A    between atoms: C_7  and  N_8 
REMARK       I    between atoms: N_8  and  C_9 
REMARK    2  A    between atoms: C_9  and  C_10 
REMARK    3  A    between atoms: C_10  and  C_11 
REMARK    4  A    between atoms: C_14  and  O_15 
ROOT
HETATM    1  N   UNL     1      -5.414 -13.692 -38.656  1.00  0.00    -0.326 N 
HETATM    2  C   UNL     1      -6.154 -12.614 -39.114  1.00  0.00     0.226 C 
HETATM    3  O   UNL     1      -5.847 -11.875 -40.045  1.00  0.00    -0.273 OA
HETATM    4  H   UNL     1      -5.806 -14.227 -37.891  1.00  0.00     0.169 HD
ENDROOT
BRANCH   1   5
HETATM    5  C   UNL     1      -4.173 -14.133 -39.163  1.00  0.00     0.053 A 
HETATM    6  C   UNL     1      -3.999 -14.875 -40.325  1.00  0.00     0.146 A 
HETATM    7  N   UNL     1      -2.794 -15.290 -40.796  1.00  0.00    -0.258 NA
HETATM    8  C   UNL     1      -1.694 -14.962 -40.101  1.00  0.00     0.066 A 
HETATM    9  C   UNL     1      -1.756 -14.209 -38.911  1.00  0.00    -0.005 A 
HETATM   10  C   UNL     1      -0.449 -15.370 -40.560  1.00  0.00     0.032 A 
HETATM   11  C   UNL     1      -0.572 -13.883 -38.221  1.00  0.00     0.014 A 
HETATM   12  C   UNL     1      -3.019 -13.804 -38.449  1.00  0.00     0.044 A 
HETATM   13  C   UNL     1       0.665 -14.302 -38.707  1.00  0.00     0.001 A 
HETATM   14  C   UNL     1       0.727 -15.049 -39.878  1.00  0.00     0.002 A 
ENDBRANCH   1   5
BRANCH   2  15
HETATM   15  C   UNL     1      -7.446 -12.399 -38.338  1.00  0.00     0.141 C 
BRANCH  15  16
HETATM   16  C   UNL     1      -8.693 -12.873 -39.047  1.00  0.00    -0.049 A 
HETATM   17  C   UNL     1      -9.506 -11.942 -39.715  1.00  0.00     0.010 A 
HETATM   18  C   UNL     1     -10.631 -12.359 -40.431  1.00  0.00     0.037 A 
HETATM   19  C   UNL     1     -10.942 -13.713 -40.488  1.00  0.00     0.065 A 
HETATM   20  C   UNL     1     -10.147 -14.652 -39.845  1.00  0.00     0.037 A 
HETATM   21  C   UNL     1      -9.018 -14.235 -39.136  1.00  0.00     0.010 A 
BRANCH  19  22
HETATM   22  O   UNL     1     -12.025 -14.166 -41.181  1.00  0.00    -0.361 OA
HETATM   23  H   UNL     1     -12.573 -13.405 -41.436  1.00  0.00     0.217 HD
ENDBRANCH  19  22
ENDBRANCH  15  16
ENDBRANCH   2  15
TORSDOF 4
ENDMDL
MODEL 9
REMARK VINA RESULT:      -7.5      1.976      2.374
REMARK  4 active torsions:
REMARK  status: ('A' for Active; 'I' for Inactive)
REMARK    1  A    between atoms: C_7  and  N_8 
REMARK       I    between atoms: N_8  and  C_9 
REMARK    2  A    between atoms: C_9  and  C_10 
REMARK    3  A    between atoms: C_10  and  C_11 
REMARK    4  A    between atoms: C_14  and  O_15 
ROOT
HETATM    1  N   UNL     1      -7.961   1.150 -34.152  1.00  0.00    -0.326 N 
HETATM    2  C   UNL     1      -7.417  -0.090 -33.863  1.00  0.00     0.226 C 
HETATM    3  O   UNL     1      -7.537  -0.699 -32.804  1.00  0.00    -0.273 OA
HETATM    4  H   UNL     1      -7.797   1.520 -35.080  1.00  0.00     0.169 HD
ENDROOT
BRANCH   1   5
HETATM    5  C   UNL     1      -8.743   1.945 -33.286  1.00  0.00     0.053 A 
HETATM    6  C   UNL     1      -8.259   2.666 -32.201  1.00  0.00     0.146 A 
HETATM    7  N   UNL     1      -9.030   3.426 -31.380  1.00  0.00    -0.258 NA
HETATM    8  C   UNL     1     -10.347   3.492 -31.629  1.00  0.00     0.066 A 
HETATM    9  C   UNL     1     -10.942   2.804 -32.705  1.00  0.00    -0.005 A 
HETATM   10  C   UNL     1     -11.159   4.264 -30.809  1.00  0.00     0.032 A 
HETATM   11  C   UNL     1     -12.328   2.914 -32.931  1.00  0.00     0.014 A 
HETATM   12  C   UNL     1     -10.116   2.022 -33.529  1.00  0.00     0.044 A 
HETATM   13  C   UNL     1     -13.119   3.698 -32.094  1.00  0.00     0.001 A 
HETATM   14  C   UNL     1     -12.533   4.373 -31.029  1.00  0.00     0.002 A 
ENDBRANCH   1   5
BRANCH   2  15
HETATM   15  C   UNL     1      -6.613  -0.677 -35.015  1.00  0.00     0.141 C 
BRANCH  15  16
HETATM   16  C   UNL     1      -6.066  -2.062 -34.760  1.00  0.00    -0.049 A 
HETATM   17  C   UNL     1      -6.877  -3.183 -35.006  1.00  0.00     0.010 A 
HETATM   18  C   UNL     1      -6.378  -4.477 -34.838  1.00  0.00     0.037 A 
HETATM   19  C   UNL     1      -5.061  -4.655 -34.431  1.00  0.00     0.065 A 
HETATM   20  C   UNL     1      -4.238  -3.563 -34.194  1.00  0.00     0.037 A 
HETATM   21  C   UNL     1      -4.734  -2.269 -34.369  1.00  0.00     0.010 A 
BRANCH  19  22
HETATM   22  O   UNL     1      -4.530  -5.899 -34.263  1.00  0.00    -0.361 OA
HETATM   23  H   UNL     1      -4.437  -6.319 -35.133  1.00  0.00     0.217 HD
ENDBRANCH  19  22
ENDBRANCH  15  16
ENDBRANCH   2  15
TORSDOF 4
ENDMDL
MODEL 10
REMARK VINA RESULT:      -7.4      2.555      7.900
REMARK  4 active torsions:
REMARK  status: ('A' for Active; 'I' for Inactive)
REMARK    1  A    between atoms: C_7  and  N_8 
REMARK       I    between atoms: N_8  and  C_9 
REMARK    2  A    between atoms: C_9  and  C_10 
REMARK    3  A    between atoms: C_10  and  C_11 
REMARK    4  A    between atoms: C_14  and  O_15 
ROOT
HETATM    1  N   UNL     1      -8.673   0.551 -34.541  1.00  0.00    -0.326 N 
HETATM    2  C   UNL     1      -9.715   0.681 -33.637  1.00  0.00     0.226 C 
HETATM    3  O   UNL     1      -9.794   0.123 -32.546  1.00  0.00    -0.273 OA
HETATM    4  H   UNL     1      -8.735   1.094 -35.393  1.00  0.00     0.169 HD
ENDROOT
BRANCH   1   5
HETATM    5  C   UNL     1      -7.520  -0.248 -34.383  1.00  0.00     0.053 A 
HETATM    6  C   UNL     1      -6.281   0.207 -33.952  1.00  0.00     0.146 A 
HETATM    7  N   UNL     1      -5.183  -0.581 -33.807  1.00  0.00    -0.258 NA
HETATM    8  C   UNL     1      -5.297  -1.887 -34.094  1.00  0.00     0.066 A 
HETATM    9  C   UNL     1      -6.510  -2.454 -34.535  1.00  0.00    -0.005 A 
HETATM   10  C   UNL     1      -4.193  -2.716 -33.951  1.00  0.00     0.032 A 
HETATM   11  C   UNL     1      -6.582  -3.833 -34.814  1.00  0.00     0.014 A 
HETATM   12  C   UNL     1      -7.622  -1.609 -34.681  1.00  0.00     0.044 A 
HETATM   13  C   UNL     1      -5.459  -4.643 -34.659  1.00  0.00     0.001 A 
HETATM   14  C   UNL     1      -4.261  -4.083 -34.229  1.00  0.00     0.002 A 
ENDBRANCH   1   5
BRANCH   2  15
HETATM   15  C   UNL     1     -10.816   1.615 -34.118  1.00  0.00     0.141 C 
BRANCH  15  16
HETATM   16  C   UNL     1     -10.426   3.074 -34.167  1.00  0.00    -0.049 A 
HETATM   17  C   UNL     1     -10.857   3.870 -35.243  1.00  0.00     0.010 A 
HETATM   18  C   UNL     1     -10.564   5.235 -35.284  1.00  0.00     0.037 A 
HETATM   19  C   UNL     1      -9.847   5.813 -34.243  1.00  0.00     0.065 A 
HETATM   20  C   UNL     1      -9.422   5.049 -33.164  1.00  0.00     0.037 A 
HETATM   21  C   UNL     1      -9.721   3.686 -33.120  1.00  0.00     0.010 A 
BRANCH  19  22
HETATM   22  O   UNL     1      -9.547   7.143 -34.238  1.00  0.00    -0.361 OA
HETATM   23  H   UNL     1      -8.678   7.268 -34.653  1.00  0.00     0.217 HD
ENDBRANCH  19  22
ENDBRANCH  15  16
ENDBRANCH   2  15
TORSDOF 4
ENDMDL
