MODEL 1
REMARK VINA RESULT:      -7.7      0.000      0.000
REMARK  4 active torsions:
REMARK  status: ('A' for Active; 'I' for Inactive)
REMARK    1  A    between atoms: C_2  and  C_3 
REMARK    2  A    between atoms: C_3  and  C_4 
REMARK    3  A    between atoms: C_4  and  C_5 
REMARK    4  A    between atoms: C_25  and  N_26 
ROOT
HETATM    1  C   UNL     1      -3.512   1.875 -31.462  1.00  0.00     0.067 A 
HETATM    2  N   UNL     1      -2.488   2.744 -31.409  1.00  0.00    -0.177 NA
HETATM    3  N   UNL     1      -3.071   3.940 -31.203  1.00  0.00    -0.256 N 
HETATM    4  H   UNL     1      -2.486   4.761 -31.103  1.00  0.00     0.191 HD
HETATM    5  C   UNL     1      -4.423   3.856 -31.131  1.00  0.00     0.176 A 
HETATM    6  C   UNL     1      -4.758   2.540 -31.331  1.00  0.00     0.049 A 
HETATM    7  C   UNL     1      -6.195   2.144 -31.301  1.00  0.00     0.144 A 
HETATM    8  C   UNL     1      -6.441   0.977 -30.308  1.00  0.00     0.246 A 
HETATM    9  O   UNL     1      -6.310   0.988 -29.094  1.00  0.00    -0.271 OA
HETATM   10  N   UNL     1      -6.867  -0.115 -31.055  1.00  0.00    -0.325 N 
HETATM   11  C   UNL     1      -6.919   0.182 -32.410  1.00  0.00     0.043 A 
HETATM   12  C   UNL     1      -6.527   1.510 -32.642  1.00  0.00     0.003 A 
HETATM   13  C   UNL     1      -7.293  -0.681 -33.417  1.00  0.00     0.030 A 
HETATM   14  C   UNL     1      -7.276  -0.189 -34.718  1.00  0.00     0.003 A 
HETATM   15  C   UNL     1      -6.896   1.140 -34.978  1.00  0.00     0.007 A 
HETATM   16  C   UNL     1      -6.523   2.016 -33.944  1.00  0.00    -0.051 A 
HETATM   17  C   UNL     1      -6.113   3.421 -34.276  1.00  0.00     0.049 C 
HETATM   18  C   UNL     1      -7.079   3.326 -30.923  1.00  0.00     0.081 A 
HETATM   19  C   UNL     1      -8.549   3.033 -30.673  1.00  0.00     0.021 C 
HETATM   20  N   UNL     1      -9.770   2.789 -30.465  1.00  0.00    -0.096 N 
HETATM   21  C   UNL     1      -6.597   4.583 -30.732  1.00  0.00     0.140 A 
HETATM   22  O   UNL     1      -5.230   4.883 -30.885  1.00  0.00    -0.279 OA
HETATM   23  H   UNL     1      -7.109  -1.003 -30.638  1.00  0.00     0.169 HD
ENDROOT
BRANCH  21  24
HETATM   24  N   UNL     1      -7.345   5.681 -30.370  1.00  0.00    -0.282 NA
HETATM   25  H   UNL     1      -7.057   6.563 -30.786  1.00  0.00     0.126 HD
HETATM   26  H   UNL     1      -8.342   5.509 -30.474  1.00  0.00     0.126 HD
ENDBRANCH  21  24
BRANCH   1  27
HETATM   27  C   UNL     1      -3.225   0.415 -31.606  1.00  0.00     0.062 C 
BRANCH  27  28
HETATM   28  C   UNL     1      -3.297  -0.066 -33.056  1.00  0.00     0.006 C 
BRANCH  28  29
HETATM   29  C   UNL     1      -3.797  -1.508 -33.131  1.00  0.00    -0.004 C 
HETATM   30  C   UNL     1      -3.247  -2.350 -31.992  1.00  0.00     0.005 C 
ENDBRANCH  28  29
ENDBRANCH  27  28
ENDBRANCH   1  27
TORSDOF 4
ENDMDL
MODEL 2
REMARK VINA RESULT:      -7.4      2.057      4.481
REMARK  4 active torsions:
REMARK  status: ('A' for Active; 'I' for Inactive)
REMARK    1  A    between atoms: C_2  and  C_3 
REMARK    2  A    between atoms: C_3  and  C_4 
REMARK    3  A    between atoms: C_4  and  C_5 
REMARK    4  A    between atoms: C_25  and  N_26 
ROOT
HETATM    1  C   UNL     1      -8.258   1.035 -33.858  1.00  0.00     0.067 A 
HETATM    2  N   UNL     1      -9.460   0.433 -33.838  1.00  0.00    -0.177 NA
HETATM    3  N   UNL     1     -10.116   1.025 -32.822  1.00  0.00    -0.256 N 
HETATM    4  H   UNL     1     -11.071   0.746 -32.626  1.00  0.00     0.191 HD
HETATM    5  C   UNL     1      -9.370   1.970 -32.198  1.00  0.00     0.176 A 
HETATM    6  C   UNL     1      -8.142   1.986 -32.811  1.00  0.00     0.049 A 
HETATM    7  C   UNL     1      -7.104   2.943 -32.333  1.00  0.00     0.144 A 
HETATM    8  C   UNL     1      -6.542   3.800 -33.499  1.00  0.00     0.246 A 
HETATM    9  O   UNL     1      -7.137   4.621 -34.179  1.00  0.00    -0.271 OA
HETATM   10  N   UNL     1      -5.196   3.477 -33.634  1.00  0.00    -0.325 N 
HETATM   11  C   UNL     1      -4.809   2.510 -32.717  1.00  0.00     0.043 A 
HETATM   12  C   UNL     1      -5.892   2.134 -31.906  1.00  0.00     0.003 A 
HETATM   13  C   UNL     1      -3.548   1.968 -32.593  1.00  0.00     0.030 A 
HETATM   14  C   UNL     1      -3.363   1.004 -31.606  1.00  0.00     0.003 A 
HETATM   15  C   UNL     1      -4.427   0.614 -30.774  1.00  0.00     0.007 A 
HETATM   16  C   UNL     1      -5.709   1.179 -30.903  1.00  0.00    -0.051 A 
HETATM   17  C   UNL     1      -6.814   0.718 -29.999  1.00  0.00     0.049 C 
HETATM   18  C   UNL     1      -7.665   3.862 -31.255  1.00  0.00     0.081 A 
HETATM   19  C   UNL     1      -6.778   5.010 -30.801  1.00  0.00     0.021 C 
HETATM   20  N   UNL     1      -6.042   5.963 -30.424  1.00  0.00    -0.096 N 
HETATM   21  C   UNL     1      -8.923   3.739 -30.755  1.00  0.00     0.140 A 
HETATM   22  O   UNL     1      -9.801   2.732 -31.199  1.00  0.00    -0.279 OA
HETATM   23  H   UNL     1      -4.595   3.911 -34.320  1.00  0.00     0.169 HD
ENDROOT
BRANCH  21  24
HETATM   24  N   UNL     1      -9.487   4.552 -29.797  1.00  0.00    -0.282 NA
HETATM   25  H   UNL     1      -8.849   5.201 -29.343  1.00  0.00     0.126 HD
HETATM   26  H   UNL     1     -10.330   5.009 -30.138  1.00  0.00     0.126 HD
ENDBRANCH  21  24
BRANCH   1  27
HETATM   27  C   UNL     1      -7.278   0.675 -34.927  1.00  0.00     0.062 C 
BRANCH  27  28
HETATM   28  C   UNL     1      -6.892  -0.805 -34.908  1.00  0.00     0.006 C 
BRANCH  28  29
HETATM   29  C   UNL     1      -6.244  -1.186 -33.577  1.00  0.00    -0.004 C 
HETATM   30  C   UNL     1      -4.816  -1.670 -33.770  1.00  0.00     0.005 C 
ENDBRANCH  28  29
ENDBRANCH  27  28
ENDBRANCH   1  27
TORSDOF 4
ENDMDL
MODEL 3
REMARK VINA RESULT:      -7.4      2.075      4.778
REMARK  4 active torsions:
REMARK  status: ('A' for Active; 'I' for Inactive)
REMARK    1  A    between atoms: C_2  and  C_3 
REMARK    2  A    between atoms: C_3  and  C_4 
REMARK    3  A    between atoms: C_4  and  C_5 
REMARK    4  A    between atoms: C_25  and  N_26 
ROOT
HETATM    1  C   UNL     1      -8.818   2.995 -31.489  1.00  0.00     0.067 A 
HETATM    2  N   UNL     1      -9.504   3.485 -30.442  1.00  0.00    -0.177 NA
HETATM    3  N   UNL     1      -8.582   4.142 -29.713  1.00  0.00    -0.256 N 
HETATM    4  H   UNL     1      -8.875   4.624 -28.870  1.00  0.00     0.191 HD
HETATM    5  C   UNL     1      -7.343   4.080 -30.259  1.00  0.00     0.176 A 
HETATM    6  C   UNL     1      -7.438   3.313 -31.393  1.00  0.00     0.049 A 
HETATM    7  C   UNL     1      -6.217   3.073 -32.213  1.00  0.00     0.144 A 
HETATM    8  C   UNL     1      -6.447   3.451 -33.700  1.00  0.00     0.246 A 
HETATM    9  O   UNL     1      -6.669   4.559 -34.165  1.00  0.00    -0.271 OA
HETATM   10  N   UNL     1      -6.339   2.281 -34.443  1.00  0.00    -0.325 N 
HETATM   11  C   UNL     1      -6.081   1.185 -33.633  1.00  0.00     0.043 A 
HETATM   12  C   UNL     1      -5.998   1.571 -32.286  1.00  0.00     0.003 A 
HETATM   13  C   UNL     1      -5.925  -0.118 -34.056  1.00  0.00     0.030 A 
HETATM   14  C   UNL     1      -5.672  -1.079 -33.082  1.00  0.00     0.003 A 
HETATM   15  C   UNL     1      -5.575  -0.718 -31.726  1.00  0.00     0.007 A 
HETATM   16  C   UNL     1      -5.728   0.615 -31.305  1.00  0.00    -0.051 A 
HETATM   17  C   UNL     1      -5.629   0.944 -29.845  1.00  0.00     0.049 C 
HETATM   18  C   UNL     1      -5.031   3.860 -31.668  1.00  0.00     0.081 A 
HETATM   19  C   UNL     1      -3.762   3.859 -32.506  1.00  0.00     0.021 C 
HETATM   20  N   UNL     1      -2.709   3.859 -33.201  1.00  0.00    -0.096 N 
HETATM   21  C   UNL     1      -5.092   4.603 -30.531  1.00  0.00     0.140 A 
HETATM   22  O   UNL     1      -6.269   4.686 -29.764  1.00  0.00    -0.279 OA
HETATM   23  H   UNL     1      -6.435   2.260 -35.449  1.00  0.00     0.169 HD
ENDROOT
BRANCH  21  24
HETATM   24  N   UNL     1      -4.060   5.348 -30.006  1.00  0.00    -0.282 NA
HETATM   25  H   UNL     1      -3.127   5.073 -30.301  1.00  0.00     0.126 HD
HETATM   26  H   UNL     1      -4.223   6.347 -30.112  1.00  0.00     0.126 HD
ENDBRANCH  21  24
BRANCH   1  27
HETATM   27  C   UNL     1      -9.551   2.260 -32.563  1.00  0.00     0.062 C 
BRANCH  27  28
HETATM   28  C   UNL     1      -9.503   0.742 -32.386  1.00  0.00     0.006 C 
BRANCH  28  29
HETATM   29  C   UNL     1     -10.688   0.070 -33.080  1.00  0.00    -0.004 C 
HETATM   30  C   UNL     1     -11.584   1.088 -33.765  1.00  0.00     0.005 C 
ENDBRANCH  28  29
ENDBRANCH  27  28
ENDBRANCH   1  27
TORSDOF 4
ENDMDL
MODEL 4
REMARK VINA RESULT:      -7.3      1.734      3.365
REMARK  4 active torsions:
REMARK  status: ('A' for Active; 'I' for Inactive)
REMARK    1  A    between atoms: C_2  and  C_3 
REMARK    2  A    between atoms: C_3  and  C_4 
REMARK    3  A    between atoms: C_4  and  C_5 
REMARK    4  A    between atoms: C_25  and  N_26 
ROOT
HETATM    1  C   UNL     1      -5.262  -0.158 -32.549  1.00  0.00     0.067 A 
HETATM    2  N   UNL     1      -4.209  -0.714 -33.174  1.00  0.00    -0.177 NA
HETATM    3  N   UNL     1      -3.234   0.209 -33.077  1.00  0.00    -0.256 N 
HETATM    4  H   UNL     1      -2.320  -0.000 -33.463  1.00  0.00     0.191 HD
HETATM    5  C   UNL     1      -3.635   1.326 -32.422  1.00  0.00     0.176 A 
HETATM    6  C   UNL     1      -4.956   1.150 -32.093  1.00  0.00     0.049 A 
HETATM    7  C   UNL     1      -5.670   2.228 -31.352  1.00  0.00     0.144 A 
HETATM    8  C   UNL     1      -6.352   1.681 -30.070  1.00  0.00     0.246 A 
HETATM    9  O   UNL     1      -5.815   1.210 -29.079  1.00  0.00    -0.271 OA
HETATM   10  N   UNL     1      -7.724   1.835 -30.236  1.00  0.00    -0.325 N 
HETATM   11  C   UNL     1      -8.027   2.400 -31.467  1.00  0.00     0.043 A 
HETATM   12  C   UNL     1      -6.857   2.661 -32.196  1.00  0.00     0.003 A 
HETATM   13  C   UNL     1      -9.291   2.679 -31.942  1.00  0.00     0.030 A 
HETATM   14  C   UNL     1      -9.385   3.247 -33.209  1.00  0.00     0.003 A 
HETATM   15  C   UNL     1      -8.228   3.526 -33.958  1.00  0.00     0.007 A 
HETATM   16  C   UNL     1      -6.942   3.247 -33.462  1.00  0.00    -0.051 A 
HETATM   17  C   UNL     1      -5.741   3.551 -34.306  1.00  0.00     0.049 C 
HETATM   18  C   UNL     1      -4.716   3.356 -30.975  1.00  0.00     0.081 A 
HETATM   19  C   UNL     1      -5.260   4.439 -30.058  1.00  0.00     0.021 C 
HETATM   20  N   UNL     1      -5.711   5.338 -29.297  1.00  0.00    -0.096 N 
HETATM   21  C   UNL     1      -3.412   3.383 -31.358  1.00  0.00     0.140 A 
HETATM   22  O   UNL     1      -2.851   2.364 -32.149  1.00  0.00    -0.279 OA
HETATM   23  H   UNL     1      -8.395   1.566 -29.531  1.00  0.00     0.169 HD
ENDROOT
BRANCH  21  24
HETATM   24  N   UNL     1      -2.503   4.364 -31.030  1.00  0.00    -0.282 NA
HETATM   25  H   UNL     1      -2.001   4.776 -31.814  1.00  0.00     0.126 HD
HETATM   26  H   UNL     1      -2.909   5.066 -30.416  1.00  0.00     0.126 HD
ENDBRANCH  21  24
BRANCH   1  27
HETATM   27  C   UNL     1      -6.521  -0.948 -32.395  1.00  0.00     0.062 C 
BRANCH  27  28
HETATM   28  C   UNL     1      -7.615  -0.521 -33.374  1.00  0.00     0.006 C 
BRANCH  28  29
HETATM   29  C   UNL     1      -7.232  -0.872 -34.812  1.00  0.00    -0.004 C 
HETATM   30  C   UNL     1      -7.119   0.372 -35.678  1.00  0.00     0.005 C 
ENDBRANCH  28  29
ENDBRANCH  27  28
ENDBRANCH   1  27
TORSDOF 4
ENDMDL
MODEL 5
REMARK VINA RESULT:      -7.1      2.052      2.657
REMARK  4 active torsions:
REMARK  status: ('A' for Active; 'I' for Inactive)
REMARK    1  A    between atoms: C_2  and  C_3 
REMARK    2  A    between atoms: C_3  and  C_4 
REMARK    3  A    between atoms: C_4  and  C_5 
REMARK    4  A    between atoms: C_25  and  N_26 
ROOT
HETATM    1  C   UNL     1      -6.169   2.663 -30.309  1.00  0.00     0.067 A 
HETATM    2  N   UNL     1      -5.141   3.362 -29.800  1.00  0.00    -0.177 NA
HETATM    3  N   UNL     1      -5.291   4.600 -30.308  1.00  0.00    -0.256 N 
HETATM    4  H   UNL     1      -4.633   5.323 -30.041  1.00  0.00     0.191 HD
HETATM    5  C   UNL     1      -6.370   4.704 -31.122  1.00  0.00     0.176 A 
HETATM    6  C   UNL     1      -6.951   3.461 -31.184  1.00  0.00     0.049 A 
HETATM    7  C   UNL     1      -8.175   3.272 -32.012  1.00  0.00     0.144 A 
HETATM    8  C   UNL     1      -9.322   2.625 -31.191  1.00  0.00     0.246 A 
HETATM    9  O   UNL     1      -9.915   3.096 -30.233  1.00  0.00    -0.271 OA
HETATM   10  N   UNL     1      -9.582   1.382 -31.757  1.00  0.00    -0.325 N 
HETATM   11  C   UNL     1      -8.745   1.127 -32.834  1.00  0.00     0.043 A 
HETATM   12  C   UNL     1      -7.871   2.205 -33.049  1.00  0.00     0.003 A 
HETATM   13  C   UNL     1      -8.741  -0.015 -33.607  1.00  0.00     0.030 A 
HETATM   14  C   UNL     1      -7.817  -0.078 -34.646  1.00  0.00     0.003 A 
HETATM   15  C   UNL     1      -6.936   0.990 -34.889  1.00  0.00     0.007 A 
HETATM   16  C   UNL     1      -6.953   2.155 -34.101  1.00  0.00    -0.051 A 
HETATM   17  C   UNL     1      -5.982   3.260 -34.394  1.00  0.00     0.049 C 
HETATM   18  C   UNL     1      -8.654   4.599 -32.590  1.00  0.00     0.081 A 
HETATM   19  C   UNL     1      -9.995   4.594 -33.305  1.00  0.00     0.021 C 
HETATM   20  N   UNL     1     -11.108   4.590 -33.899  1.00  0.00    -0.096 N 
HETATM   21  C   UNL     1      -7.978   5.767 -32.425  1.00  0.00     0.140 A 
HETATM   22  O   UNL     1      -6.768   5.828 -31.709  1.00  0.00    -0.279 OA
HETATM   23  H   UNL     1     -10.302   0.762 -31.412  1.00  0.00     0.169 HD
ENDROOT
BRANCH  21  24
HETATM   24  N   UNL     1      -8.373   6.995 -32.906  1.00  0.00    -0.282 NA
HETATM   25  H   UNL     1      -7.644   7.547 -33.351  1.00  0.00     0.126 HD
HETATM   26  H   UNL     1      -9.212   6.924 -33.478  1.00  0.00     0.126 HD
ENDBRANCH  21  24
BRANCH   1  27
HETATM   27  C   UNL     1      -6.365   1.242 -29.890  1.00  0.00     0.062 C 
BRANCH  27  28
HETATM   28  C   UNL     1      -5.225   0.326 -30.338  1.00  0.00     0.006 C 
BRANCH  28  29
HETATM   29  C   UNL     1      -5.605  -0.447 -31.600  1.00  0.00    -0.004 C 
HETATM   30  C   UNL     1      -4.500  -0.394 -32.642  1.00  0.00     0.005 C 
ENDBRANCH  28  29
ENDBRANCH  27  28
ENDBRANCH   1  27
TORSDOF 4
ENDMDL
MODEL 6
REMARK VINA RESULT:      -7.0      2.663      4.134
REMARK  4 active torsions:
REMARK  status: ('A' for Active; 'I' for Inactive)
REMARK    1  A    between atoms: C_2  and  C_3 
REMARK    2  A    between atoms: C_3  and  C_4 
REMARK    3  A    between atoms: C_4  and  C_5 
REMARK    4  A    between atoms: C_25  and  N_26 
ROOT
HETATM    1  C   UNL     1      -6.919   4.914 -31.845  1.00  0.00     0.067 A 
HETATM    2  N   UNL     1      -6.572   6.087 -32.403  1.00  0.00    -0.177 NA
HETATM    3  N   UNL     1      -7.330   6.169 -33.513  1.00  0.00    -0.256 N 
HETATM    4  H   UNL     1      -7.258   6.995 -34.097  1.00  0.00     0.191 HD
HETATM    5  C   UNL     1      -8.135   5.090 -33.677  1.00  0.00     0.176 A 
HETATM    6  C   UNL     1      -7.876   4.231 -32.638  1.00  0.00     0.049 A 
HETATM    7  C   UNL     1      -8.627   2.946 -32.555  1.00  0.00     0.144 A 
HETATM    8  C   UNL     1      -9.298   2.770 -31.166  1.00  0.00     0.246 A 
HETATM    9  O   UNL     1     -10.189   3.445 -30.674  1.00  0.00    -0.271 OA
HETATM   10  N   UNL     1      -8.706   1.668 -30.560  1.00  0.00    -0.325 N 
HETATM   11  C   UNL     1      -7.726   1.108 -31.367  1.00  0.00     0.043 A 
HETATM   12  C   UNL     1      -7.612   1.816 -32.574  1.00  0.00     0.003 A 
HETATM   13  C   UNL     1      -6.948   0.012 -31.059  1.00  0.00     0.030 A 
HETATM   14  C   UNL     1      -6.014  -0.395 -32.007  1.00  0.00     0.003 A 
HETATM   15  C   UNL     1      -5.886   0.291 -33.228  1.00  0.00     0.007 A 
HETATM   16  C   UNL     1      -6.689   1.403 -33.538  1.00  0.00    -0.051 A 
HETATM   17  C   UNL     1      -6.502   2.107 -34.849  1.00  0.00     0.049 C 
HETATM   18  C   UNL     1      -9.690   2.863 -33.644  1.00  0.00     0.081 A 
HETATM   19  C   UNL     1     -10.657   1.693 -33.573  1.00  0.00     0.021 C 
HETATM   20  N   UNL     1     -11.460   0.721 -33.514  1.00  0.00    -0.096 N 
HETATM   21  C   UNL     1      -9.845   3.813 -34.603  1.00  0.00     0.140 A 
HETATM   22  O   UNL     1      -9.015   4.948 -34.663  1.00  0.00    -0.279 OA
HETATM   23  H   UNL     1      -8.978   1.332 -29.647  1.00  0.00     0.169 HD
ENDROOT
BRANCH  21  24
HETATM   24  N   UNL     1     -10.798   3.799 -35.597  1.00  0.00    -0.282 NA
HETATM   25  H   UNL     1     -11.651   3.288 -35.379  1.00  0.00     0.126 HD
HETATM   26  H   UNL     1     -10.985   4.733 -35.954  1.00  0.00     0.126 HD
ENDBRANCH  21  24
BRANCH   1  27
HETATM   27  C   UNL     1      -6.320   4.524 -30.533  1.00  0.00     0.062 C 
BRANCH  27  28
HETATM   28  C   UNL     1      -4.799   4.381 -30.591  1.00  0.00     0.006 C 
BRANCH  28  29
HETATM   29  C   UNL     1      -4.397   2.984 -31.064  1.00  0.00    -0.004 C 
HETATM   30  C   UNL     1      -3.520   3.044 -32.303  1.00  0.00     0.005 C 
ENDBRANCH  28  29
ENDBRANCH  27  28
ENDBRANCH   1  27
TORSDOF 4
ENDMDL
MODEL 7
REMARK VINA RESULT:      -7.0      1.736      2.204
REMARK  4 active torsions:
REMARK  status: ('A' for Active; 'I' for Inactive)
REMARK    1  A    between atoms: C_2  and  C_3 
REMARK    2  A    between atoms: C_3  and  C_4 
REMARK    3  A    between atoms: C_4  and  C_5 
REMARK    4  A    between atoms: C_25  and  N_26 
ROOT
HETATM    1  C   UNL     1      -4.958   1.842 -30.806  1.00  0.00     0.067 A 
HETATM    2  N   UNL     1      -3.629   2.029 -30.872  1.00  0.00    -0.177 NA
HETATM    3  N   UNL     1      -3.488   3.262 -31.397  1.00  0.00    -0.256 N 
HETATM    4  H   UNL     1      -2.555   3.638 -31.521  1.00  0.00     0.191 HD
HETATM    5  C   UNL     1      -4.678   3.853 -31.667  1.00  0.00     0.176 A 
HETATM    6  C   UNL     1      -5.661   2.954 -31.336  1.00  0.00     0.049 A 
HETATM    7  C   UNL     1      -7.089   3.338 -31.525  1.00  0.00     0.144 A 
HETATM    8  C   UNL     1      -7.908   3.135 -30.223  1.00  0.00     0.246 A 
HETATM    9  O   UNL     1      -7.781   3.723 -29.160  1.00  0.00    -0.271 OA
HETATM   10  N   UNL     1      -8.855   2.151 -30.481  1.00  0.00    -0.325 N 
HETATM   11  C   UNL     1      -8.752   1.673 -31.780  1.00  0.00     0.043 A 
HETATM   12  C   UNL     1      -7.718   2.327 -32.469  1.00  0.00     0.003 A 
HETATM   13  C   UNL     1      -9.535   0.692 -32.349  1.00  0.00     0.030 A 
HETATM   14  C   UNL     1      -9.270   0.352 -33.672  1.00  0.00     0.003 A 
HETATM   15  C   UNL     1      -8.246   0.997 -34.388  1.00  0.00     0.007 A 
HETATM   16  C   UNL     1      -7.457   2.003 -33.802  1.00  0.00    -0.051 A 
HETATM   17  C   UNL     1      -6.368   2.650 -34.606  1.00  0.00     0.049 C 
HETATM   18  C   UNL     1      -7.209   4.788 -31.978  1.00  0.00     0.081 A 
HETATM   19  C   UNL     1      -8.610   5.377 -32.036  1.00  0.00     0.021 C 
HETATM   20  N   UNL     1      -9.772   5.865 -32.083  1.00  0.00    -0.096 N 
HETATM   21  C   UNL     1      -6.133   5.573 -32.250  1.00  0.00     0.140 A 
HETATM   22  O   UNL     1      -4.816   5.087 -32.141  1.00  0.00    -0.279 OA
HETATM   23  H   UNL     1      -9.527   1.842 -29.793  1.00  0.00     0.169 HD
ENDROOT
BRANCH  21  24
HETATM   24  N   UNL     1      -6.183   6.891 -32.642  1.00  0.00    -0.282 NA
HETATM   25  H   UNL     1      -6.493   7.053 -33.597  1.00  0.00     0.126 HD
HETATM   26  H   UNL     1      -6.682   7.467 -31.968  1.00  0.00     0.126 HD
ENDBRANCH  21  24
BRANCH   1  27
HETATM   27  C   UNL     1      -5.489   0.587 -30.192  1.00  0.00     0.062 C 
BRANCH  27  28
HETATM   28  C   UNL     1      -6.024  -0.403 -31.228  1.00  0.00     0.006 C 
BRANCH  28  29
HETATM   29  C   UNL     1      -5.061  -0.538 -32.407  1.00  0.00    -0.004 C 
HETATM   30  C   UNL     1      -5.656  -1.383 -33.520  1.00  0.00     0.005 C 
ENDBRANCH  28  29
ENDBRANCH  27  28
ENDBRANCH   1  27
TORSDOF 4
ENDMDL
MODEL 8
REMARK VINA RESULT:      -7.0     16.126     18.058
REMARK  4 active torsions:
REMARK  status: ('A' for Active; 'I' for Inactive)
REMARK    1  A    between atoms: C_2  and  C_3 
REMARK    2  A    between atoms: C_3  and  C_4 
REMARK    3  A    between atoms: C_4  and  C_5 
REMARK    4  A    between atoms: C_25  and  N_26 
ROOT
HETATM    1  C   UNL     1      -5.715 -12.613 -38.827  1.00  0.00     0.067 A 
HETATM    2  N   UNL     1      -6.884 -12.418 -38.193  1.00  0.00    -0.177 NA
HETATM    3  N   UNL     1      -6.717 -13.006 -36.993  1.00  0.00    -0.256 N 
HETATM    4  H   UNL     1      -7.473 -12.967 -36.318  1.00  0.00     0.191 HD
HETATM    5  C   UNL     1      -5.491 -13.568 -36.852  1.00  0.00     0.176 A 
HETATM    6  C   UNL     1      -4.818 -13.371 -38.032  1.00  0.00     0.049 A 
HETATM    7  C   UNL     1      -3.425 -13.885 -38.168  1.00  0.00     0.144 A 
HETATM    8  C   UNL     1      -2.451 -12.768 -38.629  1.00  0.00     0.246 A 
HETATM    9  O   UNL     1      -2.132 -11.757 -38.023  1.00  0.00    -0.271 OA
HETATM   10  N   UNL     1      -1.973 -13.131 -39.882  1.00  0.00    -0.325 N 
HETATM   11  C   UNL     1      -2.519 -14.334 -40.307  1.00  0.00     0.043 A 
HETATM   12  C   UNL     1      -3.401 -14.847 -39.343  1.00  0.00     0.003 A 
HETATM   13  C   UNL     1      -2.258 -14.966 -41.504  1.00  0.00     0.030 A 
HETATM   14  C   UNL     1      -2.912 -16.171 -41.745  1.00  0.00     0.003 A 
HETATM   15  C   UNL     1      -3.793 -16.712 -40.792  1.00  0.00     0.007 A 
HETATM   16  C   UNL     1      -4.047 -16.065 -39.570  1.00  0.00    -0.051 A 
HETATM   17  C   UNL     1      -5.007 -16.678 -38.594  1.00  0.00     0.049 C 
HETATM   18  C   UNL     1      -2.931 -14.476 -36.853  1.00  0.00     0.081 A 
HETATM   19  C   UNL     1      -1.465 -14.874 -36.786  1.00  0.00     0.021 C 
HETATM   20  N   UNL     1      -0.249 -15.203 -36.730  1.00  0.00    -0.096 N 
HETATM   21  C   UNL     1      -3.714 -14.586 -35.747  1.00  0.00     0.140 A 
HETATM   22  O   UNL     1      -5.057 -14.166 -35.747  1.00  0.00    -0.279 OA
HETATM   23  H   UNL     1      -1.306 -12.573 -40.398  1.00  0.00     0.169 HD
ENDROOT
BRANCH  21  24
HETATM   24  N   UNL     1      -3.315 -15.093 -34.531  1.00  0.00    -0.282 NA
HETATM   25  H   UNL     1      -4.066 -15.366 -33.902  1.00  0.00     0.126 HD
HETATM   26  H   UNL     1      -2.613 -15.821 -34.637  1.00  0.00     0.126 HD
ENDBRANCH  21  24
BRANCH   1  27
HETATM   27  C   UNL     1      -5.512 -12.017 -40.183  1.00  0.00     0.062 C 
BRANCH  27  28
HETATM   28  C   UNL     1      -6.505 -12.541 -41.220  1.00  0.00     0.006 C 
BRANCH  28  29
HETATM   29  C   UNL     1      -6.094 -13.924 -41.724  1.00  0.00    -0.004 C 
HETATM   30  C   UNL     1      -7.089 -14.991 -41.302  1.00  0.00     0.005 C 
ENDBRANCH  28  29
ENDBRANCH  27  28
ENDBRANCH   1  27
TORSDOF 4
ENDMDL
MODEL 9
REMARK VINA RESULT:      -6.8     16.015     18.082
REMARK  4 active torsions:
REMARK  status: ('A' for Active; 'I' for Inactive)
REMARK    1  A    between atoms: C_2  and  C_3 
REMARK    2  A    between atoms: C_3  and  C_4 
REMARK    3  A    between atoms: C_4  and  C_5 
REMARK    4  A    between atoms: C_25  and  N_26 
ROOT
HETATM    1  C   UNL     1      -6.712 -13.505 -37.181  1.00  0.00     0.067 A 
HETATM    2  N   UNL     1      -7.228 -13.910 -36.007  1.00  0.00    -0.177 NA
HETATM    3  N   UNL     1      -6.264 -14.675 -35.461  1.00  0.00    -0.256 N 
HETATM    4  H   UNL     1      -6.419 -15.080 -34.545  1.00  0.00     0.191 HD
HETATM    5  C   UNL     1      -5.165 -14.771 -36.249  1.00  0.00     0.176 A 
HETATM    6  C   UNL     1      -5.424 -14.059 -37.394  1.00  0.00     0.049 A 
HETATM    7  C   UNL     1      -4.378 -13.983 -38.454  1.00  0.00     0.144 A 
HETATM    8  C   UNL     1      -4.075 -12.513 -38.848  1.00  0.00     0.246 A 
HETATM    9  O   UNL     1      -3.583 -11.638 -38.152  1.00  0.00    -0.271 OA
HETATM   10  N   UNL     1      -4.455 -12.357 -40.176  1.00  0.00    -0.325 N 
HETATM   11  C   UNL     1      -4.980 -13.530 -40.697  1.00  0.00     0.043 A 
HETATM   12  C   UNL     1      -4.975 -14.549 -39.731  1.00  0.00     0.003 A 
HETATM   13  C   UNL     1      -5.455 -13.708 -41.980  1.00  0.00     0.030 A 
HETATM   14  C   UNL     1      -5.945 -14.968 -42.309  1.00  0.00     0.003 A 
HETATM   15  C   UNL     1      -5.944 -16.009 -41.364  1.00  0.00     0.007 A 
HETATM   16  C   UNL     1      -5.450 -15.821 -40.060  1.00  0.00    -0.051 A 
HETATM   17  C   UNL     1      -5.484 -16.960 -39.086  1.00  0.00     0.049 C 
HETATM   18  C   UNL     1      -3.091 -14.662 -38.001  1.00  0.00     0.081 A 
HETATM   19  C   UNL     1      -1.877 -14.506 -38.902  1.00  0.00     0.021 C 
HETATM   20  N   UNL     1      -0.870 -14.376 -39.650  1.00  0.00    -0.096 N 
HETATM   21  C   UNL     1      -2.975 -15.317 -36.816  1.00  0.00     0.140 A 
HETATM   22  O   UNL     1      -4.056 -15.425 -35.920  1.00  0.00    -0.279 OA
HETATM   23  H   UNL     1      -4.346 -11.486 -40.678  1.00  0.00     0.169 HD
ENDROOT
BRANCH  21  24
HETATM   24  N   UNL     1      -1.834 -15.929 -36.348  1.00  0.00    -0.282 NA
HETATM   25  H   UNL     1      -1.104 -15.302 -36.018  1.00  0.00     0.126 HD
HETATM   26  H   UNL     1      -2.047 -16.665 -35.678  1.00  0.00     0.126 HD
ENDBRANCH  21  24
BRANCH   1  27
HETATM   27  C   UNL     1      -7.493 -12.560 -38.035  1.00  0.00     0.062 C 
BRANCH  27  28
HETATM   28  C   UNL     1      -8.387 -13.274 -39.049  1.00  0.00     0.006 C 
BRANCH  28  29
HETATM   29  C   UNL     1      -8.645 -12.391 -40.270  1.00  0.00    -0.004 C 
HETATM   30  C   UNL     1     -10.074 -11.874 -40.294  1.00  0.00     0.005 C 
ENDBRANCH  28  29
ENDBRANCH  27  28
ENDBRANCH   1  27
TORSDOF 4
ENDMDL
MODEL 10
REMARK VINA RESULT:      -6.8      1.908      2.999
REMARK  4 active torsions:
REMARK  status: ('A' for Active; 'I' for Inactive)
REMARK    1  A    between atoms: C_2  and  C_3 
REMARK    2  A    between atoms: C_3  and  C_4 
REMARK    3  A    between atoms: C_4  and  C_5 
REMARK    4  A    between atoms: C_25  and  N_26 
ROOT
HETATM    1  C   UNL     1      -4.049   4.005 -32.646  1.00  0.00     0.067 A 
HETATM    2  N   UNL     1      -3.521   4.500 -33.779  1.00  0.00    -0.177 NA
HETATM    3  N   UNL     1      -4.579   4.974 -34.464  1.00  0.00    -0.256 N 
HETATM    4  H   UNL     1      -4.423   5.425 -35.359  1.00  0.00     0.191 HD
HETATM    5  C   UNL     1      -5.752   4.790 -33.809  1.00  0.00     0.176 A 
HETATM    6  C   UNL     1      -5.463   4.131 -32.640  1.00  0.00     0.049 A 
HETATM    7  C   UNL     1      -6.572   3.795 -31.702  1.00  0.00     0.144 A 
HETATM    8  C   UNL     1      -6.279   4.311 -30.269  1.00  0.00     0.246 A 
HETATM    9  O   UNL     1      -6.175   5.470 -29.897  1.00  0.00    -0.271 OA
HETATM   10  N   UNL     1      -6.167   3.197 -29.445  1.00  0.00    -0.325 N 
HETATM   11  C   UNL     1      -6.335   2.018 -30.157  1.00  0.00     0.043 A 
HETATM   12  C   UNL     1      -6.575   2.287 -31.513  1.00  0.00     0.003 A 
HETATM   13  C   UNL     1      -6.276   0.742 -29.639  1.00  0.00     0.030 A 
HETATM   14  C   UNL     1      -6.471  -0.315 -30.524  1.00  0.00     0.003 A 
HETATM   15  C   UNL     1      -6.722  -0.074 -31.886  1.00  0.00     0.007 A 
HETATM   16  C   UNL     1      -6.788   1.232 -32.404  1.00  0.00    -0.051 A 
HETATM   17  C   UNL     1      -7.046   1.434 -33.868  1.00  0.00     0.049 C 
HETATM   18  C   UNL     1      -7.893   4.376 -32.190  1.00  0.00     0.081 A 
HETATM   19  C   UNL     1      -9.080   4.272 -31.245  1.00  0.00     0.021 C 
HETATM   20  N   UNL     1     -10.065   4.186 -30.461  1.00  0.00    -0.096 N 
HETATM   21  C   UNL     1      -8.024   5.032 -33.373  1.00  0.00     0.140 A 
HETATM   22  O   UNL     1      -6.934   5.211 -34.245  1.00  0.00    -0.279 OA
HETATM   23  H   UNL     1      -5.990   3.265 -28.452  1.00  0.00     0.169 HD
ENDROOT
BRANCH  21  24
HETATM   24  N   UNL     1      -9.187   5.593 -33.852  1.00  0.00    -0.282 NA
HETATM   25  H   UNL     1     -10.006   5.474 -33.262  1.00  0.00     0.126 HD
HETATM   26  H   UNL     1      -9.050   6.560 -34.138  1.00  0.00     0.126 HD
ENDBRANCH  21  24
BRANCH   1  27
HETATM   27  C   UNL     1      -3.140   3.456 -31.595  1.00  0.00     0.062 C 
BRANCH  27  28
HETATM   28  C   UNL     1      -3.299   1.948 -31.399  1.00  0.00     0.006 C 
BRANCH  28  29
HETATM   29  C   UNL     1      -3.261   1.213 -32.738  1.00  0.00    -0.004 C 
HETATM   30  C   UNL     1      -3.165  -0.292 -32.548  1.00  0.00     0.005 C 
ENDBRANCH  28  29
ENDBRANCH  27  28
ENDBRANCH   1  27
TORSDOF 4
ENDMDL
