MODEL 1
REMARK VINA RESULT:      -9.1      0.000      0.000
REMARK  2 active torsions:
REMARK  status: ('A' for Active; 'I' for Inactive)
REMARK    1  A    between atoms: C_4  and  C_5 
REMARK    2  A    between atoms: C_11  and  C_12 
ROOT
HETATM    1  C   UNL     1      -7.432  -0.640 -34.350  1.00  0.00     0.098 A 
HETATM    2  N   UNL     1      -7.962  -0.241 -35.525  1.00  0.00    -0.172 NA
HETATM    3  N   UNL     1      -8.798   0.759 -35.206  1.00  0.00    -0.261 N 
HETATM    4  H   UNL     1      -9.306   1.218 -35.954  1.00  0.00     0.191 HD
HETATM    5  C   UNL     1      -8.820   1.022 -33.876  1.00  0.00     0.133 A 
HETATM    6  C   UNL     1      -7.966   0.133 -33.276  1.00  0.00     0.028 A 
HETATM    7  C   UNL     1      -7.729   0.176 -31.808  1.00  0.00     0.067 C 
HETATM    8  C   UNL     1      -8.805   1.009 -31.087  1.00  0.00     0.117 C 
HETATM    9  C   UNL     1      -9.410   2.160 -31.886  1.00  0.00     0.224 C 
HETATM   10  O   UNL     1      -9.908   3.139 -31.331  1.00  0.00    -0.273 OA
HETATM   11  N   UNL     1      -9.509   2.023 -33.251  1.00  0.00    -0.312 N 
HETATM   12  H   UNL     1     -10.009   2.745 -33.755  1.00  0.00     0.170 HD
ENDROOT
BRANCH   7  13
HETATM   13  C   UNL     1      -6.321   0.703 -31.566  1.00  0.00    -0.046 A 
HETATM   14  C   UNL     1      -5.988   1.967 -32.095  1.00  0.00     0.047 A 
HETATM   15  C   UNL     1      -4.705   2.441 -31.919  1.00  0.00     0.105 A 
HETATM   16  C   UNL     1      -3.752   1.719 -31.243  1.00  0.00     0.105 A 
HETATM   17  O   UNL     1      -4.230   3.630 -32.376  1.00  0.00    -0.323 OA
HETATM   18  O   UNL     1      -2.557   2.365 -31.185  1.00  0.00    -0.323 OA
HETATM   19  C   UNL     1      -4.028   0.479 -30.715  1.00  0.00     0.040 A 
HETATM   20  C   UNL     1      -2.866   3.571 -31.913  1.00  0.00     0.352 A 
HETATM   21  C   UNL     1      -5.318  -0.036 -30.890  1.00  0.00     0.011 A 
ENDBRANCH   7  13
BRANCH   1  22
HETATM   22  C   UNL     1      -6.410  -1.687 -34.318  1.00  0.00    -0.005 A 
HETATM   23  C   UNL     1      -6.758  -3.005 -34.656  1.00  0.00     0.014 A 
HETATM   24  C   UNL     1      -5.799  -4.019 -34.656  1.00  0.00     0.001 A 
HETATM   25  C   UNL     1      -4.480  -3.729 -34.315  1.00  0.00     0.000 A 
HETATM   26  C   UNL     1      -4.124  -2.427 -33.963  1.00  0.00     0.001 A 
HETATM   27  C   UNL     1      -5.086  -1.413 -33.958  1.00  0.00     0.014 A 
ENDBRANCH   1  22
TORSDOF 2
ENDMDL
MODEL 2
REMARK VINA RESULT:      -8.9      2.578      5.076
REMARK  2 active torsions:
REMARK  status: ('A' for Active; 'I' for Inactive)
REMARK    1  A    between atoms: C_4  and  C_5 
REMARK    2  A    between atoms: C_11  and  C_12 
ROOT
HETATM    1  C   UNL     1      -6.584   2.780 -31.551  1.00  0.00     0.098 A 
HETATM    2  N   UNL     1      -7.094   3.198 -30.374  1.00  0.00    -0.172 NA
HETATM    3  N   UNL     1      -8.274   2.570 -30.264  1.00  0.00    -0.261 N 
HETATM    4  H   UNL     1      -8.833   2.736 -29.435  1.00  0.00     0.191 HD
HETATM    5  C   UNL     1      -8.538   1.760 -31.320  1.00  0.00     0.133 A 
HETATM    6  C   UNL     1      -7.483   1.873 -32.188  1.00  0.00     0.028 A 
HETATM    7  C   UNL     1      -7.441   1.078 -33.444  1.00  0.00     0.067 C 
HETATM    8  C   UNL     1      -8.823   0.492 -33.788  1.00  0.00     0.117 C 
HETATM    9  C   UNL     1      -9.726   0.163 -32.602  1.00  0.00     0.224 C 
HETATM   10  O   UNL     1     -10.613  -0.686 -32.683  1.00  0.00    -0.273 OA
HETATM   11  N   UNL     1      -9.617   0.934 -31.468  1.00  0.00    -0.312 N 
HETATM   12  H   UNL     1     -10.294   0.776 -30.732  1.00  0.00     0.170 HD
ENDROOT
BRANCH   7  13
HETATM   13  C   UNL     1      -6.371   0.006 -33.296  1.00  0.00    -0.046 A 
HETATM   14  C   UNL     1      -6.283  -0.983 -34.296  1.00  0.00     0.047 A 
HETATM   15  C   UNL     1      -5.344  -1.985 -34.157  1.00  0.00     0.105 A 
HETATM   16  C   UNL     1      -4.498  -2.038 -33.078  1.00  0.00     0.105 A 
HETATM   17  O   UNL     1      -5.146  -3.011 -35.026  1.00  0.00    -0.323 OA
HETATM   18  O   UNL     1      -3.653  -3.103 -33.133  1.00  0.00    -0.323 OA
HETATM   19  C   UNL     1      -4.549  -1.099 -32.073  1.00  0.00     0.040 A 
HETATM   20  C   UNL     1      -4.077  -3.720 -34.367  1.00  0.00     0.352 A 
HETATM   21  C   UNL     1      -5.502  -0.078 -32.179  1.00  0.00     0.011 A 
ENDBRANCH   7  13
BRANCH   1  22
HETATM   22  C   UNL     1      -5.253   3.216 -31.976  1.00  0.00    -0.005 A 
HETATM   23  C   UNL     1      -5.107   3.914 -33.185  1.00  0.00     0.014 A 
HETATM   24  C   UNL     1      -3.853   4.362 -33.605  1.00  0.00     0.001 A 
HETATM   25  C   UNL     1      -2.728   4.113 -32.821  1.00  0.00     0.000 A 
HETATM   26  C   UNL     1      -2.858   3.408 -31.625  1.00  0.00     0.001 A 
HETATM   27  C   UNL     1      -4.113   2.956 -31.208  1.00  0.00     0.014 A 
ENDBRANCH   1  22
TORSDOF 2
ENDMDL
MODEL 3
REMARK VINA RESULT:      -8.8      2.392      3.592
REMARK  2 active torsions:
REMARK  status: ('A' for Active; 'I' for Inactive)
REMARK    1  A    between atoms: C_4  and  C_5 
REMARK    2  A    between atoms: C_11  and  C_12 
ROOT
HETATM    1  C   UNL     1      -7.593   0.986 -31.727  1.00  0.00     0.098 A 
HETATM    2  N   UNL     1      -8.923   0.763 -31.702  1.00  0.00    -0.172 NA
HETATM    3  N   UNL     1      -9.432   1.771 -30.977  1.00  0.00    -0.261 N 
HETATM    4  H   UNL     1     -10.435   1.804 -30.836  1.00  0.00     0.191 HD
HETATM    5  C   UNL     1      -8.482   2.635 -30.542  1.00  0.00     0.133 A 
HETATM    6  C   UNL     1      -7.274   2.164 -30.987  1.00  0.00     0.028 A 
HETATM    7  C   UNL     1      -6.016   2.908 -30.709  1.00  0.00     0.067 C 
HETATM    8  C   UNL     1      -6.213   3.954 -29.597  1.00  0.00     0.117 C 
HETATM    9  C   UNL     1      -7.607   4.569 -29.493  1.00  0.00     0.224 C 
HETATM   10  O   UNL     1      -7.786   5.680 -28.996  1.00  0.00    -0.273 OA
HETATM   11  N   UNL     1      -8.687   3.795 -29.848  1.00  0.00    -0.312 N 
HETATM   12  H   UNL     1      -9.609   4.175 -29.672  1.00  0.00     0.170 HD
ENDROOT
BRANCH   7  13
HETATM   13  C   UNL     1      -5.528   3.524 -32.013  1.00  0.00    -0.046 A 
HETATM   14  C   UNL     1      -4.149   3.784 -32.145  1.00  0.00     0.047 A 
HETATM   15  C   UNL     1      -3.694   4.377 -33.305  1.00  0.00     0.105 A 
HETATM   16  C   UNL     1      -4.546   4.716 -34.326  1.00  0.00     0.105 A 
HETATM   17  O   UNL     1      -2.402   4.700 -33.576  1.00  0.00    -0.323 OA
HETATM   18  O   UNL     1      -3.898   5.290 -35.374  1.00  0.00    -0.323 OA
HETATM   19  C   UNL     1      -5.901   4.488 -34.241  1.00  0.00     0.040 A 
HETATM   20  C   UNL     1      -2.540   5.285 -34.887  1.00  0.00     0.352 A 
HETATM   21  C   UNL     1      -6.394   3.899 -33.070  1.00  0.00     0.011 A 
ENDBRANCH   7  13
BRANCH   1  22
HETATM   22  C   UNL     1      -6.710   0.109 -32.496  1.00  0.00    -0.005 A 
HETATM   23  C   UNL     1      -7.094  -0.305 -33.782  1.00  0.00     0.014 A 
HETATM   24  C   UNL     1      -6.262  -1.123 -34.548  1.00  0.00     0.001 A 
HETATM   25  C   UNL     1      -5.036  -1.540 -34.036  1.00  0.00     0.000 A 
HETATM   26  C   UNL     1      -4.648  -1.148 -32.755  1.00  0.00     0.001 A 
HETATM   27  C   UNL     1      -5.484  -0.333 -31.986  1.00  0.00     0.014 A 
ENDBRANCH   1  22
TORSDOF 2
ENDMDL
MODEL 4
REMARK VINA RESULT:      -8.8      2.651      4.918
REMARK  2 active torsions:
REMARK  status: ('A' for Active; 'I' for Inactive)
REMARK    1  A    between atoms: C_4  and  C_5 
REMARK    2  A    between atoms: C_11  and  C_12 
ROOT
HETATM    1  C   UNL     1      -4.283  -0.393 -32.461  1.00  0.00     0.098 A 
HETATM    2  N   UNL     1      -3.500  -0.903 -31.487  1.00  0.00    -0.172 NA
HETATM    3  N   UNL     1      -2.968   0.165 -30.874  1.00  0.00    -0.261 N 
HETATM    4  H   UNL     1      -2.343   0.010 -30.092  1.00  0.00     0.191 HD
HETATM    5  C   UNL     1      -3.384   1.340 -31.409  1.00  0.00     0.133 A 
HETATM    6  C   UNL     1      -4.224   1.033 -32.449  1.00  0.00     0.028 A 
HETATM    7  C   UNL     1      -4.889   2.107 -33.234  1.00  0.00     0.067 C 
HETATM    8  C   UNL     1      -4.224   3.475 -32.995  1.00  0.00     0.117 C 
HETATM    9  C   UNL     1      -3.603   3.688 -31.617  1.00  0.00     0.224 C 
HETATM   10  O   UNL     1      -3.456   4.814 -31.142  1.00  0.00    -0.273 OA
HETATM   11  N   UNL     1      -3.083   2.596 -30.963  1.00  0.00    -0.312 N 
HETATM   12  H   UNL     1      -2.579   2.767 -30.101  1.00  0.00     0.170 HD
ENDROOT
BRANCH   7  13
HETATM   13  C   UNL     1      -6.371   2.107 -32.885  1.00  0.00    -0.046 A 
HETATM   14  C   UNL     1      -7.297   2.299 -33.930  1.00  0.00     0.047 A 
HETATM   15  C   UNL     1      -8.641   2.341 -33.625  1.00  0.00     0.105 A 
HETATM   16  C   UNL     1      -9.096   2.198 -32.337  1.00  0.00     0.105 A 
HETATM   17  O   UNL     1      -9.651   2.529 -34.516  1.00  0.00    -0.323 OA
HETATM   18  O   UNL     1     -10.451   2.272 -32.255  1.00  0.00    -0.323 OA
HETATM   19  C   UNL     1      -8.231   2.014 -31.283  1.00  0.00     0.040 A 
HETATM   20  C   UNL     1     -10.795   2.491 -33.639  1.00  0.00     0.352 A 
HETATM   21  C   UNL     1      -6.858   1.982 -31.559  1.00  0.00     0.011 A 
ENDBRANCH   7  13
BRANCH   1  22
HETATM   22  C   UNL     1      -5.086  -1.279 -33.304  1.00  0.00    -0.005 A 
HETATM   23  C   UNL     1      -4.447  -2.241 -34.102  1.00  0.00     0.014 A 
HETATM   24  C   UNL     1      -5.188  -3.116 -34.899  1.00  0.00     0.001 A 
HETATM   25  C   UNL     1      -6.579  -3.035 -34.910  1.00  0.00     0.000 A 
HETATM   26  C   UNL     1      -7.226  -2.074 -34.133  1.00  0.00     0.001 A 
HETATM   27  C   UNL     1      -6.483  -1.196 -33.339  1.00  0.00     0.014 A 
ENDBRANCH   1  22
TORSDOF 2
ENDMDL
MODEL 5
REMARK VINA RESULT:      -8.3     14.699     16.695
REMARK  2 active torsions:
REMARK  status: ('A' for Active; 'I' for Inactive)
REMARK    1  A    between atoms: C_4  and  C_5 
REMARK    2  A    between atoms: C_11  and  C_12 
ROOT
HETATM    1  C   UNL     1      -5.356 -13.503 -37.881  1.00  0.00     0.098 A 
HETATM    2  N   UNL     1      -5.663 -14.000 -36.665  1.00  0.00    -0.172 NA
HETATM    3  N   UNL     1      -7.003 -14.006 -36.620  1.00  0.00    -0.261 N 
HETATM    4  H   UNL     1      -7.456 -14.355 -35.783  1.00  0.00     0.191 HD
HETATM    5  C   UNL     1      -7.569 -13.539 -37.761  1.00  0.00     0.133 A 
HETATM    6  C   UNL     1      -6.546 -13.186 -38.602  1.00  0.00     0.028 A 
HETATM    7  C   UNL     1      -6.827 -12.665 -39.967  1.00  0.00     0.067 C 
HETATM    8  C   UNL     1      -8.296 -12.230 -40.114  1.00  0.00     0.117 C 
HETATM    9  C   UNL     1      -9.311 -12.997 -39.269  1.00  0.00     0.224 C 
HETATM   10  O   UNL     1     -10.494 -13.079 -39.599  1.00  0.00    -0.273 OA
HETATM   11  N   UNL     1      -8.903 -13.490 -38.052  1.00  0.00    -0.312 N 
HETATM   12  H   UNL     1      -9.612 -13.900 -37.456  1.00  0.00     0.170 HD
ENDROOT
BRANCH   7  13
HETATM   13  C   UNL     1      -6.428 -13.733 -40.977  1.00  0.00    -0.046 A 
HETATM   14  C   UNL     1      -5.426 -13.414 -41.915  1.00  0.00     0.047 A 
HETATM   15  C   UNL     1      -5.080 -14.356 -42.862  1.00  0.00     0.105 A 
HETATM   16  C   UNL     1      -5.683 -15.588 -42.910  1.00  0.00     0.105 A 
HETATM   17  O   UNL     1      -4.145 -14.195 -43.836  1.00  0.00    -0.323 OA
HETATM   18  O   UNL     1      -5.200 -16.363 -43.918  1.00  0.00    -0.323 OA
HETATM   19  C   UNL     1      -6.671 -15.944 -42.021  1.00  0.00     0.040 A 
HETATM   20  C   UNL     1      -4.232 -15.469 -44.505  1.00  0.00     0.352 A 
HETATM   21  C   UNL     1      -7.053 -15.003 -41.056  1.00  0.00     0.011 A 
ENDBRANCH   7  13
BRANCH   1  22
HETATM   22  C   UNL     1      -3.961 -13.412 -38.313  1.00  0.00    -0.005 A 
HETATM   23  C   UNL     1      -3.197 -12.290 -37.954  1.00  0.00     0.014 A 
HETATM   24  C   UNL     1      -1.856 -12.188 -38.332  1.00  0.00     0.001 A 
HETATM   25  C   UNL     1      -1.265 -13.205 -39.077  1.00  0.00     0.000 A 
HETATM   26  C   UNL     1      -2.016 -14.318 -39.452  1.00  0.00     0.001 A 
HETATM   27  C   UNL     1      -3.359 -14.419 -39.077  1.00  0.00     0.014 A 
ENDBRANCH   1  22
TORSDOF 2
ENDMDL
MODEL 6
REMARK VINA RESULT:      -8.1      7.064      9.390
REMARK  2 active torsions:
REMARK  status: ('A' for Active; 'I' for Inactive)
REMARK    1  A    between atoms: C_4  and  C_5 
REMARK    2  A    between atoms: C_11  and  C_12 
ROOT
HETATM    1  C   UNL     1      -0.379   5.567 -30.699  1.00  0.00     0.098 A 
HETATM    2  N   UNL     1       0.361   4.523 -30.271  1.00  0.00    -0.172 NA
HETATM    3  N   UNL     1       0.697   4.830 -29.009  1.00  0.00    -0.261 N 
HETATM    4  H   UNL     1       1.258   4.167 -28.485  1.00  0.00     0.191 HD
HETATM    5  C   UNL     1       0.197   6.025 -28.608  1.00  0.00     0.133 A 
HETATM    6  C   UNL     1      -0.493   6.549 -29.670  1.00  0.00     0.028 A 
HETATM    7  C   UNL     1      -1.203   7.850 -29.551  1.00  0.00     0.067 C 
HETATM    8  C   UNL     1      -0.735   8.637 -28.313  1.00  0.00     0.117 C 
HETATM    9  C   UNL     1      -0.282   7.801 -27.118  1.00  0.00     0.224 C 
HETATM   10  O   UNL     1      -0.320   8.243 -25.970  1.00  0.00    -0.273 OA
HETATM   11  N   UNL     1       0.299   6.579 -27.363  1.00  0.00    -0.312 N 
HETATM   12  H   UNL     1       0.693   6.085 -26.571  1.00  0.00     0.170 HD
ENDROOT
BRANCH   7  13
HETATM   13  C   UNL     1      -2.701   7.578 -29.540  1.00  0.00    -0.046 A 
HETATM   14  C   UNL     1      -3.274   7.080 -28.353  1.00  0.00     0.047 A 
HETATM   15  C   UNL     1      -4.623   6.791 -28.338  1.00  0.00     0.105 A 
HETATM   16  C   UNL     1      -5.416   6.979 -29.443  1.00  0.00     0.105 A 
HETATM   17  O   UNL     1      -5.316   6.297 -27.278  1.00  0.00    -0.323 OA
HETATM   18  O   UNL     1      -6.711   6.631 -29.218  1.00  0.00    -0.323 OA
HETATM   19  C   UNL     1      -4.901   7.457 -30.627  1.00  0.00     0.040 A 
HETATM   20  C   UNL     1      -6.638   6.191 -27.846  1.00  0.00     0.352 A 
HETATM   21  C   UNL     1      -3.531   7.746 -30.677  1.00  0.00     0.011 A 
ENDBRANCH   7  13
BRANCH   1  22
HETATM   22  C   UNL     1      -0.982   5.548 -32.032  1.00  0.00    -0.005 A 
HETATM   23  C   UNL     1      -1.828   4.488 -32.394  1.00  0.00     0.014 A 
HETATM   24  C   UNL     1      -2.436   4.455 -33.651  1.00  0.00     0.001 A 
HETATM   25  C   UNL     1      -2.201   5.481 -34.562  1.00  0.00     0.000 A 
HETATM   26  C   UNL     1      -1.352   6.533 -34.221  1.00  0.00     0.001 A 
HETATM   27  C   UNL     1      -0.740   6.563 -32.964  1.00  0.00     0.014 A 
ENDBRANCH   1  22
TORSDOF 2
ENDMDL
MODEL 7
REMARK VINA RESULT:      -8.1      7.487      9.880
REMARK  2 active torsions:
REMARK  status: ('A' for Active; 'I' for Inactive)
REMARK    1  A    between atoms: C_4  and  C_5 
REMARK    2  A    between atoms: C_11  and  C_12 
ROOT
HETATM    1  C   UNL     1      -0.125   5.540 -30.632  1.00  0.00     0.098 A 
HETATM    2  N   UNL     1       0.445   4.362 -30.300  1.00  0.00    -0.172 NA
HETATM    3  N   UNL     1       0.943   4.553 -29.069  1.00  0.00    -0.261 N 
HETATM    4  H   UNL     1       1.416   3.779 -28.616  1.00  0.00     0.191 HD
HETATM    5  C   UNL     1       0.710   5.802 -28.596  1.00  0.00     0.133 A 
HETATM    6  C   UNL     1       0.037   6.484 -29.575  1.00  0.00     0.028 A 
HETATM    7  C   UNL     1      -0.407   7.888 -29.359  1.00  0.00     0.067 C 
HETATM    8  C   UNL     1       0.307   8.526 -28.154  1.00  0.00     0.117 C 
HETATM    9  C   UNL     1       0.703   7.575 -27.027  1.00  0.00     0.224 C 
HETATM   10  O   UNL     1       0.850   7.970 -25.871  1.00  0.00    -0.273 OA
HETATM   11  N   UNL     1       1.024   6.278 -27.354  1.00  0.00    -0.312 N 
HETATM   12  H   UNL     1       1.388   5.689 -26.614  1.00  0.00     0.170 HD
ENDROOT
BRANCH   7  13
HETATM   13  C   UNL     1      -1.923   7.892 -29.212  1.00  0.00    -0.046 A 
HETATM   14  C   UNL     1      -2.677   8.604 -30.167  1.00  0.00     0.047 A 
HETATM   15  C   UNL     1      -4.049   8.651 -30.026  1.00  0.00     0.105 A 
HETATM   16  C   UNL     1      -4.692   8.024 -28.988  1.00  0.00     0.105 A 
HETATM   17  O   UNL     1      -4.908   9.302 -30.854  1.00  0.00    -0.323 OA
HETATM   18  O   UNL     1      -6.040   8.195 -29.034  1.00  0.00    -0.323 OA
HETATM   19  C   UNL     1      -3.998   7.323 -28.028  1.00  0.00     0.040 A 
HETATM   20  C   UNL     1      -6.168   9.014 -30.214  1.00  0.00     0.352 A 
HETATM   21  C   UNL     1      -2.603   7.269 -28.136  1.00  0.00     0.011 A 
ENDBRANCH   7  13
BRANCH   1  22
HETATM   22  C   UNL     1      -0.838   5.684 -31.902  1.00  0.00    -0.005 A 
HETATM   23  C   UNL     1      -0.673   6.854 -32.660  1.00  0.00     0.014 A 
HETATM   24  C   UNL     1      -1.323   7.009 -33.886  1.00  0.00     0.001 A 
HETATM   25  C   UNL     1      -2.149   5.996 -34.367  1.00  0.00     0.000 A 
HETATM   26  C   UNL     1      -2.332   4.835 -33.618  1.00  0.00     0.001 A 
HETATM   27  C   UNL     1      -1.685   4.681 -32.388  1.00  0.00     0.014 A 
ENDBRANCH   1  22
TORSDOF 2
ENDMDL
MODEL 8
REMARK VINA RESULT:      -8.0     14.532     16.276
REMARK  2 active torsions:
REMARK  status: ('A' for Active; 'I' for Inactive)
REMARK    1  A    between atoms: C_4  and  C_5 
REMARK    2  A    between atoms: C_11  and  C_12 
ROOT
HETATM    1  C   UNL     1      -6.636 -13.302 -40.706  1.00  0.00     0.098 A 
HETATM    2  N   UNL     1      -6.109 -13.637 -41.902  1.00  0.00    -0.172 NA
HETATM    3  N   UNL     1      -4.781 -13.614 -41.716  1.00  0.00    -0.261 N 
HETATM    4  H   UNL     1      -4.180 -13.847 -42.499  1.00  0.00     0.191 HD
HETATM    5  C   UNL     1      -4.434 -13.286 -40.446  1.00  0.00     0.133 A 
HETATM    6  C   UNL     1      -5.597 -13.059 -39.758  1.00  0.00     0.028 A 
HETATM    7  C   UNL     1      -5.571 -12.709 -38.312  1.00  0.00     0.067 C 
HETATM    8  C   UNL     1      -4.166 -12.271 -37.862  1.00  0.00     0.117 C 
HETATM    9  C   UNL     1      -2.994 -12.908 -38.606  1.00  0.00     0.224 C 
HETATM   10  O   UNL     1      -1.881 -13.011 -38.089  1.00  0.00    -0.273 OA
HETATM   11  N   UNL     1      -3.171 -13.251 -39.926  1.00  0.00    -0.312 N 
HETATM   12  H   UNL     1      -2.357 -13.571 -40.436  1.00  0.00     0.170 HD
ENDROOT
BRANCH   7  13
HETATM   13  C   UNL     1      -6.094 -13.902 -37.523  1.00  0.00    -0.046 A 
HETATM   14  C   UNL     1      -6.414 -13.707 -36.164  1.00  0.00     0.047 A 
HETATM   15  C   UNL     1      -6.852 -14.786 -35.424  1.00  0.00     0.105 A 
HETATM   16  C   UNL     1      -6.984 -16.036 -35.976  1.00  0.00     0.105 A 
HETATM   17  O   UNL     1      -7.187 -14.760 -34.107  1.00  0.00    -0.323 OA
HETATM   18  O   UNL     1      -7.426 -16.956 -35.078  1.00  0.00    -0.323 OA
HETATM   19  C   UNL     1      -6.677 -16.277 -37.296  1.00  0.00     0.040 A 
HETATM   20  C   UNL     1      -7.543 -16.141 -33.893  1.00  0.00     0.352 A 
HETATM   21  C   UNL     1      -6.216 -15.204 -38.069  1.00  0.00     0.011 A 
ENDBRANCH   7  13
BRANCH   1  22
HETATM   22  C   UNL     1      -8.086 -13.290 -40.514  1.00  0.00    -0.005 A 
HETATM   23  C   UNL     1      -8.734 -12.083 -40.208  1.00  0.00     0.014 A 
HETATM   24  C   UNL     1     -10.120 -12.037 -40.042  1.00  0.00     0.001 A 
HETATM   25  C   UNL     1     -10.874 -13.201 -40.176  1.00  0.00     0.000 A 
HETATM   26  C   UNL     1     -10.241 -14.409 -40.466  1.00  0.00     0.001 A 
HETATM   27  C   UNL     1      -8.853 -14.455 -40.628  1.00  0.00     0.014 A 
ENDBRANCH   1  22
TORSDOF 2
ENDMDL
MODEL 9
REMARK VINA RESULT:      -8.0      2.878      5.118
REMARK  2 active torsions:
REMARK  status: ('A' for Active; 'I' for Inactive)
REMARK    1  A    between atoms: C_4  and  C_5 
REMARK    2  A    between atoms: C_11  and  C_12 
ROOT
HETATM    1  C   UNL     1      -6.092   0.434 -31.303  1.00  0.00     0.098 A 
HETATM    2  N   UNL     1      -5.985  -0.026 -30.039  1.00  0.00    -0.172 NA
HETATM    3  N   UNL     1      -6.183   1.048 -29.260  1.00  0.00    -0.261 N 
HETATM    4  H   UNL     1      -6.154   0.927 -28.255  1.00  0.00     0.191 HD
HETATM    5  C   UNL     1      -6.420   2.177 -29.974  1.00  0.00     0.133 A 
HETATM    6  C   UNL     1      -6.356   1.836 -31.300  1.00  0.00     0.028 A 
HETATM    7  C   UNL     1      -6.609   2.848 -32.361  1.00  0.00     0.067 C 
HETATM    8  C   UNL     1      -6.539   4.280 -31.802  1.00  0.00     0.117 C 
HETATM    9  C   UNL     1      -6.957   4.453 -30.343  1.00  0.00     0.224 C 
HETATM   10  O   UNL     1      -7.375   5.528 -29.915  1.00  0.00    -0.273 OA
HETATM   11  N   UNL     1      -6.731   3.411 -29.475  1.00  0.00    -0.312 N 
HETATM   12  H   UNL     1      -6.912   3.577 -28.492  1.00  0.00     0.170 HD
ENDROOT
BRANCH   7  13
HETATM   13  C   UNL     1      -7.951   2.536 -33.009  1.00  0.00    -0.046 A 
HETATM   14  C   UNL     1      -9.118   2.999 -32.369  1.00  0.00     0.047 A 
HETATM   15  C   UNL     1     -10.344   2.692 -32.922  1.00  0.00     0.105 A 
HETATM   16  C   UNL     1     -10.453   1.954 -34.074  1.00  0.00     0.105 A 
HETATM   17  O   UNL     1     -11.553   3.055 -32.419  1.00  0.00    -0.323 OA
HETATM   18  O   UNL     1     -11.747   1.763 -34.447  1.00  0.00    -0.323 OA
HETATM   19  C   UNL     1      -9.344   1.474 -34.731  1.00  0.00     0.040 A 
HETATM   20  C   UNL     1     -12.438   2.456 -33.387  1.00  0.00     0.352 A 
HETATM   21  C   UNL     1      -8.085   1.758 -34.186  1.00  0.00     0.011 A 
ENDBRANCH   7  13
BRANCH   1  22
HETATM   22  C   UNL     1      -5.998  -0.488 -32.435  1.00  0.00    -0.005 A 
HETATM   23  C   UNL     1      -4.735  -0.845 -32.935  1.00  0.00     0.014 A 
HETATM   24  C   UNL     1      -4.614  -1.740 -33.999  1.00  0.00     0.001 A 
HETATM   25  C   UNL     1      -5.756  -2.287 -34.579  1.00  0.00     0.000 A 
HETATM   26  C   UNL     1      -7.017  -1.932 -34.102  1.00  0.00     0.001 A 
HETATM   27  C   UNL     1      -7.138  -1.032 -33.039  1.00  0.00     0.014 A 
ENDBRANCH   1  22
TORSDOF 2
ENDMDL
MODEL 10
REMARK VINA RESULT:      -7.9      1.980      3.076
REMARK  2 active torsions:
REMARK  status: ('A' for Active; 'I' for Inactive)
REMARK    1  A    between atoms: C_4  and  C_5 
REMARK    2  A    between atoms: C_11  and  C_12 
ROOT
HETATM    1  C   UNL     1      -7.764   1.028 -33.653  1.00  0.00     0.098 A 
HETATM    2  N   UNL     1      -8.615   0.604 -34.611  1.00  0.00    -0.172 NA
HETATM    3  N   UNL     1      -9.481   1.615 -34.779  1.00  0.00    -0.261 N 
HETATM    4  H   UNL     1     -10.215   1.511 -35.470  1.00  0.00     0.191 HD
HETATM    5  C   UNL     1      -9.215   2.673 -33.973  1.00  0.00     0.133 A 
HETATM    6  C   UNL     1      -8.124   2.337 -33.214  1.00  0.00     0.028 A 
HETATM    7  C   UNL     1      -7.545   3.303 -32.242  1.00  0.00     0.067 C 
HETATM    8  C   UNL     1      -8.519   4.458 -31.946  1.00  0.00     0.117 C 
HETATM    9  C   UNL     1      -9.457   4.854 -33.083  1.00  0.00     0.224 C 
HETATM   10  O   UNL     1      -9.937   5.984 -33.159  1.00  0.00    -0.273 OA
HETATM   11  N   UNL     1      -9.865   3.875 -33.960  1.00  0.00    -0.312 N 
HETATM   12  H   UNL     1     -10.569   4.128 -34.642  1.00  0.00     0.170 HD
ENDROOT
BRANCH   7  13
HETATM   13  C   UNL     1      -6.209   3.789 -32.788  1.00  0.00    -0.046 A 
HETATM   14  C   UNL     1      -5.064   3.619 -31.984  1.00  0.00     0.047 A 
HETATM   15  C   UNL     1      -3.853   4.089 -32.447  1.00  0.00     0.105 A 
HETATM   16  C   UNL     1      -3.736   4.711 -33.665  1.00  0.00     0.105 A 
HETATM   17  O   UNL     1      -2.668   4.010 -31.786  1.00  0.00    -0.323 OA
HETATM   18  O   UNL     1      -2.459   5.098 -33.929  1.00  0.00    -0.323 OA
HETATM   19  C   UNL     1      -4.825   4.905 -34.483  1.00  0.00     0.040 A 
HETATM   20  C   UNL     1      -1.790   4.659 -32.729  1.00  0.00     0.352 A 
HETATM   21  C   UNL     1      -6.072   4.452 -34.034  1.00  0.00     0.011 A 
ENDBRANCH   7  13
BRANCH   1  22
HETATM   22  C   UNL     1      -6.628   0.197 -33.253  1.00  0.00    -0.005 A 
HETATM   23  C   UNL     1      -6.273   0.116 -31.898  1.00  0.00     0.014 A 
HETATM   24  C   UNL     1      -5.208  -0.687 -31.484  1.00  0.00     0.001 A 
HETATM   25  C   UNL     1      -4.483  -1.416 -32.423  1.00  0.00     0.000 A 
HETATM   26  C   UNL     1      -4.816  -1.334 -33.775  1.00  0.00     0.001 A 
HETATM   27  C   UNL     1      -5.879  -0.526 -34.189  1.00  0.00     0.014 A 
ENDBRANCH   1  22
TORSDOF 2
ENDMDL
