MODEL 1
REMARK VINA RESULT:      -8.8      0.000      0.000
REMARK  6 active torsions:
REMARK  status: ('A' for Active; 'I' for Inactive)
REMARK    1  A    between atoms: N_2  and  C_5 
REMARK    2  A    between atoms: C_5  and  C_6 
REMARK    3  A    between atoms: C_6  and  N_7 
REMARK    4  A    between atoms: C_6  and  C_23 
REMARK       I    between atoms: N_7  and  C_8 
REMARK    5  A    between atoms: C_8  and  C_10 
REMARK    6  A    between atoms: C_13  and  C_17 
ROOT
HETATM    1  N   UNL     1      -4.249   2.697 -31.928  1.00  0.00    -0.347 N 
HETATM    2  C   UNL     1      -3.632   1.486 -31.710  1.00  0.00     0.252 C 
HETATM    3  O   UNL     1      -2.686   1.375 -30.934  1.00  0.00    -0.268 OA
HETATM    4  H   UNL     1      -4.832   2.764 -32.757  1.00  0.00     0.163 HD
ENDROOT
BRANCH   2   5
HETATM    5  C   UNL     1      -4.153   0.309 -32.455  1.00  0.00     0.032 A 
HETATM    6  C   UNL     1      -3.537  -0.927 -32.252  1.00  0.00     0.018 A 
HETATM    7  C   UNL     1      -4.017  -2.062 -32.906  1.00  0.00     0.014 A 
HETATM    8  C   UNL     1      -5.124  -1.983 -33.768  1.00  0.00    -0.017 A 
HETATM    9  C   UNL     1      -5.747  -0.736 -33.984  1.00  0.00    -0.050 A 
HETATM   10  C   UNL     1      -6.942  -0.578 -34.889  1.00  0.00     0.049 C 
HETATM   11  C   UNL     1      -5.259   0.401 -33.309  1.00  0.00     0.024 A 
BRANCH   8  12
HETATM   12  C   UNL     1      -5.605  -3.205 -34.384  1.00  0.00     0.011 A 
HETATM   13  C   UNL     1      -4.944  -4.418 -34.684  1.00  0.00     0.152 A 
HETATM   14  N   UNL     1      -5.748  -5.307 -35.271  1.00  0.00    -0.187 NA
HETATM   15  N   UNL     1      -6.923  -4.664 -35.361  1.00  0.00    -0.289 N 
HETATM   16  H   UNL     1      -7.706  -5.149 -35.787  1.00  0.00     0.188 HD
HETATM   17  C   UNL     1      -6.889  -3.397 -34.849  1.00  0.00     0.123 A 
ENDBRANCH   8  12
ENDBRANCH   2   5
BRANCH   1  18
HETATM   18  C   UNL     1      -3.710   3.966 -31.427  1.00  0.00     0.143 C 
BRANCH  18  19
HETATM   19  C   UNL     1      -4.791   4.983 -30.930  1.00  0.00     0.263 C 
BRANCH  19  20
HETATM   20  N   UNL     1      -4.522   5.528 -29.536  1.00  0.00    -0.076 N 
HETATM   21  C   UNL     1      -3.846   6.864 -29.525  1.00  0.00     0.269 C 
HETATM   22  H   UNL     1      -3.843   4.869 -29.097  1.00  0.00     0.279 HD
HETATM   23  C   UNL     1      -5.737   5.503 -28.663  1.00  0.00     0.269 C 
ENDBRANCH  19  20
ENDBRANCH  18  19
BRANCH  18  24
HETATM   24  C   UNL     1      -2.877   4.621 -32.516  1.00  0.00    -0.034 A 
HETATM   25  C   UNL     1      -3.340   4.632 -33.841  1.00  0.00     0.009 A 
HETATM   26  C   UNL     1      -2.574   5.213 -34.854  1.00  0.00     0.001 A 
HETATM   27  C   UNL     1      -1.342   5.790 -34.556  1.00  0.00     0.000 A 
HETATM   28  C   UNL     1      -0.873   5.791 -33.244  1.00  0.00     0.001 A 
HETATM   29  C   UNL     1      -1.635   5.212 -32.229  1.00  0.00     0.009 A 
ENDBRANCH  18  24
ENDBRANCH   1  18
TORSDOF 6
ENDMDL
MODEL 2
REMARK VINA RESULT:      -8.7      1.115      2.232
REMARK  6 active torsions:
REMARK  status: ('A' for Active; 'I' for Inactive)
REMARK    1  A    between atoms: N_2  and  C_5 
REMARK    2  A    between atoms: C_5  and  C_6 
REMARK    3  A    between atoms: C_6  and  N_7 
REMARK    4  A    between atoms: C_6  and  C_23 
REMARK       I    between atoms: N_7  and  C_8 
REMARK    5  A    between atoms: C_8  and  C_10 
REMARK    6  A    between atoms: C_13  and  C_17 
ROOT
HETATM    1  N   UNL     1      -4.529   2.779 -31.942  1.00  0.00    -0.347 N 
HETATM    2  C   UNL     1      -3.737   1.672 -31.735  1.00  0.00     0.252 C 
HETATM    3  O   UNL     1      -2.692   1.737 -31.092  1.00  0.00    -0.268 OA
HETATM    4  H   UNL     1      -5.219   2.708 -32.685  1.00  0.00     0.163 HD
ENDROOT
BRANCH   2   5
HETATM    5  C   UNL     1      -4.194   0.385 -32.322  1.00  0.00     0.032 A 
HETATM    6  C   UNL     1      -5.253   0.412 -33.232  1.00  0.00     0.018 A 
HETATM    7  C   UNL     1      -5.690  -0.770 -33.831  1.00  0.00     0.014 A 
HETATM    8  C   UNL     1      -5.072  -1.997 -33.538  1.00  0.00    -0.017 A 
HETATM    9  C   UNL     1      -4.007  -2.034 -32.614  1.00  0.00    -0.050 A 
HETATM   10  C   UNL     1      -3.294  -3.313 -32.256  1.00  0.00     0.049 C 
HETATM   11  C   UNL     1      -3.568  -0.832 -32.023  1.00  0.00     0.024 A 
BRANCH   8  12
HETATM   12  C   UNL     1      -5.541  -3.185 -34.226  1.00  0.00     0.011 A 
HETATM   13  C   UNL     1      -4.872  -4.376 -34.586  1.00  0.00     0.152 A 
HETATM   14  N   UNL     1      -5.666  -5.235 -35.228  1.00  0.00    -0.187 NA
HETATM   15  N   UNL     1      -6.843  -4.593 -35.295  1.00  0.00    -0.289 N 
HETATM   16  H   UNL     1      -7.620  -5.056 -35.755  1.00  0.00     0.188 HD
HETATM   17  C   UNL     1      -6.820  -3.356 -34.713  1.00  0.00     0.123 A 
ENDBRANCH   8  12
ENDBRANCH   2   5
BRANCH   1  18
HETATM   18  C   UNL     1      -4.097   4.140 -31.604  1.00  0.00     0.143 C 
BRANCH  18  19
HETATM   19  C   UNL     1      -5.263   5.167 -31.420  1.00  0.00     0.263 C 
BRANCH  19  20
HETATM   20  N   UNL     1      -6.621   4.633 -31.849  1.00  0.00    -0.076 N 
HETATM   21  C   UNL     1      -7.669   4.708 -30.782  1.00  0.00     0.269 C 
HETATM   22  H   UNL     1      -6.483   3.615 -32.033  1.00  0.00     0.279 HD
HETATM   23  C   UNL     1      -7.090   5.222 -33.142  1.00  0.00     0.269 C 
ENDBRANCH  19  20
ENDBRANCH  18  19
BRANCH  18  24
HETATM   24  C   UNL     1      -3.154   4.648 -32.681  1.00  0.00    -0.034 A 
HETATM   25  C   UNL     1      -1.843   5.020 -32.347  1.00  0.00     0.009 A 
HETATM   26  C   UNL     1      -0.974   5.506 -33.325  1.00  0.00     0.001 A 
HETATM   27  C   UNL     1      -1.402   5.625 -34.646  1.00  0.00     0.000 A 
HETATM   28  C   UNL     1      -2.698   5.254 -34.993  1.00  0.00     0.001 A 
HETATM   29  C   UNL     1      -3.570   4.767 -34.018  1.00  0.00     0.009 A 
ENDBRANCH  18  24
ENDBRANCH   1  18
TORSDOF 6
ENDMDL
MODEL 3
REMARK VINA RESULT:      -8.6      5.114      7.903
REMARK  6 active torsions:
REMARK  status: ('A' for Active; 'I' for Inactive)
REMARK    1  A    between atoms: N_2  and  C_5 
REMARK    2  A    between atoms: C_5  and  C_6 
REMARK    3  A    between atoms: C_6  and  N_7 
REMARK    4  A    between atoms: C_6  and  C_23 
REMARK       I    between atoms: N_7  and  C_8 
REMARK    5  A    between atoms: C_8  and  C_10 
REMARK    6  A    between atoms: C_13  and  C_17 
ROOT
HETATM    1  N   UNL     1      -7.455  -0.177 -33.247  1.00  0.00    -0.347 N 
HETATM    2  C   UNL     1      -8.160   0.696 -32.450  1.00  0.00     0.252 C 
HETATM    3  O   UNL     1      -7.629   1.288 -31.514  1.00  0.00    -0.268 OA
HETATM    4  H   UNL     1      -8.004  -0.814 -33.816  1.00  0.00     0.163 HD
ENDROOT
BRANCH   2   5
HETATM    5  C   UNL     1      -9.600   0.895 -32.762  1.00  0.00     0.032 A 
HETATM    6  C   UNL     1     -10.410  -0.234 -32.896  1.00  0.00     0.018 A 
HETATM    7  C   UNL     1     -11.773  -0.089 -33.156  1.00  0.00     0.014 A 
HETATM    8  C   UNL     1     -12.352   1.185 -33.278  1.00  0.00    -0.017 A 
HETATM    9  C   UNL     1     -11.539   2.331 -33.151  1.00  0.00    -0.050 A 
HETATM   10  C   UNL     1     -12.091   3.729 -33.265  1.00  0.00     0.049 C 
HETATM   11  C   UNL     1     -10.165   2.172 -32.879  1.00  0.00     0.024 A 
BRANCH   8  12
HETATM   12  C   UNL     1     -13.782   1.273 -33.504  1.00  0.00     0.011 A 
HETATM   13  C   UNL     1     -14.822   1.782 -32.694  1.00  0.00     0.152 A 
HETATM   14  N   UNL     1     -16.021   1.667 -33.268  1.00  0.00    -0.187 NA
HETATM   15  N   UNL     1     -15.757   1.072 -34.442  1.00  0.00    -0.289 N 
HETATM   16  H   UNL     1     -16.531   0.872 -35.066  1.00  0.00     0.188 HD
HETATM   17  C   UNL     1     -14.428   0.809 -34.630  1.00  0.00     0.123 A 
ENDBRANCH   8  12
ENDBRANCH   2   5
BRANCH   1  18
HETATM   18  C   UNL     1      -6.095  -0.625 -32.926  1.00  0.00     0.143 C 
BRANCH  18  19
HETATM   19  C   UNL     1      -4.971   0.411 -33.262  1.00  0.00     0.263 C 
BRANCH  19  20
HETATM   20  N   UNL     1      -4.451   1.164 -32.048  1.00  0.00    -0.076 N 
HETATM   21  C   UNL     1      -3.858   0.283 -30.992  1.00  0.00     0.269 C 
HETATM   22  H   UNL     1      -5.287   1.605 -31.605  1.00  0.00     0.279 HD
HETATM   23  C   UNL     1      -3.541   2.294 -32.416  1.00  0.00     0.269 C 
ENDBRANCH  19  20
ENDBRANCH  18  19
BRANCH  18  24
HETATM   24  C   UNL     1      -5.808  -1.923 -33.662  1.00  0.00    -0.034 A 
HETATM   25  C   UNL     1      -6.849  -2.604 -34.312  1.00  0.00     0.009 A 
HETATM   26  C   UNL     1      -6.601  -3.808 -34.975  1.00  0.00     0.001 A 
HETATM   27  C   UNL     1      -5.315  -4.343 -34.998  1.00  0.00     0.000 A 
HETATM   28  C   UNL     1      -4.272  -3.675 -34.362  1.00  0.00     0.001 A 
HETATM   29  C   UNL     1      -4.515  -2.471 -33.698  1.00  0.00     0.009 A 
ENDBRANCH  18  24
ENDBRANCH   1  18
TORSDOF 6
ENDMDL
MODEL 4
REMARK VINA RESULT:      -8.5      2.792      8.221
REMARK  6 active torsions:
REMARK  status: ('A' for Active; 'I' for Inactive)
REMARK    1  A    between atoms: N_2  and  C_5 
REMARK    2  A    between atoms: C_5  and  C_6 
REMARK    3  A    between atoms: C_6  and  N_7 
REMARK    4  A    between atoms: C_6  and  C_23 
REMARK       I    between atoms: N_7  and  C_8 
REMARK    5  A    between atoms: C_8  and  C_10 
REMARK    6  A    between atoms: C_13  and  C_17 
ROOT
HETATM    1  N   UNL     1      -5.922   1.194 -33.154  1.00  0.00    -0.347 N 
HETATM    2  C   UNL     1      -5.924   2.539 -33.446  1.00  0.00     0.252 C 
HETATM    3  O   UNL     1      -6.827   3.056 -34.100  1.00  0.00    -0.268 OA
HETATM    4  H   UNL     1      -5.037   0.799 -32.849  1.00  0.00     0.163 HD
ENDROOT
BRANCH   2   5
HETATM    5  C   UNL     1      -4.785   3.350 -32.942  1.00  0.00     0.032 A 
HETATM    6  C   UNL     1      -4.177   2.964 -31.746  1.00  0.00     0.018 A 
HETATM    7  C   UNL     1      -3.084   3.678 -31.256  1.00  0.00     0.014 A 
HETATM    8  C   UNL     1      -2.574   4.785 -31.954  1.00  0.00    -0.017 A 
HETATM    9  C   UNL     1      -3.188   5.187 -33.160  1.00  0.00    -0.050 A 
HETATM   10  C   UNL     1      -2.692   6.360 -33.965  1.00  0.00     0.049 C 
HETATM   11  C   UNL     1      -4.286   4.450 -33.650  1.00  0.00     0.024 A 
BRANCH   8  12
HETATM   12  C   UNL     1      -1.408   5.461 -31.418  1.00  0.00     0.011 A 
HETATM   13  C   UNL     1      -0.028   5.247 -31.633  1.00  0.00     0.152 A 
HETATM   14  N   UNL     1       0.736   6.087 -30.932  1.00  0.00    -0.187 NA
HETATM   15  N   UNL     1      -0.151   6.835 -30.255  1.00  0.00    -0.289 N 
HETATM   16  H   UNL     1       0.202   7.557 -29.637  1.00  0.00     0.188 HD
HETATM   17  C   UNL     1      -1.451   6.495 -30.507  1.00  0.00     0.123 A 
ENDBRANCH   8  12
ENDBRANCH   2   5
BRANCH   1  18
HETATM   18  C   UNL     1      -6.864   0.246 -33.762  1.00  0.00     0.143 C 
BRANCH  18  19
HETATM   19  C   UNL     1      -8.166  -0.004 -32.929  1.00  0.00     0.263 C 
BRANCH  19  20
HETATM   20  N   UNL     1      -9.150   1.155 -32.972  1.00  0.00    -0.076 N 
HETATM   21  C   UNL     1     -10.519   0.774 -33.442  1.00  0.00     0.269 C 
HETATM   22  H   UNL     1      -8.783   1.817 -33.690  1.00  0.00     0.279 HD
HETATM   23  C   UNL     1      -9.188   1.926 -31.689  1.00  0.00     0.269 C 
ENDBRANCH  19  20
ENDBRANCH  18  19
BRANCH  18  24
HETATM   24  C   UNL     1      -6.161  -1.080 -33.992  1.00  0.00    -0.034 A 
HETATM   25  C   UNL     1      -4.841  -1.260 -33.549  1.00  0.00     0.009 A 
HETATM   26  C   UNL     1      -4.178  -2.468 -33.772  1.00  0.00     0.001 A 
HETATM   27  C   UNL     1      -4.823  -3.509 -34.436  1.00  0.00     0.000 A 
HETATM   28  C   UNL     1      -6.135  -3.347 -34.876  1.00  0.00     0.001 A 
HETATM   29  C   UNL     1      -6.801  -2.141 -34.655  1.00  0.00     0.009 A 
ENDBRANCH  18  24
ENDBRANCH   1  18
TORSDOF 6
ENDMDL
MODEL 5
REMARK VINA RESULT:      -8.4      4.540      7.828
REMARK  6 active torsions:
REMARK  status: ('A' for Active; 'I' for Inactive)
REMARK    1  A    between atoms: N_2  and  C_5 
REMARK    2  A    between atoms: C_5  and  C_6 
REMARK    3  A    between atoms: C_6  and  N_7 
REMARK    4  A    between atoms: C_6  and  C_23 
REMARK       I    between atoms: N_7  and  C_8 
REMARK    5  A    between atoms: C_8  and  C_10 
REMARK    6  A    between atoms: C_13  and  C_17 
ROOT
HETATM    1  N   UNL     1      -6.385  -0.083 -33.078  1.00  0.00    -0.347 N 
HETATM    2  C   UNL     1      -7.160   0.308 -32.010  1.00  0.00     0.252 C 
HETATM    3  O   UNL     1      -6.818   0.086 -30.851  1.00  0.00    -0.268 OA
HETATM    4  H   UNL     1      -6.843  -0.104 -33.985  1.00  0.00     0.163 HD
ENDROOT
BRANCH   2   5
HETATM    5  C   UNL     1      -8.435   1.010 -32.310  1.00  0.00     0.032 A 
HETATM    6  C   UNL     1      -8.480   2.397 -32.151  1.00  0.00     0.018 A 
HETATM    7  C   UNL     1      -9.647   3.097 -32.455  1.00  0.00     0.014 A 
HETATM    8  C   UNL     1     -10.787   2.427 -32.930  1.00  0.00    -0.017 A 
HETATM    9  C   UNL     1     -10.752   1.026 -33.087  1.00  0.00    -0.050 A 
HETATM   10  C   UNL     1     -11.934   0.241 -33.596  1.00  0.00     0.049 C 
HETATM   11  C   UNL     1      -9.563   0.330 -32.786  1.00  0.00     0.024 A 
BRANCH   8  12
HETATM   12  C   UNL     1     -11.956   3.215 -33.271  1.00  0.00     0.011 A 
HETATM   13  C   UNL     1     -13.060   3.626 -32.491  1.00  0.00     0.152 A 
HETATM   14  N   UNL     1     -13.944   4.341 -33.192  1.00  0.00    -0.187 NA
HETATM   15  N   UNL     1     -13.417   4.378 -34.426  1.00  0.00    -0.289 N 
HETATM   16  H   UNL     1     -13.924   4.874 -35.151  1.00  0.00     0.188 HD
HETATM   17  C   UNL     1     -12.227   3.713 -34.528  1.00  0.00     0.123 A 
ENDBRANCH   8  12
ENDBRANCH   2   5
BRANCH   1  18
HETATM   18  C   UNL     1      -5.219  -0.962 -32.936  1.00  0.00     0.143 C 
BRANCH  18  19
HETATM   19  C   UNL     1      -3.864  -0.329 -33.398  1.00  0.00     0.263 C 
BRANCH  19  20
HETATM   20  N   UNL     1      -3.187   0.512 -32.328  1.00  0.00    -0.076 N 
HETATM   21  C   UNL     1      -3.598   1.952 -32.334  1.00  0.00     0.269 C 
HETATM   22  H   UNL     1      -2.170   0.513 -32.564  1.00  0.00     0.279 HD
HETATM   23  C   UNL     1      -3.288  -0.098 -30.965  1.00  0.00     0.269 C 
ENDBRANCH  19  20
ENDBRANCH  18  19
BRANCH  18  24
HETATM   24  C   UNL     1      -5.459  -2.242 -33.718  1.00  0.00    -0.034 A 
HETATM   25  C   UNL     1      -6.719  -2.492 -34.285  1.00  0.00     0.009 A 
HETATM   26  C   UNL     1      -6.957  -3.674 -34.988  1.00  0.00     0.001 A 
HETATM   27  C   UNL     1      -5.943  -4.617 -35.136  1.00  0.00     0.000 A 
HETATM   28  C   UNL     1      -4.686  -4.380 -34.584  1.00  0.00     0.001 A 
HETATM   29  C   UNL     1      -4.444  -3.200 -33.880  1.00  0.00     0.009 A 
ENDBRANCH  18  24
ENDBRANCH   1  18
TORSDOF 6
ENDMDL
MODEL 6
REMARK VINA RESULT:      -8.3      1.925      2.757
REMARK  6 active torsions:
REMARK  status: ('A' for Active; 'I' for Inactive)
REMARK    1  A    between atoms: N_2  and  C_5 
REMARK    2  A    between atoms: C_5  and  C_6 
REMARK    3  A    between atoms: C_6  and  N_7 
REMARK    4  A    between atoms: C_6  and  C_23 
REMARK       I    between atoms: N_7  and  C_8 
REMARK    5  A    between atoms: C_8  and  C_10 
REMARK    6  A    between atoms: C_13  and  C_17 
ROOT
HETATM    1  N   UNL     1      -4.993   3.106 -33.216  1.00  0.00    -0.347 N 
HETATM    2  C   UNL     1      -5.904   2.212 -32.700  1.00  0.00     0.252 C 
HETATM    3  O   UNL     1      -6.830   2.579 -31.980  1.00  0.00    -0.268 OA
HETATM    4  H   UNL     1      -4.126   2.712 -33.572  1.00  0.00     0.163 HD
ENDROOT
BRANCH   2   5
HETATM    5  C   UNL     1      -5.726   0.778 -33.046  1.00  0.00     0.032 A 
HETATM    6  C   UNL     1      -6.549   0.227 -34.030  1.00  0.00     0.018 A 
HETATM    7  C   UNL     1      -6.390  -1.106 -34.408  1.00  0.00     0.014 A 
HETATM    8  C   UNL     1      -5.404  -1.911 -33.814  1.00  0.00    -0.017 A 
HETATM    9  C   UNL     1      -4.573  -1.365 -32.813  1.00  0.00    -0.050 A 
HETATM   10  C   UNL     1      -3.491  -2.167 -32.137  1.00  0.00     0.049 C 
HETATM   11  C   UNL     1      -4.737  -0.013 -32.448  1.00  0.00     0.024 A 
BRANCH   8  12
HETATM   12  C   UNL     1      -5.258  -3.277 -34.279  1.00  0.00     0.011 A 
HETATM   13  C   UNL     1      -6.166  -4.137 -34.937  1.00  0.00     0.152 A 
HETATM   14  N   UNL     1      -5.642  -5.339 -35.189  1.00  0.00    -0.187 NA
HETATM   15  N   UNL     1      -4.401  -5.258 -34.681  1.00  0.00    -0.289 N 
HETATM   16  H   UNL     1      -3.799  -6.071 -34.751  1.00  0.00     0.188 HD
HETATM   17  C   UNL     1      -4.123  -4.044 -34.119  1.00  0.00     0.123 A 
ENDBRANCH   8  12
ENDBRANCH   2   5
BRANCH   1  18
HETATM   18  C   UNL     1      -4.925   4.508 -32.789  1.00  0.00     0.143 C 
BRANCH  18  19
HETATM   19  C   UNL     1      -5.647   5.516 -33.743  1.00  0.00     0.263 C 
BRANCH  19  20
HETATM   20  N   UNL     1      -6.982   6.013 -33.210  1.00  0.00    -0.076 N 
HETATM   21  C   UNL     1      -8.167   5.272 -33.748  1.00  0.00     0.269 C 
HETATM   22  H   UNL     1      -7.084   6.991 -33.559  1.00  0.00     0.279 HD
HETATM   23  C   UNL     1      -7.007   6.107 -31.717  1.00  0.00     0.269 C 
ENDBRANCH  19  20
ENDBRANCH  18  19
BRANCH  18  24
HETATM   24  C   UNL     1      -3.469   4.918 -32.646  1.00  0.00    -0.034 A 
HETATM   25  C   UNL     1      -2.865   5.715 -33.631  1.00  0.00     0.009 A 
HETATM   26  C   UNL     1      -1.523   6.081 -33.521  1.00  0.00     0.001 A 
HETATM   27  C   UNL     1      -0.769   5.659 -32.428  1.00  0.00     0.000 A 
HETATM   28  C   UNL     1      -1.356   4.872 -31.440  1.00  0.00     0.001 A 
HETATM   29  C   UNL     1      -2.698   4.504 -31.546  1.00  0.00     0.009 A 
ENDBRANCH  18  24
ENDBRANCH   1  18
TORSDOF 6
ENDMDL
MODEL 7
REMARK VINA RESULT:      -8.3      3.886      5.754
REMARK  6 active torsions:
REMARK  status: ('A' for Active; 'I' for Inactive)
REMARK    1  A    between atoms: N_2  and  C_5 
REMARK    2  A    between atoms: C_5  and  C_6 
REMARK    3  A    between atoms: C_6  and  N_7 
REMARK    4  A    between atoms: C_6  and  C_23 
REMARK       I    between atoms: N_7  and  C_8 
REMARK    5  A    between atoms: C_8  and  C_10 
REMARK    6  A    between atoms: C_13  and  C_17 
ROOT
HETATM    1  N   UNL     1      -8.162   2.299 -33.679  1.00  0.00    -0.347 N 
HETATM    2  C   UNL     1      -6.832   2.070 -33.951  1.00  0.00     0.252 C 
HETATM    3  O   UNL     1      -6.050   2.992 -34.167  1.00  0.00    -0.268 OA
HETATM    4  H   UNL     1      -8.786   1.502 -33.773  1.00  0.00     0.163 HD
ENDROOT
BRANCH   2   5
HETATM    5  C   UNL     1      -6.373   0.656 -33.976  1.00  0.00     0.032 A 
HETATM    6  C   UNL     1      -7.010  -0.231 -34.846  1.00  0.00     0.018 A 
HETATM    7  C   UNL     1      -6.587  -1.558 -34.924  1.00  0.00     0.014 A 
HETATM    8  C   UNL     1      -5.516  -2.020 -34.141  1.00  0.00    -0.017 A 
HETATM    9  C   UNL     1      -4.871  -1.132 -33.255  1.00  0.00    -0.050 A 
HETATM   10  C   UNL     1      -3.712  -1.556 -32.390  1.00  0.00     0.049 C 
HETATM   11  C   UNL     1      -5.301   0.209 -33.192  1.00  0.00     0.024 A 
BRANCH   8  12
HETATM   12  C   UNL     1      -5.092  -3.398 -34.299  1.00  0.00     0.011 A 
HETATM   13  C   UNL     1      -5.767  -4.524 -34.821  1.00  0.00     0.152 A 
HETATM   14  N   UNL     1      -5.024  -5.632 -34.779  1.00  0.00    -0.187 NA
HETATM   15  N   UNL     1      -3.874  -5.223 -34.219  1.00  0.00    -0.289 N 
HETATM   16  H   UNL     1      -3.138  -5.907 -34.076  1.00  0.00     0.188 HD
HETATM   17  C   UNL     1      -3.866  -3.892 -33.907  1.00  0.00     0.123 A 
ENDBRANCH   8  12
ENDBRANCH   2   5
BRANCH   1  18
HETATM   18  C   UNL     1      -8.789   3.617 -33.830  1.00  0.00     0.143 C 
BRANCH  18  19
HETATM   19  C   UNL     1      -8.933   4.426 -32.498  1.00  0.00     0.263 C 
BRANCH  19  20
HETATM   20  N   UNL     1      -9.191   3.555 -31.279  1.00  0.00    -0.076 N 
HETATM   21  C   UNL     1      -8.069   3.548 -30.287  1.00  0.00     0.269 C 
HETATM   22  H   UNL     1      -9.254   2.576 -31.634  1.00  0.00     0.279 HD
HETATM   23  C   UNL     1     -10.512   3.841 -30.635  1.00  0.00     0.269 C 
ENDBRANCH  19  20
ENDBRANCH  18  19
BRANCH  18  24
HETATM   24  C   UNL     1     -10.162   3.449 -34.459  1.00  0.00    -0.034 A 
HETATM   25  C   UNL     1     -10.780   2.189 -34.467  1.00  0.00     0.009 A 
HETATM   26  C   UNL     1     -12.033   2.019 -35.059  1.00  0.00     0.001 A 
HETATM   27  C   UNL     1     -12.682   3.102 -35.647  1.00  0.00     0.000 A 
HETATM   28  C   UNL     1     -12.083   4.359 -35.641  1.00  0.00     0.001 A 
HETATM   29  C   UNL     1     -10.831   4.534 -35.049  1.00  0.00     0.009 A 
ENDBRANCH  18  24
ENDBRANCH   1  18
TORSDOF 6
ENDMDL
MODEL 8
REMARK VINA RESULT:      -8.2      5.415      7.593
REMARK  6 active torsions:
REMARK  status: ('A' for Active; 'I' for Inactive)
REMARK    1  A    between atoms: N_2  and  C_5 
REMARK    2  A    between atoms: C_5  and  C_6 
REMARK    3  A    between atoms: C_6  and  N_7 
REMARK    4  A    between atoms: C_6  and  C_23 
REMARK       I    between atoms: N_7  and  C_8 
REMARK    5  A    between atoms: C_8  and  C_10 
REMARK    6  A    between atoms: C_13  and  C_17 
ROOT
HETATM    1  N   UNL     1     -10.621   2.336 -32.686  1.00  0.00    -0.347 N 
HETATM    2  C   UNL     1      -9.528   2.462 -33.514  1.00  0.00     0.252 C 
HETATM    3  O   UNL     1      -9.310   3.495 -34.141  1.00  0.00    -0.268 OA
HETATM    4  H   UNL     1     -10.877   1.391 -32.416  1.00  0.00     0.163 HD
ENDROOT
BRANCH   2   5
HETATM    5  C   UNL     1      -8.616   1.294 -33.623  1.00  0.00     0.032 A 
HETATM    6  C   UNL     1      -8.552   0.617 -34.842  1.00  0.00     0.018 A 
HETATM    7  C   UNL     1      -7.683  -0.464 -34.996  1.00  0.00     0.014 A 
HETATM    8  C   UNL     1      -6.858  -0.882 -33.938  1.00  0.00    -0.017 A 
HETATM    9  C   UNL     1      -6.922  -0.208 -32.701  1.00  0.00    -0.050 A 
HETATM   10  C   UNL     1      -6.064  -0.597 -31.525  1.00  0.00     0.049 C 
HETATM   11  C   UNL     1      -7.797   0.889 -32.561  1.00  0.00     0.024 A 
BRANCH   8  12
HETATM   12  C   UNL     1      -5.944  -1.983 -34.173  1.00  0.00     0.011 A 
HETATM   13  C   UNL     1      -4.543  -2.078 -34.017  1.00  0.00     0.152 A 
HETATM   14  N   UNL     1      -4.070  -3.280 -34.354  1.00  0.00    -0.187 NA
HETATM   15  N   UNL     1      -5.164  -3.955 -34.740  1.00  0.00    -0.289 N 
HETATM   16  H   UNL     1      -5.052  -4.914 -35.053  1.00  0.00     0.188 HD
HETATM   17  C   UNL     1      -6.314  -3.221 -34.656  1.00  0.00     0.123 A 
ENDBRANCH   8  12
ENDBRANCH   2   5
BRANCH   1  18
HETATM   18  C   UNL     1     -11.707   3.323 -32.648  1.00  0.00     0.143 C 
BRANCH  18  19
HETATM   19  C   UNL     1     -11.826   4.109 -31.300  1.00  0.00     0.263 C 
BRANCH  19  20
HETATM   20  N   UNL     1     -11.516   5.592 -31.429  1.00  0.00    -0.076 N 
HETATM   21  C   UNL     1     -10.335   6.039 -30.625  1.00  0.00     0.269 C 
HETATM   22  H   UNL     1     -12.336   6.093 -31.021  1.00  0.00     0.279 HD
HETATM   23  C   UNL     1     -11.432   6.042 -32.854  1.00  0.00     0.269 C 
ENDBRANCH  19  20
ENDBRANCH  18  19
BRANCH  18  24
HETATM   24  C   UNL     1     -13.027   2.626 -32.933  1.00  0.00    -0.034 A 
HETATM   25  C   UNL     1     -13.134   1.745 -34.020  1.00  0.00     0.009 A 
HETATM   26  C   UNL     1     -14.347   1.114 -34.303  1.00  0.00     0.001 A 
HETATM   27  C   UNL     1     -15.463   1.352 -33.504  1.00  0.00     0.000 A 
HETATM   28  C   UNL     1     -15.370   2.220 -32.419  1.00  0.00     0.001 A 
HETATM   29  C   UNL     1     -14.159   2.852 -32.132  1.00  0.00     0.009 A 
ENDBRANCH  18  24
ENDBRANCH   1  18
TORSDOF 6
ENDMDL
MODEL 9
REMARK VINA RESULT:      -8.0     15.704     17.315
REMARK  6 active torsions:
REMARK  status: ('A' for Active; 'I' for Inactive)
REMARK    1  A    between atoms: N_2  and  C_5 
REMARK    2  A    between atoms: C_5  and  C_6 
REMARK    3  A    between atoms: C_6  and  N_7 
REMARK    4  A    between atoms: C_6  and  C_23 
REMARK       I    between atoms: N_7  and  C_8 
REMARK    5  A    between atoms: C_8  and  C_10 
REMARK    6  A    between atoms: C_13  and  C_17 
ROOT
HETATM    1  N   UNL     1      -3.036 -13.535 -37.997  1.00  0.00    -0.347 N 
HETATM    2  C   UNL     1      -3.653 -12.406 -38.486  1.00  0.00     0.252 C 
HETATM    3  O   UNL     1      -3.038 -11.355 -38.648  1.00  0.00    -0.268 OA
HETATM    4  H   UNL     1      -3.646 -14.268 -37.648  1.00  0.00     0.163 HD
ENDROOT
BRANCH   2   5
HETATM    5  C   UNL     1      -5.100 -12.503 -38.810  1.00  0.00     0.032 A 
HETATM    6  C   UNL     1      -5.522 -12.100 -40.078  1.00  0.00     0.018 A 
HETATM    7  C   UNL     1      -6.867 -12.208 -40.433  1.00  0.00     0.014 A 
HETATM    8  C   UNL     1      -7.812 -12.726 -39.531  1.00  0.00    -0.017 A 
HETATM    9  C   UNL     1      -7.395 -13.128 -38.245  1.00  0.00    -0.050 A 
HETATM   10  C   UNL     1      -8.350 -13.698 -37.229  1.00  0.00     0.049 C 
HETATM   11  C   UNL     1      -6.031 -13.024 -37.902  1.00  0.00     0.024 A 
BRANCH   8  12
HETATM   12  C   UNL     1      -9.187 -12.854 -39.973  1.00  0.00     0.011 A 
HETATM   13  C   UNL     1      -9.975 -13.996 -40.242  1.00  0.00     0.152 A 
HETATM   14  N   UNL     1     -11.208 -13.684 -40.645  1.00  0.00    -0.187 NA
HETATM   15  N   UNL     1     -11.212 -12.342 -40.648  1.00  0.00    -0.289 N 
HETATM   16  H   UNL     1     -12.062 -11.863 -40.930  1.00  0.00     0.188 HD
HETATM   17  C   UNL     1     -10.022 -11.794 -40.259  1.00  0.00     0.123 A 
ENDBRANCH   8  12
ENDBRANCH   2   5
BRANCH   1  18
HETATM   18  C   UNL     1      -1.677 -13.523 -37.443  1.00  0.00     0.143 C 
BRANCH  18  19
HETATM   19  C   UNL     1      -0.542 -13.769 -38.492  1.00  0.00     0.263 C 
BRANCH  19  20
HETATM   20  N   UNL     1      -0.959 -14.673 -39.642  1.00  0.00    -0.076 N 
HETATM   21  C   UNL     1      -1.102 -13.964 -40.953  1.00  0.00     0.269 C 
HETATM   22  H   UNL     1      -1.916 -15.015 -39.405  1.00  0.00     0.279 HD
HETATM   23  C   UNL     1      -0.104 -15.896 -39.753  1.00  0.00     0.269 C 
ENDBRANCH  19  20
ENDBRANCH  18  19
BRANCH  18  24
HETATM   24  C   UNL     1      -1.575 -14.570 -36.347  1.00  0.00    -0.034 A 
HETATM   25  C   UNL     1      -0.335 -15.162 -36.056  1.00  0.00     0.009 A 
HETATM   26  C   UNL     1      -0.233 -16.140 -35.065  1.00  0.00     0.001 A 
HETATM   27  C   UNL     1      -1.363 -16.535 -34.352  1.00  0.00     0.000 A 
HETATM   28  C   UNL     1      -2.597 -15.952 -34.626  1.00  0.00     0.001 A 
HETATM   29  C   UNL     1      -2.705 -14.975 -35.616  1.00  0.00     0.009 A 
ENDBRANCH  18  24
ENDBRANCH   1  18
TORSDOF 6
ENDMDL
MODEL 10
REMARK VINA RESULT:      -7.9      3.994      5.627
REMARK  6 active torsions:
REMARK  status: ('A' for Active; 'I' for Inactive)
REMARK    1  A    between atoms: N_2  and  C_5 
REMARK    2  A    between atoms: C_5  and  C_6 
REMARK    3  A    between atoms: C_6  and  N_7 
REMARK    4  A    between atoms: C_6  and  C_23 
REMARK       I    between atoms: N_7  and  C_8 
REMARK    5  A    between atoms: C_8  and  C_10 
REMARK    6  A    between atoms: C_13  and  C_17 
ROOT
HETATM    1  N   UNL     1      -8.075   2.833 -33.681  1.00  0.00    -0.347 N 
HETATM    2  C   UNL     1      -6.794   2.488 -34.048  1.00  0.00     0.252 C 
HETATM    3  O   UNL     1      -5.953   3.339 -34.329  1.00  0.00    -0.268 OA
HETATM    4  H   UNL     1      -8.771   2.093 -33.721  1.00  0.00     0.163 HD
ENDROOT
BRANCH   2   5
HETATM    5  C   UNL     1      -6.462   1.040 -34.095  1.00  0.00     0.032 A 
HETATM    6  C   UNL     1      -7.093   0.248 -35.057  1.00  0.00     0.018 A 
HETATM    7  C   UNL     1      -6.784  -1.109 -35.156  1.00  0.00     0.014 A 
HETATM    8  C   UNL     1      -5.835  -1.696 -34.302  1.00  0.00    -0.017 A 
HETATM    9  C   UNL     1      -5.199  -0.905 -33.324  1.00  0.00    -0.050 A 
HETATM   10  C   UNL     1      -4.167  -1.465 -32.378  1.00  0.00     0.049 C 
HETATM   11  C   UNL     1      -5.512   0.467 -33.240  1.00  0.00     0.024 A 
BRANCH   8  12
HETATM   12  C   UNL     1      -5.524  -3.101 -34.483  1.00  0.00     0.011 A 
HETATM   13  C   UNL     1      -6.314  -4.177 -34.945  1.00  0.00     0.152 A 
HETATM   14  N   UNL     1      -5.650  -5.335 -34.953  1.00  0.00    -0.187 NA
HETATM   15  N   UNL     1      -4.435  -5.008 -34.484  1.00  0.00    -0.289 N 
HETATM   16  H   UNL     1      -3.740  -5.742 -34.393  1.00  0.00     0.188 HD
HETATM   17  C   UNL     1      -4.309  -3.681 -34.181  1.00  0.00     0.123 A 
ENDBRANCH   8  12
ENDBRANCH   2   5
BRANCH   1  18
HETATM   18  C   UNL     1      -8.595   4.200 -33.796  1.00  0.00     0.143 C 
BRANCH  18  19
HETATM   19  C   UNL     1      -8.337   5.103 -32.544  1.00  0.00     0.263 C 
BRANCH  19  20
HETATM   20  N   UNL     1      -7.714   6.449 -32.880  1.00  0.00    -0.076 N 
HETATM   21  C   UNL     1      -8.436   7.619 -32.288  1.00  0.00     0.269 C 
HETATM   22  H   UNL     1      -7.807   6.558 -33.913  1.00  0.00     0.279 HD
HETATM   23  C   UNL     1      -6.245   6.491 -32.596  1.00  0.00     0.269 C 
ENDBRANCH  19  20
ENDBRANCH  18  19
BRANCH  18  24
HETATM   24  C   UNL     1     -10.089   4.146 -34.068  1.00  0.00    -0.034 A 
HETATM   25  C   UNL     1     -10.973   4.898 -33.279  1.00  0.00     0.009 A 
HETATM   26  C   UNL     1     -12.349   4.841 -33.508  1.00  0.00     0.001 A 
HETATM   27  C   UNL     1     -12.857   4.037 -34.525  1.00  0.00     0.000 A 
HETATM   28  C   UNL     1     -11.991   3.290 -35.320  1.00  0.00     0.001 A 
HETATM   29  C   UNL     1     -10.615   3.344 -35.095  1.00  0.00     0.009 A 
ENDBRANCH  18  24
ENDBRANCH   1  18
TORSDOF 6
ENDMDL
