MODEL 1
REMARK VINA RESULT:      -9.4      0.000      0.000
REMARK  7 active torsions:
REMARK  status: ('A' for Active; 'I' for Inactive)
REMARK    1  A    between atoms: C_2  and  O_3 
REMARK    2  A    between atoms: O_3  and  C_4 
REMARK       I    between atoms: C_4  and  N_5 
REMARK       I    between atoms: N_8  and  C_9 
REMARK    3  A    between atoms: C_9  and  C_10 
REMARK    4  A    between atoms: C_11  and  N_12 
REMARK       I    between atoms: N_12  and  C_13 
REMARK    5  A    between atoms: C_13  and  C_14 
REMARK    6  A    between atoms: N_16  and  C_17 
REMARK    7  A    between atoms: C_18  and  O_19 
ROOT
HETATM    1  C   UNL     1      -6.884   4.592 -30.694  1.00  0.00     0.059 A 
HETATM    2  C   UNL     1      -8.151   4.177 -31.135  1.00  0.00     0.050 A 
HETATM    3  C   UNL     1      -9.290   4.712 -30.506  1.00  0.00     0.030 A 
HETATM    4  C   UNL     1      -9.178   5.655 -29.482  1.00  0.00     0.002 A 
HETATM    5  C   UNL     1      -7.923   6.054 -29.041  1.00  0.00     0.001 A 
HETATM    6  C   UNL     1      -6.782   5.509 -29.628  1.00  0.00     0.019 A 
ENDROOT
BRANCH   2   7
HETATM    7  N   UNL     1      -8.412   3.190 -32.108  1.00  0.00    -0.326 N 
HETATM    8  C   UNL     1      -8.504   1.826 -31.927  1.00  0.00     0.228 C 
HETATM    9  O   UNL     1      -8.006   1.212 -30.987  1.00  0.00    -0.273 OA
HETATM   10  H   UNL     1      -8.432   3.522 -33.065  1.00  0.00     0.169 HD
BRANCH   8  11
HETATM   11  C   UNL     1      -9.283   1.086 -33.023  1.00  0.00     0.105 C 
HETATM   12  C   UNL     1      -8.913  -0.381 -33.146  1.00  0.00     0.147 C 
HETATM   13  N   UNL     1      -7.782  -0.366 -34.051  1.00  0.00    -0.315 N 
HETATM   14  C   UNL     1      -7.792   0.786 -34.851  1.00  0.00     0.225 C 
HETATM   15  O   UNL     1      -7.041   1.070 -35.770  1.00  0.00    -0.273 OA
HETATM   16  C   UNL     1      -8.949   1.648 -34.402  1.00  0.00     0.119 C 
BRANCH  13  17
HETATM   17  C   UNL     1      -6.729  -1.317 -33.982  1.00  0.00     0.071 A 
HETATM   18  C   UNL     1      -5.468  -1.008 -33.444  1.00  0.00     0.095 A 
HETATM   19  C   UNL     1      -4.407  -1.914 -33.537  1.00  0.00     0.039 A 
HETATM   20  C   UNL     1      -4.596  -3.155 -34.143  1.00  0.00     0.009 A 
HETATM   21  C   UNL     1      -5.852  -3.509 -34.639  1.00  0.00    -0.060 A 
HETATM   22  C   UNL     1      -6.052  -4.814 -35.353  1.00  0.00     0.048 C 
HETATM   23  C   UNL     1      -6.910  -2.589 -34.548  1.00  0.00     0.039 A 
BRANCH  18  24
HETATM   24  O   UNL     1      -5.261   0.199 -32.819  1.00  0.00    -0.354 OA
HETATM   25  C   UNL     1      -3.874   0.376 -32.516  1.00  0.00     0.210 C 
ENDBRANCH  18  24
ENDBRANCH  13  17
ENDBRANCH   8  11
ENDBRANCH   2   7
BRANCH   1  26
HETATM   26  C   UNL     1      -5.620   3.938 -31.112  1.00  0.00     0.256 C 
HETATM   27  N   UNL     1      -4.728   4.650 -31.903  1.00  0.00    -0.345 N 
HETATM   28  C   UNL     1      -4.991   5.916 -32.592  1.00  0.00     0.146 C 
HETATM   29  C   UNL     1      -3.427   4.071 -32.228  1.00  0.00     0.146 C 
HETATM   30  C   UNL     1      -3.908   6.943 -32.237  1.00  0.00     0.148 C 
HETATM   31  N   UNL     1      -2.550   6.418 -32.411  1.00  0.00    -0.325 N 
HETATM   32  C   UNL     1      -1.522   7.343 -32.518  1.00  0.00     0.362 C 
HETATM   33  C   UNL     1      -2.296   5.058 -31.907  1.00  0.00     0.148 C 
HETATM   34  O   UNL     1      -1.703   8.549 -32.630  1.00  0.00    -0.238 OA
HETATM   35  O   UNL     1      -5.382   2.819 -30.658  1.00  0.00    -0.267 OA
BRANCH  32  36
HETATM   36  O   UNL     1      -0.293   6.760 -32.487  1.00  0.00    -0.304 OA
BRANCH  36  37
HETATM   37  C   UNL     1       0.459   6.942 -31.280  1.00  0.00     0.176 C 
HETATM   38  C   UNL     1       0.868   5.603 -30.693  1.00  0.00     0.034 C 
ENDBRANCH  36  37
ENDBRANCH  32  36
ENDBRANCH   1  26
TORSDOF 7
ENDMDL
MODEL 2
REMARK VINA RESULT:      -9.3      2.454      9.078
REMARK  7 active torsions:
REMARK  status: ('A' for Active; 'I' for Inactive)
REMARK    1  A    between atoms: C_2  and  O_3 
REMARK    2  A    between atoms: O_3  and  C_4 
REMARK       I    between atoms: C_4  and  N_5 
REMARK       I    between atoms: N_8  and  C_9 
REMARK    3  A    between atoms: C_9  and  C_10 
REMARK    4  A    between atoms: C_11  and  N_12 
REMARK       I    between atoms: N_12  and  C_13 
REMARK    5  A    between atoms: C_13  and  C_14 
REMARK    6  A    between atoms: N_16  and  C_17 
REMARK    7  A    between atoms: C_18  and  O_19 
ROOT
HETATM    1  C   UNL     1      -4.708   2.482 -30.832  1.00  0.00     0.059 A 
HETATM    2  C   UNL     1      -4.450   3.727 -31.428  1.00  0.00     0.050 A 
HETATM    3  C   UNL     1      -5.434   4.729 -31.344  1.00  0.00     0.030 A 
HETATM    4  C   UNL     1      -6.634   4.512 -30.662  1.00  0.00     0.002 A 
HETATM    5  C   UNL     1      -6.889   3.276 -30.084  1.00  0.00     0.001 A 
HETATM    6  C   UNL     1      -5.941   2.259 -30.187  1.00  0.00     0.019 A 
ENDROOT
BRANCH   2   7
HETATM    7  N   UNL     1      -3.318   4.063 -32.199  1.00  0.00    -0.326 N 
HETATM    8  C   UNL     1      -3.212   5.040 -33.167  1.00  0.00     0.228 C 
HETATM    9  O   UNL     1      -4.161   5.515 -33.784  1.00  0.00    -0.273 OA
HETATM   10  H   UNL     1      -2.525   3.441 -32.094  1.00  0.00     0.169 HD
BRANCH   8  11
HETATM   11  C   UNL     1      -1.777   5.505 -33.451  1.00  0.00     0.105 C 
HETATM   12  C   UNL     1      -0.889   5.521 -32.220  1.00  0.00     0.147 C 
HETATM   13  N   UNL     1      -1.131   6.831 -31.651  1.00  0.00    -0.315 N 
HETATM   14  C   UNL     1      -1.592   7.727 -32.627  1.00  0.00     0.225 C 
HETATM   15  O   UNL     1      -1.807   8.923 -32.509  1.00  0.00    -0.273 OA
HETATM   16  C   UNL     1      -1.758   6.957 -33.917  1.00  0.00     0.119 C 
BRANCH  13  17
HETATM   17  C   UNL     1      -1.070   7.086 -30.256  1.00  0.00     0.071 A 
HETATM   18  C   UNL     1      -2.214   7.087 -29.439  1.00  0.00     0.095 A 
HETATM   19  C   UNL     1      -2.143   7.499 -28.104  1.00  0.00     0.039 A 
HETATM   20  C   UNL     1      -0.923   7.888 -27.556  1.00  0.00     0.009 A 
HETATM   21  C   UNL     1       0.239   7.847 -28.329  1.00  0.00    -0.060 A 
HETATM   22  C   UNL     1       1.547   8.327 -27.770  1.00  0.00     0.048 C 
HETATM   23  C   UNL     1       0.156   7.440 -29.670  1.00  0.00     0.039 A 
BRANCH  18  24
HETATM   24  O   UNL     1      -3.426   6.683 -29.948  1.00  0.00    -0.354 OA
HETATM   25  C   UNL     1      -4.415   7.698 -29.755  1.00  0.00     0.210 C 
ENDBRANCH  18  24
ENDBRANCH  13  17
ENDBRANCH   8  11
ENDBRANCH   2   7
BRANCH   1  26
HETATM   26  C   UNL     1      -3.861   1.284 -31.047  1.00  0.00     0.256 C 
HETATM   27  N   UNL     1      -4.460   0.109 -31.483  1.00  0.00    -0.345 N 
HETATM   28  C   UNL     1      -5.898  -0.171 -31.532  1.00  0.00     0.146 C 
HETATM   29  C   UNL     1      -3.631  -1.047 -31.815  1.00  0.00     0.146 C 
HETATM   30  C   UNL     1      -6.291  -0.656 -32.933  1.00  0.00     0.148 C 
HETATM   31  N   UNL     1      -5.436  -1.743 -33.418  1.00  0.00    -0.325 N 
HETATM   32  C   UNL     1      -5.927  -2.522 -34.456  1.00  0.00     0.362 C 
HETATM   33  C   UNL     1      -3.987  -1.590 -33.205  1.00  0.00     0.148 C 
HETATM   34  O   UNL     1      -7.076  -2.449 -34.874  1.00  0.00    -0.238 OA
HETATM   35  O   UNL     1      -2.645   1.417 -30.914  1.00  0.00    -0.267 OA
BRANCH  32  36
HETATM   36  O   UNL     1      -4.991  -3.374 -34.955  1.00  0.00    -0.304 OA
BRANCH  36  37
HETATM   37  C   UNL     1      -5.130  -4.751 -34.581  1.00  0.00     0.176 C 
HETATM   38  C   UNL     1      -3.988  -5.182 -33.679  1.00  0.00     0.034 C 
ENDBRANCH  36  37
ENDBRANCH  32  36
ENDBRANCH   1  26
TORSDOF 7
ENDMDL
MODEL 3
REMARK VINA RESULT:      -9.0      2.311      5.197
REMARK  7 active torsions:
REMARK  status: ('A' for Active; 'I' for Inactive)
REMARK    1  A    between atoms: C_2  and  O_3 
REMARK    2  A    between atoms: O_3  and  C_4 
REMARK       I    between atoms: C_4  and  N_5 
REMARK       I    between atoms: N_8  and  C_9 
REMARK    3  A    between atoms: C_9  and  C_10 
REMARK    4  A    between atoms: C_11  and  N_12 
REMARK       I    between atoms: N_12  and  C_13 
REMARK    5  A    between atoms: C_13  and  C_14 
REMARK    6  A    between atoms: N_16  and  C_17 
REMARK    7  A    between atoms: C_18  and  O_19 
ROOT
HETATM    1  C   UNL     1      -4.502   4.833 -31.028  1.00  0.00     0.059 A 
HETATM    2  C   UNL     1      -4.364   3.646 -31.766  1.00  0.00     0.050 A 
HETATM    3  C   UNL     1      -3.139   3.393 -32.410  1.00  0.00     0.030 A 
HETATM    4  C   UNL     1      -2.067   4.283 -32.305  1.00  0.00     0.002 A 
HETATM    5  C   UNL     1      -2.212   5.460 -31.583  1.00  0.00     0.001 A 
HETATM    6  C   UNL     1      -3.429   5.745 -30.966  1.00  0.00     0.019 A 
ENDROOT
BRANCH   2   7
HETATM    7  N   UNL     1      -5.376   2.695 -32.011  1.00  0.00    -0.326 N 
HETATM    8  C   UNL     1      -6.125   1.997 -31.087  1.00  0.00     0.228 C 
HETATM    9  O   UNL     1      -5.788   1.798 -29.923  1.00  0.00    -0.273 OA
HETATM   10  H   UNL     1      -5.487   2.424 -32.981  1.00  0.00     0.169 HD
BRANCH   8  11
HETATM   11  C   UNL     1      -7.452   1.445 -31.625  1.00  0.00     0.105 C 
HETATM   12  C   UNL     1      -7.439  -0.057 -31.848  1.00  0.00     0.147 C 
HETATM   13  N   UNL     1      -6.914  -0.190 -33.192  1.00  0.00    -0.315 N 
HETATM   14  C   UNL     1      -7.126   0.982 -33.934  1.00  0.00     0.225 C 
HETATM   15  O   UNL     1      -6.888   1.176 -35.116  1.00  0.00    -0.273 OA
HETATM   16  C   UNL     1      -7.751   2.003 -33.013  1.00  0.00     0.119 C 
BRANCH  13  17
HETATM   17  C   UNL     1      -6.138  -1.304 -33.607  1.00  0.00     0.071 A 
HETATM   18  C   UNL     1      -4.736  -1.324 -33.512  1.00  0.00     0.095 A 
HETATM   19  C   UNL     1      -3.993  -2.366 -34.075  1.00  0.00     0.039 A 
HETATM   20  C   UNL     1      -4.640  -3.421 -34.717  1.00  0.00     0.009 A 
HETATM   21  C   UNL     1      -6.035  -3.453 -34.780  1.00  0.00    -0.060 A 
HETATM   22  C   UNL     1      -6.740  -4.548 -35.526  1.00  0.00     0.048 C 
HETATM   23  C   UNL     1      -6.772  -2.399 -34.218  1.00  0.00     0.039 A 
BRANCH  18  24
HETATM   24  O   UNL     1      -4.074  -0.309 -32.862  1.00  0.00    -0.354 OA
HETATM   25  C   UNL     1      -3.589  -0.757 -31.593  1.00  0.00     0.210 C 
ENDBRANCH  18  24
ENDBRANCH  13  17
ENDBRANCH   8  11
ENDBRANCH   2   7
BRANCH   1  26
HETATM   26  C   UNL     1      -5.800   5.319 -30.502  1.00  0.00     0.256 C 
HETATM   27  N   UNL     1      -6.732   5.838 -31.391  1.00  0.00    -0.345 N 
HETATM   28  C   UNL     1      -6.496   6.193 -32.794  1.00  0.00     0.146 C 
HETATM   29  C   UNL     1      -8.060   6.212 -30.913  1.00  0.00     0.146 C 
HETATM   30  C   UNL     1      -7.537   5.513 -33.691  1.00  0.00     0.148 C 
HETATM   31  N   UNL     1      -8.911   5.725 -33.226  1.00  0.00    -0.325 N 
HETATM   32  C   UNL     1      -9.930   5.521 -34.145  1.00  0.00     0.362 C 
HETATM   33  C   UNL     1      -9.152   5.572 -31.781  1.00  0.00     0.148 C 
HETATM   34  O   UNL     1      -9.738   5.330 -35.340  1.00  0.00    -0.238 OA
HETATM   35  O   UNL     1      -6.025   5.154 -29.303  1.00  0.00    -0.267 OA
BRANCH  32  36
HETATM   36  O   UNL     1     -11.163   5.558 -33.571  1.00  0.00    -0.304 OA
BRANCH  36  37
HETATM   37  C   UNL     1     -12.085   4.544 -33.995  1.00  0.00     0.176 C 
HETATM   38  C   UNL     1     -11.904   3.277 -33.178  1.00  0.00     0.034 C 
ENDBRANCH  36  37
ENDBRANCH  32  36
ENDBRANCH   1  26
TORSDOF 7
ENDMDL
MODEL 4
REMARK VINA RESULT:      -9.0      3.136      5.293
REMARK  7 active torsions:
REMARK  status: ('A' for Active; 'I' for Inactive)
REMARK    1  A    between atoms: C_2  and  O_3 
REMARK    2  A    between atoms: O_3  and  C_4 
REMARK       I    between atoms: C_4  and  N_5 
REMARK       I    between atoms: N_8  and  C_9 
REMARK    3  A    between atoms: C_9  and  C_10 
REMARK    4  A    between atoms: C_11  and  N_12 
REMARK       I    between atoms: N_12  and  C_13 
REMARK    5  A    between atoms: C_13  and  C_14 
REMARK    6  A    between atoms: N_16  and  C_17 
REMARK    7  A    between atoms: C_18  and  O_19 
ROOT
HETATM    1  C   UNL     1      -2.411   6.364 -31.962  1.00  0.00     0.059 A 
HETATM    2  C   UNL     1      -2.642   4.985 -32.094  1.00  0.00     0.050 A 
HETATM    3  C   UNL     1      -2.304   4.361 -33.309  1.00  0.00     0.030 A 
HETATM    4  C   UNL     1      -1.726   5.079 -34.358  1.00  0.00     0.002 A 
HETATM    5  C   UNL     1      -1.509   6.445 -34.226  1.00  0.00     0.001 A 
HETATM    6  C   UNL     1      -1.869   7.088 -33.043  1.00  0.00     0.019 A 
ENDROOT
BRANCH   2   7
HETATM    7  N   UNL     1      -3.274   4.152 -31.149  1.00  0.00    -0.326 N 
HETATM    8  C   UNL     1      -4.606   3.799 -31.087  1.00  0.00     0.228 C 
HETATM    9  O   UNL     1      -5.522   4.438 -31.600  1.00  0.00    -0.273 OA
HETATM   10  H   UNL     1      -2.694   3.866 -30.369  1.00  0.00     0.169 HD
BRANCH   8  11
HETATM   11  C   UNL     1      -4.892   2.517 -30.294  1.00  0.00     0.105 C 
HETATM   12  C   UNL     1      -4.815   1.253 -31.133  1.00  0.00     0.147 C 
HETATM   13  N   UNL     1      -6.152   1.135 -31.681  1.00  0.00    -0.315 N 
HETATM   14  C   UNL     1      -7.086   1.811 -30.882  1.00  0.00     0.225 C 
HETATM   15  O   UNL     1      -8.300   1.840 -31.005  1.00  0.00    -0.273 OA
HETATM   16  C   UNL     1      -6.327   2.506 -29.775  1.00  0.00     0.119 C 
BRANCH  13  17
HETATM   17  C   UNL     1      -6.413   0.557 -32.951  1.00  0.00     0.071 A 
HETATM   18  C   UNL     1      -6.752   1.329 -34.075  1.00  0.00     0.095 A 
HETATM   19  C   UNL     1      -7.159   0.720 -35.267  1.00  0.00     0.039 A 
HETATM   20  C   UNL     1      -7.206  -0.669 -35.364  1.00  0.00     0.009 A 
HETATM   21  C   UNL     1      -6.824  -1.461 -34.280  1.00  0.00    -0.060 A 
HETATM   22  C   UNL     1      -6.935  -2.956 -34.349  1.00  0.00     0.048 C 
HETATM   23  C   UNL     1      -6.425  -0.841 -33.085  1.00  0.00     0.039 A 
BRANCH  18  24
HETATM   24  O   UNL     1      -6.690   2.701 -34.015  1.00  0.00    -0.354 OA
HETATM   25  C   UNL     1      -7.995   3.270 -34.151  1.00  0.00     0.210 C 
ENDBRANCH  18  24
ENDBRANCH  13  17
ENDBRANCH   8  11
ENDBRANCH   2   7
BRANCH   1  26
HETATM   26  C   UNL     1      -2.929   7.172 -30.832  1.00  0.00     0.256 C 
HETATM   27  N   UNL     1      -2.151   7.306 -29.690  1.00  0.00    -0.345 N 
HETATM   28  C   UNL     1      -0.950   6.533 -29.358  1.00  0.00     0.146 C 
HETATM   29  C   UNL     1      -2.587   8.193 -28.615  1.00  0.00     0.146 C 
HETATM   30  C   UNL     1       0.207   7.480 -29.019  1.00  0.00     0.148 C 
HETATM   31  N   UNL     1      -0.163   8.497 -28.029  1.00  0.00    -0.325 N 
HETATM   32  C   UNL     1       0.869   9.130 -27.354  1.00  0.00     0.362 C 
HETATM   33  C   UNL     1      -1.464   9.160 -28.218  1.00  0.00     0.148 C 
HETATM   34  O   UNL     1       2.042   8.781 -27.425  1.00  0.00    -0.238 OA
HETATM   35  O   UNL     1      -3.995   7.765 -31.000  1.00  0.00    -0.267 OA
BRANCH  32  36
HETATM   36  O   UNL     1       0.435  10.179 -26.603  1.00  0.00    -0.304 OA
BRANCH  36  37
HETATM   37  C   UNL     1       0.540  10.021 -25.182  1.00  0.00     0.176 C 
HETATM   38  C   UNL     1      -0.828  10.106 -24.528  1.00  0.00     0.034 C 
ENDBRANCH  36  37
ENDBRANCH  32  36
ENDBRANCH   1  26
TORSDOF 7
ENDMDL
MODEL 5
REMARK VINA RESULT:      -9.0      2.868      5.388
REMARK  7 active torsions:
REMARK  status: ('A' for Active; 'I' for Inactive)
REMARK    1  A    between atoms: C_2  and  O_3 
REMARK    2  A    between atoms: O_3  and  C_4 
REMARK       I    between atoms: C_4  and  N_5 
REMARK       I    between atoms: N_8  and  C_9 
REMARK    3  A    between atoms: C_9  and  C_10 
REMARK    4  A    between atoms: C_11  and  N_12 
REMARK       I    between atoms: N_12  and  C_13 
REMARK    5  A    between atoms: C_13  and  C_14 
REMARK    6  A    between atoms: N_16  and  C_17 
REMARK    7  A    between atoms: C_18  and  O_19 
ROOT
HETATM    1  C   UNL     1      -1.388   5.569 -31.924  1.00  0.00     0.059 A 
HETATM    2  C   UNL     1      -2.250   4.492 -32.189  1.00  0.00     0.050 A 
HETATM    3  C   UNL     1      -2.600   4.223 -33.525  1.00  0.00     0.030 A 
HETATM    4  C   UNL     1      -2.087   4.987 -34.577  1.00  0.00     0.002 A 
HETATM    5  C   UNL     1      -1.243   6.057 -34.309  1.00  0.00     0.001 A 
HETATM    6  C   UNL     1      -0.913   6.360 -32.990  1.00  0.00     0.019 A 
ENDROOT
BRANCH   2   7
HETATM    7  N   UNL     1      -2.891   3.683 -31.229  1.00  0.00    -0.326 N 
HETATM    8  C   UNL     1      -4.245   3.470 -31.068  1.00  0.00     0.228 C 
HETATM    9  O   UNL     1      -5.123   4.228 -31.472  1.00  0.00    -0.273 OA
HETATM   10  H   UNL     1      -2.284   3.298 -30.514  1.00  0.00     0.169 HD
BRANCH   8  11
HETATM   11  C   UNL     1      -4.604   2.186 -30.307  1.00  0.00     0.105 C 
HETATM   12  C   UNL     1      -4.627   0.947 -31.185  1.00  0.00     0.147 C 
HETATM   13  N   UNL     1      -5.977   0.936 -31.710  1.00  0.00    -0.315 N 
HETATM   14  C   UNL     1      -6.850   1.649 -30.875  1.00  0.00     0.225 C 
HETATM   15  O   UNL     1      -8.061   1.763 -30.975  1.00  0.00    -0.273 OA
HETATM   16  C   UNL     1      -6.027   2.256 -29.762  1.00  0.00     0.119 C 
BRANCH  13  17
HETATM   17  C   UNL     1      -6.298   0.416 -32.992  1.00  0.00     0.071 A 
HETATM   18  C   UNL     1      -6.681   1.239 -34.065  1.00  0.00     0.095 A 
HETATM   19  C   UNL     1      -7.145   0.685 -35.263  1.00  0.00     0.039 A 
HETATM   20  C   UNL     1      -7.206  -0.698 -35.419  1.00  0.00     0.009 A 
HETATM   21  C   UNL     1      -6.782  -1.539 -34.389  1.00  0.00    -0.060 A 
HETATM   22  C   UNL     1      -6.905  -3.029 -34.519  1.00  0.00     0.048 C 
HETATM   23  C   UNL     1      -6.325  -0.975 -33.187  1.00  0.00     0.039 A 
BRANCH  18  24
HETATM   24  O   UNL     1      -6.607   2.606 -33.947  1.00  0.00    -0.354 OA
HETATM   25  C   UNL     1      -7.906   3.192 -34.074  1.00  0.00     0.210 C 
ENDBRANCH  18  24
ENDBRANCH  13  17
ENDBRANCH   8  11
ENDBRANCH   2   7
BRANCH   1  26
HETATM   26  C   UNL     1      -1.132   6.092 -30.561  1.00  0.00     0.256 C 
HETATM   27  N   UNL     1      -2.073   6.928 -29.975  1.00  0.00    -0.345 N 
HETATM   28  C   UNL     1      -3.210   7.566 -30.646  1.00  0.00     0.146 C 
HETATM   29  C   UNL     1      -1.900   7.358 -28.591  1.00  0.00     0.146 C 
HETATM   30  C   UNL     1      -4.506   7.265 -29.884  1.00  0.00     0.148 C 
HETATM   31  N   UNL     1      -4.400   7.548 -28.450  1.00  0.00    -0.325 N 
HETATM   32  C   UNL     1      -5.584   7.707 -27.745  1.00  0.00     0.362 C 
HETATM   33  C   UNL     1      -3.172   7.095 -27.775  1.00  0.00     0.148 C 
HETATM   34  O   UNL     1      -6.686   7.777 -28.277  1.00  0.00    -0.238 OA
HETATM   35  O   UNL     1      -0.130   5.682 -29.975  1.00  0.00    -0.267 OA
BRANCH  32  36
HETATM   36  O   UNL     1      -5.385   7.777 -26.401  1.00  0.00    -0.304 OA
BRANCH  36  37
HETATM   37  C   UNL     1      -5.208   9.093 -25.859  1.00  0.00     0.176 C 
HETATM   38  C   UNL     1      -4.553   9.029 -24.491  1.00  0.00     0.034 C 
ENDBRANCH  36  37
ENDBRANCH  32  36
ENDBRANCH   1  26
TORSDOF 7
ENDMDL
MODEL 6
REMARK VINA RESULT:      -8.9      1.309      2.185
REMARK  7 active torsions:
REMARK  status: ('A' for Active; 'I' for Inactive)
REMARK    1  A    between atoms: C_2  and  O_3 
REMARK    2  A    between atoms: O_3  and  C_4 
REMARK       I    between atoms: C_4  and  N_5 
REMARK       I    between atoms: N_8  and  C_9 
REMARK    3  A    between atoms: C_9  and  C_10 
REMARK    4  A    between atoms: C_11  and  N_12 
REMARK       I    between atoms: N_12  and  C_13 
REMARK    5  A    between atoms: C_13  and  C_14 
REMARK    6  A    between atoms: N_16  and  C_17 
REMARK    7  A    between atoms: C_18  and  O_19 
ROOT
HETATM    1  C   UNL     1      -7.887   4.694 -31.364  1.00  0.00     0.059 A 
HETATM    2  C   UNL     1      -8.919   4.084 -32.096  1.00  0.00     0.050 A 
HETATM    3  C   UNL     1     -10.182   4.703 -32.121  1.00  0.00     0.030 A 
HETATM    4  C   UNL     1     -10.411   5.912 -31.457  1.00  0.00     0.002 A 
HETATM    5  C   UNL     1      -9.391   6.505 -30.726  1.00  0.00     0.001 A 
HETATM    6  C   UNL     1      -8.142   5.889 -30.661  1.00  0.00     0.019 A 
ENDROOT
BRANCH   2   7
HETATM    7  N   UNL     1      -8.850   2.840 -32.755  1.00  0.00    -0.326 N 
HETATM    8  C   UNL     1      -9.033   1.584 -32.215  1.00  0.00     0.228 C 
HETATM    9  O   UNL     1      -8.908   1.312 -31.024  1.00  0.00    -0.273 OA
HETATM   10  H   UNL     1      -8.527   2.877 -33.715  1.00  0.00     0.169 HD
BRANCH   8  11
HETATM   11  C   UNL     1      -9.400   0.497 -33.235  1.00  0.00     0.105 C 
HETATM   12  C   UNL     1      -8.565  -0.765 -33.103  1.00  0.00     0.147 C 
HETATM   13  N   UNL     1      -7.403  -0.483 -33.921  1.00  0.00    -0.315 N 
HETATM   14  C   UNL     1      -7.691   0.491 -34.888  1.00  0.00     0.225 C 
HETATM   15  O   UNL     1      -6.970   0.895 -35.787  1.00  0.00    -0.273 OA
HETATM   16  C   UNL     1      -9.108   0.963 -34.657  1.00  0.00     0.119 C 
BRANCH  13  17
HETATM   17  C   UNL     1      -6.116  -1.010 -33.634  1.00  0.00     0.071 A 
HETATM   18  C   UNL     1      -5.662  -2.226 -34.173  1.00  0.00     0.095 A 
HETATM   19  C   UNL     1      -4.457  -2.795 -33.745  1.00  0.00     0.039 A 
HETATM   20  C   UNL     1      -3.673  -2.144 -32.795  1.00  0.00     0.009 A 
HETATM   21  C   UNL     1      -4.074  -0.909 -32.282  1.00  0.00    -0.060 A 
HETATM   22  C   UNL     1      -3.272  -0.230 -31.209  1.00  0.00     0.048 C 
HETATM   23  C   UNL     1      -5.288  -0.349 -32.711  1.00  0.00     0.039 A 
BRANCH  18  24
HETATM   24  O   UNL     1      -6.403  -2.876 -35.130  1.00  0.00    -0.354 OA
HETATM   25  C   UNL     1      -6.446  -4.281 -34.863  1.00  0.00     0.210 C 
ENDBRANCH  18  24
ENDBRANCH  13  17
ENDBRANCH   8  11
ENDBRANCH   2   7
BRANCH   1  26
HETATM   26  C   UNL     1      -6.593   4.031 -31.072  1.00  0.00     0.256 C 
HETATM   27  N   UNL     1      -5.535   4.210 -31.953  1.00  0.00    -0.345 N 
HETATM   28  C   UNL     1      -5.607   4.796 -33.295  1.00  0.00     0.146 C 
HETATM   29  C   UNL     1      -4.220   3.667 -31.627  1.00  0.00     0.146 C 
HETATM   30  C   UNL     1      -4.576   5.923 -33.433  1.00  0.00     0.148 C 
HETATM   31  N   UNL     1      -3.232   5.516 -33.011  1.00  0.00    -0.325 N 
HETATM   32  C   UNL     1      -2.167   6.282 -33.460  1.00  0.00     0.362 C 
HETATM   33  C   UNL     1      -3.136   4.745 -31.759  1.00  0.00     0.148 C 
HETATM   34  O   UNL     1      -2.274   7.168 -34.299  1.00  0.00    -0.238 OA
HETATM   35  O   UNL     1      -6.494   3.423 -30.007  1.00  0.00    -0.267 OA
BRANCH  32  36
HETATM   36  O   UNL     1      -0.991   5.940 -32.865  1.00  0.00    -0.304 OA
BRANCH  36  37
HETATM   37  C   UNL     1      -0.328   6.981 -32.137  1.00  0.00     0.176 C 
HETATM   38  C   UNL     1       0.444   6.409 -30.961  1.00  0.00     0.034 C 
ENDBRANCH  36  37
ENDBRANCH  32  36
ENDBRANCH   1  26
TORSDOF 7
ENDMDL
MODEL 7
REMARK VINA RESULT:      -8.8      1.903      8.307
REMARK  7 active torsions:
REMARK  status: ('A' for Active; 'I' for Inactive)
REMARK    1  A    between atoms: C_2  and  O_3 
REMARK    2  A    between atoms: O_3  and  C_4 
REMARK       I    between atoms: C_4  and  N_5 
REMARK       I    between atoms: N_8  and  C_9 
REMARK    3  A    between atoms: C_9  and  C_10 
REMARK    4  A    between atoms: C_11  and  N_12 
REMARK       I    between atoms: N_12  and  C_13 
REMARK    5  A    between atoms: C_13  and  C_14 
REMARK    6  A    between atoms: N_16  and  C_17 
REMARK    7  A    between atoms: C_18  and  O_19 
ROOT
HETATM    1  C   UNL     1      -6.454   4.562 -30.615  1.00  0.00     0.059 A 
HETATM    2  C   UNL     1      -5.553   5.231 -31.459  1.00  0.00     0.050 A 
HETATM    3  C   UNL     1      -5.877   6.529 -31.895  1.00  0.00     0.030 A 
HETATM    4  C   UNL     1      -7.053   7.160 -31.484  1.00  0.00     0.002 A 
HETATM    5  C   UNL     1      -7.947   6.490 -30.658  1.00  0.00     0.001 A 
HETATM    6  C   UNL     1      -7.660   5.191 -30.244  1.00  0.00     0.019 A 
ENDROOT
BRANCH   2   7
HETATM    7  N   UNL     1      -4.367   4.696 -32.003  1.00  0.00    -0.326 N 
HETATM    8  C   UNL     1      -4.053   4.513 -33.334  1.00  0.00     0.228 C 
HETATM    9  O   UNL     1      -4.878   4.425 -34.240  1.00  0.00    -0.273 OA
HETATM   10  H   UNL     1      -3.718   4.309 -31.327  1.00  0.00     0.169 HD
BRANCH   8  11
HETATM   11  C   UNL     1      -2.550   4.403 -33.626  1.00  0.00     0.105 C 
HETATM   12  C   UNL     1      -1.674   4.701 -32.422  1.00  0.00     0.147 C 
HETATM   13  N   UNL     1      -1.512   6.140 -32.476  1.00  0.00    -0.315 N 
HETATM   14  C   UNL     1      -1.709   6.621 -33.779  1.00  0.00     0.225 C 
HETATM   15  O   UNL     1      -1.563   7.762 -34.189  1.00  0.00    -0.273 OA
HETATM   16  C   UNL     1      -2.116   5.452 -34.645  1.00  0.00     0.119 C 
BRANCH  13  17
HETATM   17  C   UNL     1      -1.355   6.939 -31.313  1.00  0.00     0.071 A 
HETATM   18  C   UNL     1      -0.273   6.779 -30.430  1.00  0.00     0.095 A 
HETATM   19  C   UNL     1      -0.233   7.469 -29.213  1.00  0.00     0.039 A 
HETATM   20  C   UNL     1      -1.256   8.351 -28.873  1.00  0.00     0.009 A 
HETATM   21  C   UNL     1      -2.317   8.568 -29.755  1.00  0.00    -0.060 A 
HETATM   22  C   UNL     1      -3.459   9.464 -29.372  1.00  0.00     0.048 C 
HETATM   23  C   UNL     1      -2.353   7.866 -30.970  1.00  0.00     0.039 A 
BRANCH  18  24
HETATM   24  O   UNL     1       0.763   5.935 -30.752  1.00  0.00    -0.354 OA
HETATM   25  C   UNL     1       0.875   4.886 -29.786  1.00  0.00     0.210 C 
ENDBRANCH  18  24
ENDBRANCH  13  17
ENDBRANCH   8  11
ENDBRANCH   2   7
BRANCH   1  26
HETATM   26  C   UNL     1      -6.341   3.123 -30.278  1.00  0.00     0.256 C 
HETATM   27  N   UNL     1      -6.851   2.184 -31.165  1.00  0.00    -0.345 N 
HETATM   28  C   UNL     1      -7.723   2.452 -32.313  1.00  0.00     0.146 C 
HETATM   29  C   UNL     1      -6.646   0.760 -30.913  1.00  0.00     0.146 C 
HETATM   30  C   UNL     1      -7.133   1.821 -33.580  1.00  0.00     0.148 C 
HETATM   31  N   UNL     1      -6.774   0.412 -33.397  1.00  0.00    -0.325 N 
HETATM   32  C   UNL     1      -6.623  -0.358 -34.541  1.00  0.00     0.362 C 
HETATM   33  C   UNL     1      -6.067   0.065 -32.152  1.00  0.00     0.148 C 
HETATM   34  O   UNL     1      -6.921   0.030 -35.664  1.00  0.00    -0.238 OA
HETATM   35  O   UNL     1      -5.713   2.825 -29.262  1.00  0.00    -0.267 OA
BRANCH  32  36
HETATM   36  O   UNL     1      -6.109  -1.590 -34.276  1.00  0.00    -0.304 OA
BRANCH  36  37
HETATM   37  C   UNL     1      -6.977  -2.702 -34.532  1.00  0.00     0.176 C 
HETATM   38  C   UNL     1      -6.187  -3.899 -35.030  1.00  0.00     0.034 C 
ENDBRANCH  36  37
ENDBRANCH  32  36
ENDBRANCH   1  26
TORSDOF 7
ENDMDL
MODEL 8
REMARK VINA RESULT:      -8.6      3.456      6.692
REMARK  7 active torsions:
REMARK  status: ('A' for Active; 'I' for Inactive)
REMARK    1  A    between atoms: C_2  and  O_3 
REMARK    2  A    between atoms: O_3  and  C_4 
REMARK       I    between atoms: C_4  and  N_5 
REMARK       I    between atoms: N_8  and  C_9 
REMARK    3  A    between atoms: C_9  and  C_10 
REMARK    4  A    between atoms: C_11  and  N_12 
REMARK       I    between atoms: N_12  and  C_13 
REMARK    5  A    between atoms: C_13  and  C_14 
REMARK    6  A    between atoms: N_16  and  C_17 
REMARK    7  A    between atoms: C_18  and  O_19 
ROOT
HETATM    1  C   UNL     1      -6.588   0.374 -32.685  1.00  0.00     0.059 A 
HETATM    2  C   UNL     1      -7.396   0.646 -33.801  1.00  0.00     0.050 A 
HETATM    3  C   UNL     1      -7.346  -0.233 -34.898  1.00  0.00     0.030 A 
HETATM    4  C   UNL     1      -6.536  -1.371 -34.879  1.00  0.00     0.002 A 
HETATM    5  C   UNL     1      -5.731  -1.631 -33.777  1.00  0.00     0.001 A 
HETATM    6  C   UNL     1      -5.740  -0.752 -32.695  1.00  0.00     0.019 A 
ENDROOT
BRANCH   2   7
HETATM    7  N   UNL     1      -8.207   1.785 -33.984  1.00  0.00    -0.326 N 
HETATM    8  C   UNL     1      -9.373   2.110 -33.323  1.00  0.00     0.228 C 
HETATM    9  O   UNL     1     -10.098   1.301 -32.748  1.00  0.00    -0.273 OA
HETATM   10  H   UNL     1      -7.951   2.376 -34.767  1.00  0.00     0.169 HD
BRANCH   8  11
HETATM   11  C   UNL     1      -9.737   3.600 -33.363  1.00  0.00     0.105 C 
HETATM   12  C   UNL     1     -10.939   3.955 -32.504  1.00  0.00     0.147 C 
HETATM   13  N   UNL     1     -12.062   3.724 -33.390  1.00  0.00    -0.315 N 
HETATM   14  C   UNL     1     -11.669   3.806 -34.735  1.00  0.00     0.225 C 
HETATM   15  O   UNL     1     -12.375   3.750 -35.729  1.00  0.00    -0.273 OA
HETATM   16  C   UNL     1     -10.173   4.017 -34.764  1.00  0.00     0.119 C 
BRANCH  13  17
HETATM   17  C   UNL     1     -13.333   3.297 -32.924  1.00  0.00     0.071 A 
HETATM   18  C   UNL     1     -13.779   1.971 -33.058  1.00  0.00     0.095 A 
HETATM   19  C   UNL     1     -15.094   1.620 -32.735  1.00  0.00     0.039 A 
HETATM   20  C   UNL     1     -15.976   2.581 -32.246  1.00  0.00     0.009 A 
HETATM   21  C   UNL     1     -15.544   3.895 -32.053  1.00  0.00    -0.060 A 
HETATM   22  C   UNL     1     -16.503   4.954 -31.591  1.00  0.00     0.048 C 
HETATM   23  C   UNL     1     -14.225   4.240 -32.387  1.00  0.00     0.039 A 
BRANCH  18  24
HETATM   24  O   UNL     1     -12.923   0.997 -33.514  1.00  0.00    -0.354 OA
HETATM   25  C   UNL     1     -13.616  -0.242 -33.686  1.00  0.00     0.210 C 
ENDBRANCH  18  24
ENDBRANCH  13  17
ENDBRANCH   8  11
ENDBRANCH   2   7
BRANCH   1  26
HETATM   26  C   UNL     1      -6.379   1.336 -31.576  1.00  0.00     0.256 C 
HETATM   27  N   UNL     1      -5.146   1.964 -31.457  1.00  0.00    -0.345 N 
HETATM   28  C   UNL     1      -3.915   1.610 -32.169  1.00  0.00     0.146 C 
HETATM   29  C   UNL     1      -4.955   3.001 -30.447  1.00  0.00     0.146 C 
HETATM   30  C   UNL     1      -3.332   2.849 -32.859  1.00  0.00     0.148 C 
HETATM   31  N   UNL     1      -3.211   3.997 -31.956  1.00  0.00    -0.325 N 
HETATM   32  C   UNL     1      -2.346   5.013 -32.334  1.00  0.00     0.362 C 
HETATM   33  C   UNL     1      -4.359   4.269 -31.074  1.00  0.00     0.148 C 
HETATM   34  O   UNL     1      -1.576   4.931 -33.283  1.00  0.00    -0.238 OA
HETATM   35  O   UNL     1      -7.347   1.600 -30.863  1.00  0.00    -0.267 OA
BRANCH  32  36
HETATM   36  O   UNL     1      -2.447   6.108 -31.532  1.00  0.00    -0.304 OA
BRANCH  36  37
HETATM   37  C   UNL     1      -1.518   7.169 -31.796  1.00  0.00     0.176 C 
HETATM   38  C   UNL     1      -2.151   8.520 -31.516  1.00  0.00     0.034 C 
ENDBRANCH  36  37
ENDBRANCH  32  36
ENDBRANCH   1  26
TORSDOF 7
ENDMDL
MODEL 9
REMARK VINA RESULT:      -8.5      3.286      5.290
REMARK  7 active torsions:
REMARK  status: ('A' for Active; 'I' for Inactive)
REMARK    1  A    between atoms: C_2  and  O_3 
REMARK    2  A    between atoms: O_3  and  C_4 
REMARK       I    between atoms: C_4  and  N_5 
REMARK       I    between atoms: N_8  and  C_9 
REMARK    3  A    between atoms: C_9  and  C_10 
REMARK    4  A    between atoms: C_11  and  N_12 
REMARK       I    between atoms: N_12  and  C_13 
REMARK    5  A    between atoms: C_13  and  C_14 
REMARK    6  A    between atoms: N_16  and  C_17 
REMARK    7  A    between atoms: C_18  and  O_19 
ROOT
HETATM    1  C   UNL     1      -1.198   5.375 -32.143  1.00  0.00     0.059 A 
HETATM    2  C   UNL     1      -2.346   4.590 -32.336  1.00  0.00     0.050 A 
HETATM    3  C   UNL     1      -3.140   4.827 -33.473  1.00  0.00     0.030 A 
HETATM    4  C   UNL     1      -2.790   5.801 -34.412  1.00  0.00     0.002 A 
HETATM    5  C   UNL     1      -1.660   6.582 -34.211  1.00  0.00     0.001 A 
HETATM    6  C   UNL     1      -0.880   6.386 -33.073  1.00  0.00     0.019 A 
ENDROOT
BRANCH   2   7
HETATM    7  N   UNL     1      -2.854   3.623 -31.444  1.00  0.00    -0.326 N 
HETATM    8  C   UNL     1      -3.674   2.552 -31.732  1.00  0.00     0.228 C 
HETATM    9  O   UNL     1      -4.402   2.477 -32.718  1.00  0.00    -0.273 OA
HETATM   10  H   UNL     1      -2.672   3.803 -30.463  1.00  0.00     0.169 HD
BRANCH   8  11
HETATM   11  C   UNL     1      -3.636   1.421 -30.696  1.00  0.00     0.105 C 
HETATM   12  C   UNL     1      -3.247   0.074 -31.281  1.00  0.00     0.147 C 
HETATM   13  N   UNL     1      -4.512  -0.470 -31.733  1.00  0.00    -0.315 N 
HETATM   14  C   UNL     1      -5.586   0.103 -31.036  1.00  0.00     0.225 C 
HETATM   15  O   UNL     1      -6.769  -0.189 -31.106  1.00  0.00    -0.273 OA
HETATM   16  C   UNL     1      -5.025   1.164 -30.119  1.00  0.00     0.119 C 
BRANCH  13  17
HETATM   17  C   UNL     1      -4.619  -1.333 -32.856  1.00  0.00     0.071 A 
HETATM   18  C   UNL     1      -5.422  -1.026 -33.968  1.00  0.00     0.095 A 
HETATM   19  C   UNL     1      -5.632  -1.966 -34.982  1.00  0.00     0.039 A 
HETATM   20  C   UNL     1      -5.020  -3.216 -34.917  1.00  0.00     0.009 A 
HETATM   21  C   UNL     1      -4.175  -3.528 -33.850  1.00  0.00    -0.060 A 
HETATM   22  C   UNL     1      -3.563  -4.894 -33.734  1.00  0.00     0.048 C 
HETATM   23  C   UNL     1      -3.976  -2.581 -32.833  1.00  0.00     0.039 A 
BRANCH  18  24
HETATM   24  O   UNL     1      -6.018   0.208 -34.070  1.00  0.00    -0.354 OA
HETATM   25  C   UNL     1      -7.036   0.194 -35.076  1.00  0.00     0.210 C 
ENDBRANCH  18  24
ENDBRANCH  13  17
ENDBRANCH   8  11
ENDBRANCH   2   7
BRANCH   1  26
HETATM   26  C   UNL     1      -0.416   5.381 -30.883  1.00  0.00     0.256 C 
HETATM   27  N   UNL     1      -0.577   6.439 -29.999  1.00  0.00    -0.345 N 
HETATM   28  C   UNL     1      -1.265   7.705 -30.270  1.00  0.00     0.146 C 
HETATM   29  C   UNL     1       0.091   6.408 -28.701  1.00  0.00     0.146 C 
HETATM   30  C   UNL     1      -2.314   7.976 -29.185  1.00  0.00     0.148 C 
HETATM   31  N   UNL     1      -1.773   7.848 -27.828  1.00  0.00    -0.325 N 
HETATM   32  C   UNL     1      -2.485   8.450 -26.801  1.00  0.00     0.362 C 
HETATM   33  C   UNL     1      -0.906   6.686 -27.568  1.00  0.00     0.148 C 
HETATM   34  O   UNL     1      -3.437   9.200 -26.984  1.00  0.00    -0.238 OA
HETATM   35  O   UNL     1       0.276   4.392 -30.640  1.00  0.00    -0.267 OA
BRANCH  32  36
HETATM   36  O   UNL     1      -2.008   8.118 -25.571  1.00  0.00    -0.304 OA
BRANCH  36  37
HETATM   37  C   UNL     1      -1.337   9.162 -24.853  1.00  0.00     0.176 C 
HETATM   38  C   UNL     1      -2.017   9.422 -23.521  1.00  0.00     0.034 C 
ENDBRANCH  36  37
ENDBRANCH  32  36
ENDBRANCH   1  26
TORSDOF 7
ENDMDL
MODEL 10
REMARK VINA RESULT:      -8.3      2.143      8.713
REMARK  7 active torsions:
REMARK  status: ('A' for Active; 'I' for Inactive)
REMARK    1  A    between atoms: C_2  and  O_3 
REMARK    2  A    between atoms: O_3  and  C_4 
REMARK       I    between atoms: C_4  and  N_5 
REMARK       I    between atoms: N_8  and  C_9 
REMARK    3  A    between atoms: C_9  and  C_10 
REMARK    4  A    between atoms: C_11  and  N_12 
REMARK       I    between atoms: N_12  and  C_13 
REMARK    5  A    between atoms: C_13  and  C_14 
REMARK    6  A    between atoms: N_16  and  C_17 
REMARK    7  A    between atoms: C_18  and  O_19 
ROOT
HETATM    1  C   UNL     1      -5.906  -0.009 -33.883  1.00  0.00     0.059 A 
HETATM    2  C   UNL     1      -5.136   0.705 -32.951  1.00  0.00     0.050 A 
HETATM    3  C   UNL     1      -4.170   0.008 -32.203  1.00  0.00     0.030 A 
HETATM    4  C   UNL     1      -3.952  -1.359 -32.393  1.00  0.00     0.002 A 
HETATM    5  C   UNL     1      -4.723  -2.063 -33.309  1.00  0.00     0.001 A 
HETATM    6  C   UNL     1      -5.710  -1.397 -34.034  1.00  0.00     0.019 A 
ENDROOT
BRANCH   2   7
HETATM    7  N   UNL     1      -5.291   2.064 -32.609  1.00  0.00    -0.326 N 
HETATM    8  C   UNL     1      -4.358   3.075 -32.711  1.00  0.00     0.228 C 
HETATM    9  O   UNL     1      -3.142   2.901 -32.750  1.00  0.00    -0.273 OA
HETATM   10  H   UNL     1      -6.159   2.295 -32.139  1.00  0.00     0.169 HD
BRANCH   8  11
HETATM   11  C   UNL     1      -4.950   4.490 -32.756  1.00  0.00     0.105 C 
HETATM   12  C   UNL     1      -3.901   5.588 -32.721  1.00  0.00     0.147 C 
HETATM   13  N   UNL     1      -3.684   5.795 -31.303  1.00  0.00    -0.315 N 
HETATM   14  C   UNL     1      -4.795   5.378 -30.556  1.00  0.00     0.225 C 
HETATM   15  O   UNL     1      -4.978   5.490 -29.355  1.00  0.00    -0.273 OA
HETATM   16  C   UNL     1      -5.791   4.768 -31.515  1.00  0.00     0.119 C 
BRANCH  13  17
HETATM   17  C   UNL     1      -2.432   6.201 -30.770  1.00  0.00     0.071 A 
HETATM   18  C   UNL     1      -2.225   7.477 -30.220  1.00  0.00     0.095 A 
HETATM   19  C   UNL     1      -0.944   7.901 -29.851  1.00  0.00     0.039 A 
HETATM   20  C   UNL     1       0.146   7.045 -29.998  1.00  0.00     0.009 A 
HETATM   21  C   UNL     1      -0.038   5.753 -30.493  1.00  0.00    -0.060 A 
HETATM   22  C   UNL     1       1.136   4.846 -30.720  1.00  0.00     0.048 C 
HETATM   23  C   UNL     1      -1.327   5.340 -30.868  1.00  0.00     0.039 A 
BRANCH  18  24
HETATM   24  O   UNL     1      -3.286   8.332 -30.039  1.00  0.00    -0.354 OA
HETATM   25  C   UNL     1      -3.455   8.640 -28.653  1.00  0.00     0.210 C 
ENDBRANCH  18  24
ENDBRANCH  13  17
ENDBRANCH   8  11
ENDBRANCH   2   7
BRANCH   1  26
HETATM   26  C   UNL     1      -7.099   0.556 -34.559  1.00  0.00     0.256 C 
HETATM   27  N   UNL     1      -8.209   0.888 -33.792  1.00  0.00    -0.345 N 
HETATM   28  C   UNL     1      -8.444   0.521 -32.393  1.00  0.00     0.146 C 
HETATM   29  C   UNL     1      -9.348   1.555 -34.417  1.00  0.00     0.146 C 
HETATM   30  C   UNL     1      -8.777   1.771 -31.570  1.00  0.00     0.148 C 
HETATM   31  N   UNL     1      -9.834   2.585 -32.178  1.00  0.00    -0.325 N 
HETATM   32  C   UNL     1     -10.492   3.487 -31.355  1.00  0.00     0.362 C 
HETATM   33  C   UNL     1      -9.742   2.812 -33.630  1.00  0.00     0.148 C 
HETATM   34  O   UNL     1     -10.348   3.527 -30.139  1.00  0.00    -0.238 OA
HETATM   35  O   UNL     1      -7.013   0.789 -35.764  1.00  0.00    -0.267 OA
BRANCH  32  36
HETATM   36  O   UNL     1     -11.316   4.319 -32.049  1.00  0.00    -0.304 OA
BRANCH  36  37
HETATM   37  C   UNL     1     -12.693   4.316 -31.651  1.00  0.00     0.176 C 
HETATM   38  C   UNL     1     -13.460   3.222 -32.372  1.00  0.00     0.034 C 
ENDBRANCH  36  37
ENDBRANCH  32  36
ENDBRANCH   1  26
TORSDOF 7
ENDMDL
