MODEL 1
REMARK VINA RESULT:     -10.4      0.000      0.000
REMARK  2 active torsions:
REMARK  status: ('A' for Active; 'I' for Inactive)
REMARK    1  A    between atoms: C_7  and  C_8 
REMARK       I    between atoms: C_8  and  N_9 
REMARK    2  A    between atoms: N_9  and  N_10 
ROOT
HETATM    1  C   UNL     1      -7.357   3.512 -33.868  1.00  0.00     0.292 C 
HETATM    2  N   UNL     1      -8.710   3.232 -33.749  1.00  0.00    -0.241 N 
HETATM    3  O   UNL     1      -6.868   4.582 -34.216  1.00  0.00    -0.264 OA
HETATM    4  H   UNL     1      -8.935   2.260 -33.567  1.00  0.00     0.192 HD
ENDROOT
BRANCH   1   5
HETATM    5  C   UNL     1      -6.534   2.341 -33.509  1.00  0.00     0.154 A 
HETATM    6  C   UNL     1      -6.553   1.052 -34.096  1.00  0.00     0.007 A 
HETATM    7  C   UNL     1      -5.585   0.326 -33.438  1.00  0.00     0.069 A 
HETATM    8  C   UNL     1      -7.344   0.462 -35.210  1.00  0.00     0.048 C 
HETATM    9  C   UNL     1      -5.259  -1.060 -33.726  1.00  0.00    -0.001 A 
HETATM   10  N   UNL     1      -5.061   1.166 -32.505  1.00  0.00    -0.276 N 
HETATM   11  C   UNL     1      -6.149  -1.751 -34.585  1.00  0.00    -0.045 A 
HETATM   12  C   UNL     1      -4.126  -1.705 -33.226  1.00  0.00     0.014 A 
HETATM   13  C   UNL     1      -5.894  -3.090 -34.906  1.00  0.00     0.008 A 
HETATM   14  C   UNL     1      -7.427  -1.078 -35.075  1.00  0.00     0.044 C 
HETATM   15  C   UNL     1      -4.759  -3.725 -34.402  1.00  0.00     0.001 A 
HETATM   16  C   UNL     1      -3.878  -3.036 -33.567  1.00  0.00     0.001 A 
HETATM   17  N   UNL     1      -5.612   2.398 -32.515  1.00  0.00    -0.168 NA
HETATM   18  H   UNL     1      -4.335   0.965 -31.827  1.00  0.00     0.189 HD
ENDBRANCH   1   5
BRANCH   2  19
HETATM   19  N   UNL     1      -9.657   4.113 -34.161  1.00  0.00    -0.165 NA
HETATM   20  C   UNL     1     -10.867   3.698 -34.368  1.00  0.00     0.157 A 
HETATM   21  C   UNL     1     -11.926   4.643 -34.978  1.00  0.00     0.277 A 
HETATM   22  C   UNL     1     -11.557   2.415 -34.157  1.00  0.00     0.027 A 
HETATM   23  O   UNL     1     -11.778   5.809 -35.269  1.00  0.00    -0.266 OA
HETATM   24  N   UNL     1     -13.056   3.876 -35.131  1.00  0.00    -0.321 N 
HETATM   25  C   UNL     1     -12.854   2.589 -34.652  1.00  0.00     0.048 A 
HETATM   26  H   UNL     1     -13.915   4.246 -35.510  1.00  0.00     0.169 HD
HETATM   27  C   UNL     1     -13.797   1.580 -34.620  1.00  0.00     0.030 A 
HETATM   28  C   UNL     1     -13.418   0.362 -34.056  1.00  0.00     0.002 A 
HETATM   29  C   UNL     1     -12.127   0.185 -33.529  1.00  0.00     0.001 A 
HETATM   30  C   UNL     1     -11.184   1.221 -33.566  1.00  0.00     0.016 A 
ENDBRANCH   2  19
TORSDOF 2
ENDMDL
MODEL 2
REMARK VINA RESULT:     -10.4      2.039      7.550
REMARK  2 active torsions:
REMARK  status: ('A' for Active; 'I' for Inactive)
REMARK    1  A    between atoms: C_7  and  C_8 
REMARK       I    between atoms: C_8  and  N_9 
REMARK    2  A    between atoms: N_9  and  N_10 
ROOT
HETATM    1  C   UNL     1      -6.642   2.599 -32.293  1.00  0.00     0.292 C 
HETATM    2  N   UNL     1      -5.867   1.560 -32.788  1.00  0.00    -0.241 N 
HETATM    3  O   UNL     1      -6.324   3.374 -31.397  1.00  0.00    -0.264 OA
HETATM    4  H   UNL     1      -6.336   0.946 -33.444  1.00  0.00     0.192 HD
ENDROOT
BRANCH   1   5
HETATM    5  C   UNL     1      -7.938   2.680 -32.993  1.00  0.00     0.154 A 
HETATM    6  C   UNL     1      -9.033   1.786 -32.903  1.00  0.00     0.007 A 
HETATM    7  C   UNL     1     -10.013   2.310 -33.716  1.00  0.00     0.069 A 
HETATM    8  C   UNL     1      -9.256   0.541 -32.119  1.00  0.00     0.048 C 
HETATM    9  C   UNL     1     -11.321   1.711 -33.919  1.00  0.00    -0.001 A 
HETATM   10  N   UNL     1      -9.481   3.438 -34.259  1.00  0.00    -0.276 N 
HETATM   11  C   UNL     1     -11.497   0.399 -33.414  1.00  0.00    -0.045 A 
HETATM   12  C   UNL     1     -12.381   2.368 -34.545  1.00  0.00     0.014 A 
HETATM   13  C   UNL     1     -12.734  -0.238 -33.573  1.00  0.00     0.008 A 
HETATM   14  C   UNL     1     -10.324  -0.354 -32.795  1.00  0.00     0.044 C 
HETATM   15  C   UNL     1     -13.788   0.428 -34.200  1.00  0.00     0.001 A 
HETATM   16  C   UNL     1     -13.613   1.725 -34.683  1.00  0.00     0.001 A 
HETATM   17  N   UNL     1      -8.222   3.697 -33.846  1.00  0.00    -0.168 NA
HETATM   18  H   UNL     1      -9.914   4.074 -34.920  1.00  0.00     0.189 HD
ENDBRANCH   1   5
BRANCH   2  19
HETATM   19  N   UNL     1      -4.694   1.206 -32.202  1.00  0.00    -0.165 NA
HETATM   20  C   UNL     1      -4.239   0.004 -32.361  1.00  0.00     0.157 A 
HETATM   21  C   UNL     1      -2.989  -0.469 -31.587  1.00  0.00     0.277 A 
HETATM   22  C   UNL     1      -4.663  -1.151 -33.170  1.00  0.00     0.027 A 
HETATM   23  O   UNL     1      -2.308   0.189 -30.833  1.00  0.00    -0.266 OA
HETATM   24  N   UNL     1      -2.828  -1.792 -31.924  1.00  0.00    -0.321 N 
HETATM   25  C   UNL     1      -3.788  -2.192 -32.844  1.00  0.00     0.048 A 
HETATM   26  H   UNL     1      -2.076  -2.357 -31.560  1.00  0.00     0.169 HD
HETATM   27  C   UNL     1      -3.886  -3.445 -33.419  1.00  0.00     0.030 A 
HETATM   28  C   UNL     1      -4.895  -3.644 -34.362  1.00  0.00     0.002 A 
HETATM   29  C   UNL     1      -5.762  -2.596 -34.718  1.00  0.00     0.001 A 
HETATM   30  C   UNL     1      -5.646  -1.331 -34.128  1.00  0.00     0.016 A 
ENDBRANCH   2  19
TORSDOF 2
ENDMDL
MODEL 3
REMARK VINA RESULT:     -10.1      4.275      6.749
REMARK  2 active torsions:
REMARK  status: ('A' for Active; 'I' for Inactive)
REMARK    1  A    between atoms: C_7  and  C_8 
REMARK       I    between atoms: C_8  and  N_9 
REMARK    2  A    between atoms: N_9  and  N_10 
ROOT
HETATM    1  C   UNL     1      -5.259   2.535 -32.569  1.00  0.00     0.292 C 
HETATM    2  N   UNL     1      -4.555   3.166 -31.555  1.00  0.00    -0.241 N 
HETATM    3  O   UNL     1      -6.111   3.050 -33.285  1.00  0.00    -0.264 OA
HETATM    4  H   UNL     1      -3.977   2.556 -30.986  1.00  0.00     0.192 HD
ENDROOT
BRANCH   1   5
HETATM    5  C   UNL     1      -4.851   1.123 -32.706  1.00  0.00     0.154 A 
HETATM    6  C   UNL     1      -5.520   0.088 -33.404  1.00  0.00     0.007 A 
HETATM    7  C   UNL     1      -4.730  -1.031 -33.264  1.00  0.00     0.069 A 
HETATM    8  C   UNL     1      -6.778   0.057 -34.200  1.00  0.00     0.048 C 
HETATM    9  C   UNL     1      -5.038  -2.332 -33.831  1.00  0.00    -0.001 A 
HETATM   10  N   UNL     1      -3.673  -0.645 -32.499  1.00  0.00    -0.276 N 
HETATM   11  C   UNL     1      -6.339  -2.492 -34.370  1.00  0.00    -0.045 A 
HETATM   12  C   UNL     1      -4.123  -3.385 -33.889  1.00  0.00     0.014 A 
HETATM   13  C   UNL     1      -6.703  -3.721 -34.935  1.00  0.00     0.008 A 
HETATM   14  C   UNL     1      -7.368  -1.373 -34.245  1.00  0.00     0.044 C 
HETATM   15  C   UNL     1      -5.781  -4.766 -34.988  1.00  0.00     0.001 A 
HETATM   16  C   UNL     1      -4.496  -4.599 -34.469  1.00  0.00     0.001 A 
HETATM   17  N   UNL     1      -3.710   0.655 -32.138  1.00  0.00    -0.168 NA
HETATM   18  H   UNL     1      -2.897  -1.214 -32.180  1.00  0.00     0.189 HD
ENDBRANCH   1   5
BRANCH   2  19
HETATM   19  N   UNL     1      -4.861   4.426 -31.154  1.00  0.00    -0.165 NA
HETATM   20  C   UNL     1      -4.167   5.424 -31.601  1.00  0.00     0.157 A 
HETATM   21  C   UNL     1      -4.396   6.848 -31.048  1.00  0.00     0.277 A 
HETATM   22  C   UNL     1      -3.093   5.556 -32.599  1.00  0.00     0.027 A 
HETATM   23  O   UNL     1      -5.221   7.186 -30.229  1.00  0.00    -0.266 OA
HETATM   24  N   UNL     1      -3.459   7.638 -31.671  1.00  0.00    -0.321 N 
HETATM   25  C   UNL     1      -2.706   6.900 -32.574  1.00  0.00     0.048 A 
HETATM   26  H   UNL     1      -3.382   8.629 -31.497  1.00  0.00     0.169 HD
HETATM   27  C   UNL     1      -1.709   7.396 -33.392  1.00  0.00     0.030 A 
HETATM   28  C   UNL     1      -1.094   6.505 -34.271  1.00  0.00     0.002 A 
HETATM   29  C   UNL     1      -1.494   5.158 -34.326  1.00  0.00     0.001 A 
HETATM   30  C   UNL     1      -2.510   4.673 -33.492  1.00  0.00     0.016 A 
ENDBRANCH   2  19
TORSDOF 2
ENDMDL
MODEL 4
REMARK VINA RESULT:     -10.0      1.418      1.746
REMARK  2 active torsions:
REMARK  status: ('A' for Active; 'I' for Inactive)
REMARK    1  A    between atoms: C_7  and  C_8 
REMARK       I    between atoms: C_8  and  N_9 
REMARK    2  A    between atoms: N_9  and  N_10 
ROOT
HETATM    1  C   UNL     1      -6.204   2.460 -33.326  1.00  0.00     0.292 C 
HETATM    2  N   UNL     1      -7.266   2.590 -32.443  1.00  0.00    -0.241 N 
HETATM    3  O   UNL     1      -5.817   3.311 -34.121  1.00  0.00    -0.264 OA
HETATM    4  H   UNL     1      -7.520   1.743 -31.947  1.00  0.00     0.192 HD
ENDROOT
BRANCH   1   5
HETATM    5  C   UNL     1      -5.559   1.139 -33.197  1.00  0.00     0.154 A 
HETATM    6  C   UNL     1      -5.929  -0.075 -33.828  1.00  0.00     0.007 A 
HETATM    7  C   UNL     1      -5.005  -1.009 -33.415  1.00  0.00     0.069 A 
HETATM    8  C   UNL     1      -7.015  -0.425 -34.783  1.00  0.00     0.048 C 
HETATM    9  C   UNL     1      -5.002  -2.402 -33.827  1.00  0.00    -0.001 A 
HETATM   10  N   UNL     1      -4.165  -0.352 -32.570  1.00  0.00    -0.276 N 
HETATM   11  C   UNL     1      -6.153  -2.855 -34.518  1.00  0.00    -0.045 A 
HETATM   12  C   UNL     1      -3.934  -3.271 -33.599  1.00  0.00     0.014 A 
HETATM   13  C   UNL     1      -6.216  -4.188 -34.946  1.00  0.00     0.008 A 
HETATM   14  C   UNL     1      -7.354  -1.935 -34.705  1.00  0.00     0.044 C 
HETATM   15  C   UNL     1      -5.143  -5.048 -34.714  1.00  0.00     0.001 A 
HETATM   16  C   UNL     1      -4.006  -4.592 -34.045  1.00  0.00     0.001 A 
HETATM   17  N   UNL     1      -4.469   0.954 -32.411  1.00  0.00    -0.168 NA
HETATM   18  H   UNL     1      -3.371  -0.729 -32.064  1.00  0.00     0.189 HD
ENDBRANCH   1   5
BRANCH   2  19
HETATM   19  N   UNL     1      -8.095   3.664 -32.481  1.00  0.00    -0.165 NA
HETATM   20  C   UNL     1      -9.342   3.498 -32.788  1.00  0.00     0.157 A 
HETATM   21  C   UNL     1     -10.270   4.716 -32.983  1.00  0.00     0.277 A 
HETATM   22  C   UNL     1     -10.184   2.316 -33.035  1.00  0.00     0.027 A 
HETATM   23  O   UNL     1      -9.980   5.883 -32.838  1.00  0.00    -0.266 OA
HETATM   24  N   UNL     1     -11.482   4.195 -33.371  1.00  0.00    -0.321 N 
HETATM   25  C   UNL     1     -11.443   2.808 -33.397  1.00  0.00     0.048 A 
HETATM   26  H   UNL     1     -12.284   4.775 -33.565  1.00  0.00     0.169 HD
HETATM   27  C   UNL     1     -12.501   1.974 -33.704  1.00  0.00     0.030 A 
HETATM   28  C   UNL     1     -12.279   0.599 -33.631  1.00  0.00     0.002 A 
HETATM   29  C   UNL     1     -11.027   0.093 -33.241  1.00  0.00     0.001 A 
HETATM   30  C   UNL     1      -9.966   0.953 -32.929  1.00  0.00     0.016 A 
ENDBRANCH   2  19
TORSDOF 2
ENDMDL
MODEL 5
REMARK VINA RESULT:      -9.8      4.373      7.184
REMARK  2 active torsions:
REMARK  status: ('A' for Active; 'I' for Inactive)
REMARK    1  A    between atoms: C_7  and  C_8 
REMARK       I    between atoms: C_8  and  N_9 
REMARK    2  A    between atoms: N_9  and  N_10 
ROOT
HETATM    1  C   UNL     1      -6.023   2.794 -30.941  1.00  0.00     0.292 C 
HETATM    2  N   UNL     1      -5.252   3.778 -31.542  1.00  0.00    -0.241 N 
HETATM    3  O   UNL     1      -6.400   2.785 -29.773  1.00  0.00    -0.264 OA
HETATM    4  H   UNL     1      -4.933   3.562 -32.480  1.00  0.00     0.192 HD
ENDROOT
BRANCH   1   5
HETATM    5  C   UNL     1      -6.362   1.721 -31.895  1.00  0.00     0.154 A 
HETATM    6  C   UNL     1      -5.624   0.545 -32.180  1.00  0.00     0.007 A 
HETATM    7  C   UNL     1      -6.367  -0.147 -33.110  1.00  0.00     0.069 A 
HETATM    8  C   UNL     1      -4.342   0.006 -31.651  1.00  0.00     0.048 C 
HETATM    9  C   UNL     1      -5.983  -1.425 -33.684  1.00  0.00    -0.001 A 
HETATM   10  N   UNL     1      -7.465   0.619 -33.354  1.00  0.00    -0.276 N 
HETATM   11  C   UNL     1      -4.660  -1.859 -33.422  1.00  0.00    -0.045 A 
HETATM   12  C   UNL     1      -6.847  -2.225 -34.433  1.00  0.00     0.014 A 
HETATM   13  C   UNL     1      -4.223  -3.083 -33.944  1.00  0.00     0.008 A 
HETATM   14  C   UNL     1      -3.686  -0.959 -32.669  1.00  0.00     0.044 C 
HETATM   15  C   UNL     1      -5.094  -3.876 -34.690  1.00  0.00     0.001 A 
HETATM   16  C   UNL     1      -6.401  -3.451 -34.933  1.00  0.00     0.001 A 
HETATM   17  N   UNL     1      -7.498   1.763 -32.637  1.00  0.00    -0.168 NA
HETATM   18  H   UNL     1      -8.224   0.430 -33.998  1.00  0.00     0.189 HD
ENDBRANCH   1   5
BRANCH   2  19
HETATM   19  N   UNL     1      -4.704   4.791 -30.823  1.00  0.00    -0.165 NA
HETATM   20  C   UNL     1      -3.682   5.430 -31.298  1.00  0.00     0.157 A 
HETATM   21  C   UNL     1      -2.949   6.483 -30.439  1.00  0.00     0.277 A 
HETATM   22  C   UNL     1      -2.959   5.393 -32.580  1.00  0.00     0.027 A 
HETATM   23  O   UNL     1      -3.247   6.847 -29.323  1.00  0.00    -0.266 OA
HETATM   24  N   UNL     1      -1.886   6.904 -31.203  1.00  0.00    -0.321 N 
HETATM   25  C   UNL     1      -1.889   6.284 -32.444  1.00  0.00     0.048 A 
HETATM   26  H   UNL     1      -1.232   7.602 -30.884  1.00  0.00     0.169 HD
HETATM   27  C   UNL     1      -0.985   6.510 -33.464  1.00  0.00     0.030 A 
HETATM   28  C   UNL     1      -1.179   5.822 -34.662  1.00  0.00     0.002 A 
HETATM   29  C   UNL     1      -2.267   4.947 -34.819  1.00  0.00     0.001 A 
HETATM   30  C   UNL     1      -3.177   4.732 -33.775  1.00  0.00     0.016 A 
ENDBRANCH   2  19
TORSDOF 2
ENDMDL
MODEL 6
REMARK VINA RESULT:      -9.8      3.538      6.341
REMARK  2 active torsions:
REMARK  status: ('A' for Active; 'I' for Inactive)
REMARK    1  A    between atoms: C_7  and  C_8 
REMARK       I    between atoms: C_8  and  N_9 
REMARK    2  A    between atoms: N_9  and  N_10 
ROOT
HETATM    1  C   UNL     1      -6.996   2.576 -33.107  1.00  0.00     0.292 C 
HETATM    2  N   UNL     1      -6.547   2.509 -31.796  1.00  0.00    -0.241 N 
HETATM    3  O   UNL     1      -7.295   3.598 -33.716  1.00  0.00    -0.264 OA
HETATM    4  H   UNL     1      -6.464   1.572 -31.417  1.00  0.00     0.192 HD
ENDROOT
BRANCH   1   5
HETATM    5  C   UNL     1      -7.072   1.235 -33.717  1.00  0.00     0.154 A 
HETATM    6  C   UNL     1      -6.174   0.152 -33.552  1.00  0.00     0.007 A 
HETATM    7  C   UNL     1      -6.693  -0.883 -34.296  1.00  0.00     0.069 A 
HETATM    8  C   UNL     1      -4.927  -0.012 -32.755  1.00  0.00     0.048 C 
HETATM    9  C   UNL     1      -6.089  -2.199 -34.409  1.00  0.00    -0.001 A 
HETATM   10  N   UNL     1      -7.824  -0.395 -34.873  1.00  0.00    -0.276 N 
HETATM   11  C   UNL     1      -4.776  -2.335 -33.894  1.00  0.00    -0.045 A 
HETATM   12  C   UNL     1      -6.742  -3.303 -34.962  1.00  0.00     0.014 A 
HETATM   13  C   UNL     1      -4.134  -3.577 -33.969  1.00  0.00     0.008 A 
HETATM   14  C   UNL     1      -4.028  -1.119 -33.357  1.00  0.00     0.044 C 
HETATM   15  C   UNL     1      -4.795  -4.674 -34.522  1.00  0.00     0.001 A 
HETATM   16  C   UNL     1      -6.093  -4.539 -35.015  1.00  0.00     0.001 A 
HETATM   17  N   UNL     1      -8.088   0.889 -34.547  1.00  0.00    -0.168 NA
HETATM   18  H   UNL     1      -8.458  -0.875 -35.502  1.00  0.00     0.189 HD
ENDBRANCH   1   5
BRANCH   2  19
HETATM   19  N   UNL     1      -6.532   3.602 -30.992  1.00  0.00    -0.165 NA
HETATM   20  C   UNL     1      -5.462   4.329 -30.922  1.00  0.00     0.157 A 
HETATM   21  C   UNL     1      -5.367   5.488 -29.906  1.00  0.00     0.277 A 
HETATM   22  C   UNL     1      -4.173   4.320 -31.634  1.00  0.00     0.027 A 
HETATM   23  O   UNL     1      -6.231   5.860 -29.145  1.00  0.00    -0.266 OA
HETATM   24  N   UNL     1      -4.095   5.991 -30.042  1.00  0.00    -0.321 N 
HETATM   25  C   UNL     1      -3.400   5.326 -31.044  1.00  0.00     0.048 A 
HETATM   26  H   UNL     1      -3.757   6.768 -29.495  1.00  0.00     0.169 HD
HETATM   27  C   UNL     1      -2.115   5.609 -31.462  1.00  0.00     0.030 A 
HETATM   28  C   UNL     1      -1.601   4.858 -32.519  1.00  0.00     0.002 A 
HETATM   29  C   UNL     1      -2.379   3.864 -33.139  1.00  0.00     0.001 A 
HETATM   30  C   UNL     1      -3.683   3.593 -32.704  1.00  0.00     0.016 A 
ENDBRANCH   2  19
TORSDOF 2
ENDMDL
MODEL 7
REMARK VINA RESULT:      -9.7      2.633      3.800
REMARK  2 active torsions:
REMARK  status: ('A' for Active; 'I' for Inactive)
REMARK    1  A    between atoms: C_7  and  C_8 
REMARK       I    between atoms: C_8  and  N_9 
REMARK    2  A    between atoms: N_9  and  N_10 
ROOT
HETATM    1  C   UNL     1      -3.741   2.242 -32.225  1.00  0.00     0.292 C 
HETATM    2  N   UNL     1      -5.048   2.678 -32.063  1.00  0.00    -0.241 N 
HETATM    3  O   UNL     1      -2.743   2.953 -32.264  1.00  0.00    -0.264 OA
HETATM    4  H   UNL     1      -5.758   1.963 -32.176  1.00  0.00     0.192 HD
ENDROOT
BRANCH   1   5
HETATM    5  C   UNL     1      -3.678   0.773 -32.344  1.00  0.00     0.154 A 
HETATM    6  C   UNL     1      -4.489  -0.072 -33.140  1.00  0.00     0.007 A 
HETATM    7  C   UNL     1      -4.020  -1.349 -32.931  1.00  0.00     0.069 A 
HETATM    8  C   UNL     1      -5.610   0.201 -34.081  1.00  0.00     0.048 C 
HETATM    9  C   UNL     1      -4.565  -2.540 -33.560  1.00  0.00    -0.001 A 
HETATM   10  N   UNL     1      -3.002  -1.229 -32.037  1.00  0.00    -0.276 N 
HETATM   11  C   UNL     1      -5.790  -2.379 -34.255  1.00  0.00    -0.045 A 
HETATM   12  C   UNL     1      -3.935  -3.785 -33.531  1.00  0.00     0.014 A 
HETATM   13  C   UNL     1      -6.371  -3.486 -34.886  1.00  0.00     0.008 A 
HETATM   14  C   UNL     1      -6.522  -1.042 -34.229  1.00  0.00     0.044 C 
HETATM   15  C   UNL     1      -5.733  -4.726 -34.852  1.00  0.00     0.001 A 
HETATM   16  C   UNL     1      -4.520  -4.875 -34.179  1.00  0.00     0.001 A 
HETATM   17  N   UNL     1      -2.764   0.044 -31.654  1.00  0.00    -0.168 NA
HETATM   18  H   UNL     1      -2.433  -1.968 -31.639  1.00  0.00     0.189 HD
ENDBRANCH   1   5
BRANCH   2  19
HETATM   19  N   UNL     1      -5.364   3.998 -32.074  1.00  0.00    -0.165 NA
HETATM   20  C   UNL     1      -6.466   4.385 -32.635  1.00  0.00     0.157 A 
HETATM   21  C   UNL     1      -6.777   5.890 -32.793  1.00  0.00     0.277 A 
HETATM   22  C   UNL     1      -7.611   3.680 -33.232  1.00  0.00     0.027 A 
HETATM   23  O   UNL     1      -6.105   6.817 -32.401  1.00  0.00    -0.266 OA
HETATM   24  N   UNL     1      -7.964   5.947 -33.485  1.00  0.00    -0.321 N 
HETATM   25  C   UNL     1      -8.457   4.674 -33.736  1.00  0.00     0.048 A 
HETATM   26  H   UNL     1      -8.409   6.820 -33.727  1.00  0.00     0.169 HD
HETATM   27  C   UNL     1      -9.646   4.378 -34.374  1.00  0.00     0.030 A 
HETATM   28  C   UNL     1      -9.995   3.032 -34.493  1.00  0.00     0.002 A 
HETATM   29  C   UNL     1      -9.167   2.026 -33.965  1.00  0.00     0.001 A 
HETATM   30  C   UNL     1      -7.966   2.345 -33.318  1.00  0.00     0.016 A 
ENDBRANCH   2  19
TORSDOF 2
ENDMDL
MODEL 8
REMARK VINA RESULT:      -9.7      3.303      4.336
REMARK  2 active torsions:
REMARK  status: ('A' for Active; 'I' for Inactive)
REMARK    1  A    between atoms: C_7  and  C_8 
REMARK       I    between atoms: C_8  and  N_9 
REMARK    2  A    between atoms: N_9  and  N_10 
ROOT
HETATM    1  C   UNL     1      -3.932   1.963 -31.745  1.00  0.00     0.292 C 
HETATM    2  N   UNL     1      -4.753   2.235 -30.661  1.00  0.00    -0.241 N 
HETATM    3  O   UNL     1      -3.353   2.792 -32.438  1.00  0.00    -0.264 OA
HETATM    4  H   UNL     1      -5.245   1.434 -30.280  1.00  0.00     0.192 HD
ENDROOT
BRANCH   1   5
HETATM    5  C   UNL     1      -3.819   0.510 -31.979  1.00  0.00     0.154 A 
HETATM    6  C   UNL     1      -4.581  -0.290 -32.865  1.00  0.00     0.007 A 
HETATM    7  C   UNL     1      -4.078  -1.566 -32.746  1.00  0.00     0.069 A 
HETATM    8  C   UNL     1      -5.683   0.026 -33.815  1.00  0.00     0.048 C 
HETATM    9  C   UNL     1      -4.568  -2.716 -33.485  1.00  0.00    -0.001 A 
HETATM   10  N   UNL     1      -3.089  -1.489 -31.814  1.00  0.00    -0.276 N 
HETATM   11  C   UNL     1      -5.777  -2.536 -34.201  1.00  0.00    -0.045 A 
HETATM   12  C   UNL     1      -3.900  -3.941 -33.537  1.00  0.00     0.014 A 
HETATM   13  C   UNL     1      -6.306  -3.603 -34.937  1.00  0.00     0.008 A 
HETATM   14  C   UNL     1      -6.551  -1.226 -34.090  1.00  0.00     0.044 C 
HETATM   15  C   UNL     1      -5.631  -4.823 -34.983  1.00  0.00     0.001 A 
HETATM   16  C   UNL     1      -4.432  -4.991 -34.288  1.00  0.00     0.001 A 
HETATM   17  N   UNL     1      -2.902  -0.246 -31.323  1.00  0.00    -0.168 NA
HETATM   18  H   UNL     1      -2.508  -2.241 -31.461  1.00  0.00     0.189 HD
ENDBRANCH   1   5
BRANCH   2  19
HETATM   19  N   UNL     1      -5.117   3.505 -30.345  1.00  0.00    -0.165 NA
HETATM   20  C   UNL     1      -6.313   3.915 -30.628  1.00  0.00     0.157 A 
HETATM   21  C   UNL     1      -6.704   5.394 -30.416  1.00  0.00     0.277 A 
HETATM   22  C   UNL     1      -7.516   3.261 -31.167  1.00  0.00     0.027 A 
HETATM   23  O   UNL     1      -6.010   6.271 -29.952  1.00  0.00    -0.266 OA
HETATM   24  N   UNL     1      -7.994   5.501 -30.880  1.00  0.00    -0.321 N 
HETATM   25  C   UNL     1      -8.473   4.271 -31.309  1.00  0.00     0.048 A 
HETATM   26  H   UNL     1      -8.507   6.369 -30.859  1.00  0.00     0.169 HD
HETATM   27  C   UNL     1      -9.743   4.022 -31.794  1.00  0.00     0.030 A 
HETATM   28  C   UNL     1     -10.055   2.706 -32.134  1.00  0.00     0.002 A 
HETATM   29  C   UNL     1      -9.111   1.677 -31.968  1.00  0.00     0.001 A 
HETATM   30  C   UNL     1      -7.830   1.948 -31.471  1.00  0.00     0.016 A 
ENDBRANCH   2  19
TORSDOF 2
ENDMDL
MODEL 9
REMARK VINA RESULT:      -9.7      1.597      2.262
REMARK  2 active torsions:
REMARK  status: ('A' for Active; 'I' for Inactive)
REMARK    1  A    between atoms: C_7  and  C_8 
REMARK       I    between atoms: C_8  and  N_9 
REMARK    2  A    between atoms: N_9  and  N_10 
ROOT
HETATM    1  C   UNL     1      -7.669   2.040 -33.916  1.00  0.00     0.292 C 
HETATM    2  N   UNL     1      -8.962   1.924 -33.427  1.00  0.00    -0.241 N 
HETATM    3  O   UNL     1      -7.037   3.083 -34.045  1.00  0.00    -0.264 OA
HETATM    4  H   UNL     1      -9.372   1.000 -33.504  1.00  0.00     0.192 HD
ENDROOT
BRANCH   1   5
HETATM    5  C   UNL     1      -7.111   0.721 -34.270  1.00  0.00     0.154 A 
HETATM    6  C   UNL     1      -6.168  -0.049 -33.544  1.00  0.00     0.007 A 
HETATM    7  C   UNL     1      -5.995  -1.208 -34.267  1.00  0.00     0.069 A 
HETATM    8  C   UNL     1      -5.462   0.177 -32.254  1.00  0.00     0.048 C 
HETATM    9  C   UNL     1      -5.109  -2.292 -33.881  1.00  0.00    -0.001 A 
HETATM   10  N   UNL     1      -6.789  -1.084 -35.364  1.00  0.00    -0.276 N 
HETATM   11  C   UNL     1      -4.218  -2.027 -32.812  1.00  0.00    -0.045 A 
HETATM   12  C   UNL     1      -5.122  -3.551 -34.485  1.00  0.00     0.014 A 
HETATM   13  C   UNL     1      -3.336  -3.029 -32.387  1.00  0.00     0.008 A 
HETATM   14  C   UNL     1      -4.144  -0.633 -32.197  1.00  0.00     0.044 C 
HETATM   15  C   UNL     1      -3.358  -4.283 -32.997  1.00  0.00     0.001 A 
HETATM   16  C   UNL     1      -4.248  -4.545 -34.040  1.00  0.00     0.001 A 
HETATM   17  N   UNL     1      -7.483   0.074 -35.404  1.00  0.00    -0.168 NA
HETATM   18  H   UNL     1      -6.903  -1.743 -36.126  1.00  0.00     0.189 HD
ENDBRANCH   1   5
BRANCH   2  19
HETATM   19  N   UNL     1      -9.726   3.017 -33.171  1.00  0.00    -0.165 NA
HETATM   20  C   UNL     1     -11.016   2.923 -33.233  1.00  0.00     0.157 A 
HETATM   21  C   UNL     1     -11.902   4.180 -33.093  1.00  0.00     0.277 A 
HETATM   22  C   UNL     1     -11.950   1.803 -33.437  1.00  0.00     0.027 A 
HETATM   23  O   UNL     1     -11.529   5.312 -32.877  1.00  0.00    -0.266 OA
HETATM   24  N   UNL     1     -13.192   3.743 -33.281  1.00  0.00    -0.321 N 
HETATM   25  C   UNL     1     -13.229   2.369 -33.473  1.00  0.00     0.048 A 
HETATM   26  H   UNL     1     -13.986   4.364 -33.239  1.00  0.00     0.169 HD
HETATM   27  C   UNL     1     -14.368   1.608 -33.651  1.00  0.00     0.030 A 
HETATM   28  C   UNL     1     -14.207   0.228 -33.784  1.00  0.00     0.002 A 
HETATM   29  C   UNL     1     -12.929  -0.355 -33.719  1.00  0.00     0.001 A 
HETATM   30  C   UNL     1     -11.785   0.433 -33.534  1.00  0.00     0.016 A 
ENDBRANCH   2  19
TORSDOF 2
ENDMDL
MODEL 10
REMARK VINA RESULT:      -9.3      2.265      7.502
REMARK  2 active torsions:
REMARK  status: ('A' for Active; 'I' for Inactive)
REMARK    1  A    between atoms: C_7  and  C_8 
REMARK       I    between atoms: C_8  and  N_9 
REMARK    2  A    between atoms: N_9  and  N_10 
ROOT
HETATM    1  C   UNL     1      -6.090   2.831 -31.907  1.00  0.00     0.292 C 
HETATM    2  N   UNL     1      -5.156   2.196 -32.711  1.00  0.00    -0.241 N 
HETATM    3  O   UNL     1      -6.015   2.979 -30.691  1.00  0.00    -0.264 OA
HETATM    4  H   UNL     1      -5.438   2.059 -33.676  1.00  0.00     0.192 HD
ENDROOT
BRANCH   1   5
HETATM    5  C   UNL     1      -7.224   3.338 -32.702  1.00  0.00     0.154 A 
HETATM    6  C   UNL     1      -8.401   2.646 -33.079  1.00  0.00     0.007 A 
HETATM    7  C   UNL     1      -9.162   3.553 -33.781  1.00  0.00     0.069 A 
HETATM    8  C   UNL     1      -8.884   1.262 -32.818  1.00  0.00     0.048 C 
HETATM    9  C   UNL     1     -10.465   3.265 -34.355  1.00  0.00    -0.001 A 
HETATM   10  N   UNL     1      -8.432   4.701 -33.818  1.00  0.00    -0.276 N 
HETATM   11  C   UNL     1     -10.859   1.904 -34.370  1.00  0.00    -0.045 A 
HETATM   12  C   UNL     1     -11.325   4.248 -34.849  1.00  0.00     0.014 A 
HETATM   13  C   UNL     1     -12.104   1.555 -34.908  1.00  0.00     0.008 A 
HETATM   14  C   UNL     1      -9.897   0.817 -33.902  1.00  0.00     0.044 C 
HETATM   15  C   UNL     1     -12.956   2.545 -35.398  1.00  0.00     0.001 A 
HETATM   16  C   UNL     1     -12.569   3.885 -35.368  1.00  0.00     0.001 A 
HETATM   17  N   UNL     1      -7.248   4.611 -33.175  1.00  0.00    -0.168 NA
HETATM   18  H   UNL     1      -8.674   5.577 -34.266  1.00  0.00     0.189 HD
ENDBRANCH   1   5
BRANCH   2  19
HETATM   19  N   UNL     1      -4.098   1.528 -32.182  1.00  0.00    -0.165 NA
HETATM   20  C   UNL     1      -3.964   0.260 -32.413  1.00  0.00     0.157 A 
HETATM   21  C   UNL     1      -2.858  -0.553 -31.705  1.00  0.00     0.277 A 
HETATM   22  C   UNL     1      -4.683  -0.706 -33.261  1.00  0.00     0.027 A 
HETATM   23  O   UNL     1      -2.018  -0.128 -30.944  1.00  0.00    -0.266 OA
HETATM   24  N   UNL     1      -3.043  -1.853 -32.109  1.00  0.00    -0.321 N 
HETATM   25  C   UNL     1      -4.092  -1.950 -33.014  1.00  0.00     0.048 A 
HETATM   26  H   UNL     1      -2.451  -2.608 -31.798  1.00  0.00     0.169 HD
HETATM   27  C   UNL     1      -4.514  -3.105 -33.644  1.00  0.00     0.030 A 
HETATM   28  C   UNL     1      -5.559  -2.993 -34.561  1.00  0.00     0.002 A 
HETATM   29  C   UNL     1      -6.141  -1.744 -34.838  1.00  0.00     0.001 A 
HETATM   30  C   UNL     1      -5.698  -0.582 -34.193  1.00  0.00     0.016 A 
ENDBRANCH   2  19
TORSDOF 2
ENDMDL
