MODEL 1
REMARK VINA RESULT:      -8.3      0.000      0.000
REMARK  9 active torsions:
REMARK  status: ('A' for Active; 'I' for Inactive)
REMARK    1  A    between atoms: C_5  and  O_6 
REMARK    2  A    between atoms: O_6  and  C_7 
REMARK    3  A    between atoms: C_7  and  C_8 
REMARK    4  A    between atoms: N_9  and  C_10 
REMARK    5  A    between atoms: C_10  and  C_11 
REMARK    6  A    between atoms: C_11  and  C_12 
REMARK    7  A    between atoms: C_18  and  S_19 
REMARK    8  A    between atoms: S_19  and  C_20 
REMARK    9  A    between atoms: C_20  and  C_21 
REMARK       I    between atoms: C_21  and  N_22 
ROOT
HETATM    1  C   UNL     1      -4.064   2.138 -32.113  1.00  0.00     0.155 A 
HETATM    2  N   UNL     1      -4.668   3.112 -32.885  1.00  0.00    -0.309 N 
HETATM    3  C   UNL     1      -3.883   4.224 -32.729  1.00  0.00     0.192 A 
HETATM    4  N   UNL     1      -2.901   3.966 -31.899  1.00  0.00    -0.123 NA
HETATM    5  N   UNL     1      -3.005   2.659 -31.521  1.00  0.00    -0.132 NA
ENDROOT
BRANCH   1   6
HETATM    6  C   UNL     1      -4.542   0.741 -31.912  1.00  0.00     0.256 C 
BRANCH   6   7
HETATM    7  O   UNL     1      -3.919  -0.083 -32.892  1.00  0.00    -0.344 OA
BRANCH   7   8
HETATM    8  C   UNL     1      -4.709  -1.033 -33.481  1.00  0.00     0.069 A 
HETATM    9  C   UNL     1      -4.051  -2.221 -33.802  1.00  0.00     0.037 A 
HETATM   10  C   UNL     1      -4.742  -3.281 -34.392  1.00  0.00     0.009 A 
HETATM   11  C   UNL     1      -6.104  -3.159 -34.682  1.00  0.00    -0.062 A 
HETATM   12  C   UNL     1      -6.871  -4.304 -35.275  1.00  0.00     0.048 C 
HETATM   13  C   UNL     1      -6.761  -1.966 -34.364  1.00  0.00     0.009 A 
HETATM   14  C   UNL     1      -6.067  -0.905 -33.772  1.00  0.00     0.037 A 
ENDBRANCH   7   8
ENDBRANCH   6   7
ENDBRANCH   1   6
BRANCH   2  15
HETATM   15  C   UNL     1      -5.866   2.978 -33.695  1.00  0.00     0.137 C 
BRANCH  15  16
HETATM   16  C   UNL     1      -7.145   3.321 -32.929  1.00  0.00     0.059 C 
BRANCH  16  17
HETATM   17  C   UNL     1      -8.115   2.167 -32.900  1.00  0.00    -0.057 A 
HETATM   18  C   UNL     1      -8.250   1.374 -31.754  1.00  0.00     0.007 A 
HETATM   19  C   UNL     1      -9.146   0.303 -31.741  1.00  0.00     0.001 A 
HETATM   20  C   UNL     1      -9.911   0.015 -32.871  1.00  0.00     0.000 A 
HETATM   21  C   UNL     1      -9.779   0.797 -34.016  1.00  0.00     0.001 A 
HETATM   22  C   UNL     1      -8.883   1.865 -34.033  1.00  0.00     0.007 A 
ENDBRANCH  16  17
ENDBRANCH  15  16
ENDBRANCH   2  15
BRANCH   3  23
HETATM   23  S   UNL     1      -4.137   5.740 -33.521  1.00  0.00    -0.081 SA
BRANCH  23  24
HETATM   24  C   UNL     1      -2.510   6.009 -34.286  1.00  0.00     0.185 C 
BRANCH  24  25
HETATM   25  C   UNL     1      -1.638   6.894 -33.411  1.00  0.00     0.226 C 
HETATM   26  N   UNL     1      -0.914   6.216 -32.451  1.00  0.00    -0.365 N 
HETATM   27  C   UNL     1       0.036   6.909 -31.620  1.00  0.00     0.149 C 
HETATM   28  H   UNL     1      -0.747   5.223 -32.622  1.00  0.00     0.161 HD
HETATM   29  O   UNL     1      -1.596   8.115 -33.548  1.00  0.00    -0.273 OA
ENDBRANCH  24  25
ENDBRANCH  23  24
ENDBRANCH   3  23
TORSDOF 9
ENDMDL
MODEL 2
REMARK VINA RESULT:      -8.0      1.512      2.089
REMARK  9 active torsions:
REMARK  status: ('A' for Active; 'I' for Inactive)
REMARK    1  A    between atoms: C_5  and  O_6 
REMARK    2  A    between atoms: O_6  and  C_7 
REMARK    3  A    between atoms: C_7  and  C_8 
REMARK    4  A    between atoms: N_9  and  C_10 
REMARK    5  A    between atoms: C_10  and  C_11 
REMARK    6  A    between atoms: C_11  and  C_12 
REMARK    7  A    between atoms: C_18  and  S_19 
REMARK    8  A    between atoms: S_19  and  C_20 
REMARK    9  A    between atoms: C_20  and  C_21 
REMARK       I    between atoms: C_21  and  N_22 
ROOT
HETATM    1  C   UNL     1      -4.081   1.916 -31.745  1.00  0.00     0.155 A 
HETATM    2  N   UNL     1      -4.779   3.076 -31.467  1.00  0.00    -0.309 N 
HETATM    3  C   UNL     1      -3.821   4.053 -31.377  1.00  0.00     0.192 A 
HETATM    4  N   UNL     1      -2.631   3.528 -31.545  1.00  0.00    -0.123 NA
HETATM    5  N   UNL     1      -2.792   2.195 -31.787  1.00  0.00    -0.132 NA
ENDROOT
BRANCH   1   6
HETATM    6  C   UNL     1      -4.657   0.552 -31.910  1.00  0.00     0.256 C 
BRANCH   6   7
HETATM    7  O   UNL     1      -5.161   0.445 -33.237  1.00  0.00    -0.344 OA
BRANCH   7   8
HETATM    8  C   UNL     1      -5.347  -0.822 -33.719  1.00  0.00     0.069 A 
HETATM    9  C   UNL     1      -6.646  -1.099 -34.147  1.00  0.00     0.037 A 
HETATM   10  C   UNL     1      -6.970  -2.350 -34.678  1.00  0.00     0.009 A 
HETATM   11  C   UNL     1      -5.997  -3.348 -34.772  1.00  0.00    -0.062 A 
HETATM   12  C   UNL     1      -6.317  -4.682 -35.380  1.00  0.00     0.048 C 
HETATM   13  C   UNL     1      -4.696  -3.070 -34.338  1.00  0.00     0.009 A 
HETATM   14  C   UNL     1      -4.373  -1.816 -33.808  1.00  0.00     0.037 A 
ENDBRANCH   7   8
ENDBRANCH   6   7
ENDBRANCH   1   6
BRANCH   2  15
HETATM   15  C   UNL     1      -6.216   3.227 -31.319  1.00  0.00     0.137 C 
BRANCH  15  16
HETATM   16  C   UNL     1      -6.946   3.331 -32.660  1.00  0.00     0.059 C 
BRANCH  16  17
HETATM   17  C   UNL     1      -7.997   2.261 -32.817  1.00  0.00    -0.057 A 
HETATM   18  C   UNL     1      -8.705   2.124 -34.017  1.00  0.00     0.007 A 
HETATM   19  C   UNL     1      -9.682   1.134 -34.149  1.00  0.00     0.001 A 
HETATM   20  C   UNL     1      -9.960   0.278 -33.085  1.00  0.00     0.000 A 
HETATM   21  C   UNL     1      -9.263   0.411 -31.886  1.00  0.00     0.001 A 
HETATM   22  C   UNL     1      -8.289   1.400 -31.750  1.00  0.00     0.007 A 
ENDBRANCH  16  17
ENDBRANCH  15  16
ENDBRANCH   2  15
BRANCH   3  23
HETATM   23  S   UNL     1      -4.133   5.730 -31.099  1.00  0.00    -0.081 SA
BRANCH  23  24
HETATM   24  C   UNL     1      -4.800   6.232 -32.714  1.00  0.00     0.185 C 
BRANCH  24  25
HETATM   25  C   UNL     1      -3.995   5.616 -33.848  1.00  0.00     0.226 C 
HETATM   26  N   UNL     1      -2.648   5.917 -33.823  1.00  0.00    -0.365 N 
HETATM   27  C   UNL     1      -1.743   5.319 -34.770  1.00  0.00     0.149 C 
HETATM   28  H   UNL     1      -2.260   6.200 -32.922  1.00  0.00     0.161 HD
HETATM   29  O   UNL     1      -4.513   4.919 -34.717  1.00  0.00    -0.273 OA
ENDBRANCH  24  25
ENDBRANCH  23  24
ENDBRANCH   3  23
TORSDOF 9
ENDMDL
MODEL 3
REMARK VINA RESULT:      -7.9      2.569      5.788
REMARK  9 active torsions:
REMARK  status: ('A' for Active; 'I' for Inactive)
REMARK    1  A    between atoms: C_5  and  O_6 
REMARK    2  A    between atoms: O_6  and  C_7 
REMARK    3  A    between atoms: C_7  and  C_8 
REMARK    4  A    between atoms: N_9  and  C_10 
REMARK    5  A    between atoms: C_10  and  C_11 
REMARK    6  A    between atoms: C_11  and  C_12 
REMARK    7  A    between atoms: C_18  and  S_19 
REMARK    8  A    between atoms: S_19  and  C_20 
REMARK    9  A    between atoms: C_20  and  C_21 
REMARK       I    between atoms: C_21  and  N_22 
ROOT
HETATM    1  C   UNL     1      -7.299   2.051 -33.845  1.00  0.00     0.155 A 
HETATM    2  N   UNL     1      -6.237   1.327 -33.337  1.00  0.00    -0.309 N 
HETATM    3  C   UNL     1      -5.316   2.268 -32.959  1.00  0.00     0.192 A 
HETATM    4  N   UNL     1      -5.758   3.468 -33.247  1.00  0.00    -0.123 NA
HETATM    5  N   UNL     1      -7.003   3.336 -33.791  1.00  0.00    -0.132 NA
ENDROOT
BRANCH   1   6
HETATM    6  C   UNL     1      -8.555   1.497 -34.424  1.00  0.00     0.256 C 
BRANCH   6   7
HETATM    7  O   UNL     1      -9.596   2.443 -34.203  1.00  0.00    -0.344 OA
BRANCH   7   8
HETATM    8  C   UNL     1     -10.871   1.950 -34.169  1.00  0.00     0.069 A 
HETATM    9  C   UNL     1     -11.819   2.735 -34.827  1.00  0.00     0.037 A 
HETATM   10  C   UNL     1     -13.157   2.339 -34.884  1.00  0.00     0.009 A 
HETATM   11  C   UNL     1     -13.568   1.155 -34.267  1.00  0.00    -0.062 A 
HETATM   12  C   UNL     1     -14.992   0.692 -34.357  1.00  0.00     0.048 C 
HETATM   13  C   UNL     1     -12.617   0.370 -33.604  1.00  0.00     0.009 A 
HETATM   14  C   UNL     1     -11.277   0.768 -33.549  1.00  0.00     0.037 A 
ENDBRANCH   7   8
ENDBRANCH   6   7
ENDBRANCH   1   6
BRANCH   2  15
HETATM   15  C   UNL     1      -6.131  -0.117 -33.219  1.00  0.00     0.137 C 
BRANCH  15  16
HETATM   16  C   UNL     1      -6.328  -0.841 -34.552  1.00  0.00     0.059 C 
BRANCH  16  17
HETATM   17  C   UNL     1      -5.845  -2.268 -34.498  1.00  0.00    -0.057 A 
HETATM   18  C   UNL     1      -4.538  -2.567 -34.095  1.00  0.00     0.007 A 
HETATM   19  C   UNL     1      -4.099  -3.893 -34.056  1.00  0.00     0.001 A 
HETATM   20  C   UNL     1      -4.959  -4.926 -34.422  1.00  0.00     0.000 A 
HETATM   21  C   UNL     1      -6.260  -4.637 -34.830  1.00  0.00     0.001 A 
HETATM   22  C   UNL     1      -6.700  -3.314 -34.871  1.00  0.00     0.007 A 
ENDBRANCH  16  17
ENDBRANCH  15  16
ENDBRANCH   2  15
BRANCH   3  23
HETATM   23  S   UNL     1      -3.800   1.928 -32.199  1.00  0.00    -0.081 SA
BRANCH  23  24
HETATM   24  C   UNL     1      -3.371   3.564 -31.533  1.00  0.00     0.185 C 
BRANCH  24  25
HETATM   25  C   UNL     1      -2.287   4.223 -32.370  1.00  0.00     0.226 C 
HETATM   26  N   UNL     1      -2.637   4.449 -33.686  1.00  0.00    -0.365 N 
HETATM   27  C   UNL     1      -1.753   5.162 -34.571  1.00  0.00     0.149 C 
HETATM   28  H   UNL     1      -3.636   4.491 -33.892  1.00  0.00     0.161 HD
HETATM   29  O   UNL     1      -1.188   4.518 -31.906  1.00  0.00    -0.273 OA
ENDBRANCH  24  25
ENDBRANCH  23  24
ENDBRANCH   3  23
TORSDOF 9
ENDMDL
MODEL 4
REMARK VINA RESULT:      -7.7      2.880      7.737
REMARK  9 active torsions:
REMARK  status: ('A' for Active; 'I' for Inactive)
REMARK    1  A    between atoms: C_5  and  O_6 
REMARK    2  A    between atoms: O_6  and  C_7 
REMARK    3  A    between atoms: C_7  and  C_8 
REMARK    4  A    between atoms: N_9  and  C_10 
REMARK    5  A    between atoms: C_10  and  C_11 
REMARK    6  A    between atoms: C_11  and  C_12 
REMARK    7  A    between atoms: C_18  and  S_19 
REMARK    8  A    between atoms: S_19  and  C_20 
REMARK    9  A    between atoms: C_20  and  C_21 
REMARK       I    between atoms: C_21  and  N_22 
ROOT
HETATM    1  C   UNL     1      -5.478   2.271 -32.053  1.00  0.00     0.155 A 
HETATM    2  N   UNL     1      -6.292   1.163 -32.195  1.00  0.00    -0.309 N 
HETATM    3  C   UNL     1      -7.568   1.638 -32.035  1.00  0.00     0.192 A 
HETATM    4  N   UNL     1      -7.537   2.924 -31.777  1.00  0.00    -0.123 NA
HETATM    5  N   UNL     1      -6.233   3.324 -31.799  1.00  0.00    -0.132 NA
ENDROOT
BRANCH   1   6
HETATM    6  C   UNL     1      -3.990   2.293 -32.108  1.00  0.00     0.256 C 
BRANCH   6   7
HETATM    7  O   UNL     1      -3.601   3.198 -33.136  1.00  0.00    -0.344 OA
BRANCH   7   8
HETATM    8  C   UNL     1      -2.631   4.108 -32.812  1.00  0.00     0.069 A 
HETATM    9  C   UNL     1      -2.306   4.156 -31.456  1.00  0.00     0.037 A 
HETATM   10  C   UNL     1      -1.319   5.029 -30.991  1.00  0.00     0.009 A 
HETATM   11  C   UNL     1      -0.655   5.878 -31.879  1.00  0.00    -0.062 A 
HETATM   12  C   UNL     1       0.438   6.789 -31.403  1.00  0.00     0.048 C 
HETATM   13  C   UNL     1      -0.985   5.832 -33.238  1.00  0.00     0.009 A 
HETATM   14  C   UNL     1      -1.973   4.956 -33.703  1.00  0.00     0.037 A 
ENDBRANCH   7   8
ENDBRANCH   6   7
ENDBRANCH   1   6
BRANCH   2  15
HETATM   15  C   UNL     1      -5.881  -0.203 -32.468  1.00  0.00     0.137 C 
BRANCH  15  16
HETATM   16  C   UNL     1      -5.815  -0.518 -33.963  1.00  0.00     0.059 C 
BRANCH  16  17
HETATM   17  C   UNL     1      -5.703  -1.998 -34.225  1.00  0.00    -0.057 A 
HETATM   18  C   UNL     1      -6.818  -2.739 -34.636  1.00  0.00     0.007 A 
HETATM   19  C   UNL     1      -6.704  -4.112 -34.869  1.00  0.00     0.001 A 
HETATM   20  C   UNL     1      -5.480  -4.753 -34.691  1.00  0.00     0.000 A 
HETATM   21  C   UNL     1      -4.367  -4.024 -34.278  1.00  0.00     0.001 A 
HETATM   22  C   UNL     1      -4.478  -2.654 -34.042  1.00  0.00     0.007 A 
ENDBRANCH  16  17
ENDBRANCH  15  16
ENDBRANCH   2  15
BRANCH   3  23
HETATM   23  S   UNL     1      -9.006   0.689 -32.170  1.00  0.00    -0.081 SA
BRANCH  23  24
HETATM   24  C   UNL     1      -9.386   0.883 -33.937  1.00  0.00     0.185 C 
BRANCH  24  25
HETATM   25  C   UNL     1     -10.849   1.242 -34.141  1.00  0.00     0.226 C 
HETATM   26  N   UNL     1     -11.071   2.229 -35.080  1.00  0.00    -0.365 N 
HETATM   27  C   UNL     1     -12.410   2.599 -35.458  1.00  0.00     0.149 C 
HETATM   28  H   UNL     1     -10.335   2.374 -35.774  1.00  0.00     0.161 HD
HETATM   29  O   UNL     1     -11.752   0.700 -33.509  1.00  0.00    -0.273 OA
ENDBRANCH  24  25
ENDBRANCH  23  24
ENDBRANCH   3  23
TORSDOF 9
ENDMDL
MODEL 5
REMARK VINA RESULT:      -7.5      2.401      4.071
REMARK  9 active torsions:
REMARK  status: ('A' for Active; 'I' for Inactive)
REMARK    1  A    between atoms: C_5  and  O_6 
REMARK    2  A    between atoms: O_6  and  C_7 
REMARK    3  A    between atoms: C_7  and  C_8 
REMARK    4  A    between atoms: N_9  and  C_10 
REMARK    5  A    between atoms: C_10  and  C_11 
REMARK    6  A    between atoms: C_11  and  C_12 
REMARK    7  A    between atoms: C_18  and  S_19 
REMARK    8  A    between atoms: S_19  and  C_20 
REMARK    9  A    between atoms: C_20  and  C_21 
REMARK       I    between atoms: C_21  and  N_22 
ROOT
HETATM    1  C   UNL     1      -4.627   4.936 -33.900  1.00  0.00     0.155 A 
HETATM    2  N   UNL     1      -3.637   4.738 -32.956  1.00  0.00    -0.309 N 
HETATM    3  C   UNL     1      -2.548   5.418 -33.437  1.00  0.00     0.192 A 
HETATM    4  N   UNL     1      -2.834   5.955 -34.599  1.00  0.00    -0.123 NA
HETATM    5  N   UNL     1      -4.136   5.665 -34.886  1.00  0.00    -0.132 NA
ENDROOT
BRANCH   1   6
HETATM    6  C   UNL     1      -6.008   4.378 -33.869  1.00  0.00     0.256 C 
BRANCH   6   7
HETATM    7  O   UNL     1      -5.982   3.106 -34.509  1.00  0.00    -0.344 OA
BRANCH   7   8
HETATM    8  C   UNL     1      -6.959   2.220 -34.144  1.00  0.00     0.069 A 
HETATM    9  C   UNL     1      -7.789   2.660 -33.111  1.00  0.00     0.037 A 
HETATM   10  C   UNL     1      -8.839   1.861 -32.652  1.00  0.00     0.009 A 
HETATM   11  C   UNL     1      -9.063   0.602 -33.214  1.00  0.00    -0.062 A 
HETATM   12  C   UNL     1     -10.214  -0.250 -32.763  1.00  0.00     0.048 C 
HETATM   13  C   UNL     1      -8.228   0.161 -34.247  1.00  0.00     0.009 A 
HETATM   14  C   UNL     1      -7.177   0.963 -34.706  1.00  0.00     0.037 A 
ENDBRANCH   7   8
ENDBRANCH   6   7
ENDBRANCH   1   6
BRANCH   2  15
HETATM   15  C   UNL     1      -3.738   3.986 -31.719  1.00  0.00     0.137 C 
BRANCH  15  16
HETATM   16  C   UNL     1      -3.321   2.522 -31.875  1.00  0.00     0.059 C 
BRANCH  16  17
HETATM   17  C   UNL     1      -4.417   1.574 -31.460  1.00  0.00    -0.057 A 
HETATM   18  C   UNL     1      -5.301   1.908 -30.426  1.00  0.00     0.007 A 
HETATM   19  C   UNL     1      -6.308   1.018 -30.046  1.00  0.00     0.001 A 
HETATM   20  C   UNL     1      -6.438  -0.210 -30.691  1.00  0.00     0.000 A 
HETATM   21  C   UNL     1      -5.560  -0.552 -31.718  1.00  0.00     0.001 A 
HETATM   22  C   UNL     1      -4.552   0.333 -32.098  1.00  0.00     0.007 A 
ENDBRANCH  16  17
ENDBRANCH  15  16
ENDBRANCH   2  15
BRANCH   3  23
HETATM   23  S   UNL     1      -1.028   5.561 -32.627  1.00  0.00    -0.081 SA
BRANCH  23  24
HETATM   24  C   UNL     1      -1.414   6.835 -31.389  1.00  0.00     0.185 C 
BRANCH  24  25
HETATM   25  C   UNL     1      -0.401   6.814 -30.255  1.00  0.00     0.226 C 
HETATM   26  N   UNL     1      -0.839   6.187 -29.106  1.00  0.00    -0.365 N 
HETATM   27  C   UNL     1       0.047   5.995 -27.988  1.00  0.00     0.149 C 
HETATM   28  H   UNL     1      -1.604   5.519 -29.214  1.00  0.00     0.161 HD
HETATM   29  O   UNL     1       0.712   7.326 -30.360  1.00  0.00    -0.273 OA
ENDBRANCH  24  25
ENDBRANCH  23  24
ENDBRANCH   3  23
TORSDOF 9
ENDMDL
MODEL 6
REMARK VINA RESULT:      -7.4      3.331      7.458
REMARK  9 active torsions:
REMARK  status: ('A' for Active; 'I' for Inactive)
REMARK    1  A    between atoms: C_5  and  O_6 
REMARK    2  A    between atoms: O_6  and  C_7 
REMARK    3  A    between atoms: C_7  and  C_8 
REMARK    4  A    between atoms: N_9  and  C_10 
REMARK    5  A    between atoms: C_10  and  C_11 
REMARK    6  A    between atoms: C_11  and  C_12 
REMARK    7  A    between atoms: C_18  and  S_19 
REMARK    8  A    between atoms: S_19  and  C_20 
REMARK    9  A    between atoms: C_20  and  C_21 
REMARK       I    between atoms: C_21  and  N_22 
ROOT
HETATM    1  C   UNL     1      -7.001   2.476 -31.158  1.00  0.00     0.155 A 
HETATM    2  N   UNL     1      -7.097   1.793 -32.355  1.00  0.00    -0.309 N 
HETATM    3  C   UNL     1      -8.440   1.738 -32.624  1.00  0.00     0.192 A 
HETATM    4  N   UNL     1      -9.114   2.305 -31.653  1.00  0.00    -0.123 NA
HETATM    5  N   UNL     1      -8.217   2.777 -30.741  1.00  0.00    -0.132 NA
ENDROOT
BRANCH   1   6
HETATM    6  C   UNL     1      -5.751   2.780 -30.407  1.00  0.00     0.256 C 
BRANCH   6   7
HETATM    7  O   UNL     1      -5.385   4.127 -30.688  1.00  0.00    -0.344 OA
BRANCH   7   8
HETATM    8  C   UNL     1      -4.434   4.311 -31.655  1.00  0.00     0.069 A 
HETATM    9  C   UNL     1      -4.863   5.041 -32.764  1.00  0.00     0.037 A 
HETATM   10  C   UNL     1      -3.988   5.318 -33.817  1.00  0.00     0.009 A 
HETATM   11  C   UNL     1      -2.672   4.851 -33.780  1.00  0.00    -0.062 A 
HETATM   12  C   UNL     1      -1.707   5.177 -34.881  1.00  0.00     0.048 C 
HETATM   13  C   UNL     1      -2.244   4.114 -32.669  1.00  0.00     0.009 A 
HETATM   14  C   UNL     1      -3.122   3.840 -31.615  1.00  0.00     0.037 A 
ENDBRANCH   7   8
ENDBRANCH   6   7
ENDBRANCH   1   6
BRANCH   2  15
HETATM   15  C   UNL     1      -6.009   1.263 -33.158  1.00  0.00     0.137 C 
BRANCH  15  16
HETATM   16  C   UNL     1      -5.349   0.033 -32.531  1.00  0.00     0.059 C 
BRANCH  16  17
HETATM   17  C   UNL     1      -5.486  -1.189 -33.403  1.00  0.00    -0.057 A 
HETATM   18  C   UNL     1      -6.749  -1.655 -33.791  1.00  0.00     0.007 A 
HETATM   19  C   UNL     1      -6.864  -2.792 -34.592  1.00  0.00     0.001 A 
HETATM   20  C   UNL     1      -5.722  -3.474 -35.009  1.00  0.00     0.000 A 
HETATM   21  C   UNL     1      -4.463  -3.020 -34.624  1.00  0.00     0.001 A 
HETATM   22  C   UNL     1      -4.345  -1.886 -33.821  1.00  0.00     0.007 A 
ENDBRANCH  16  17
ENDBRANCH  15  16
ENDBRANCH   2  15
BRANCH   3  23
HETATM   23  S   UNL     1      -9.142   1.039 -34.041  1.00  0.00    -0.081 SA
BRANCH  23  24
HETATM   24  C   UNL     1     -10.755   0.498 -33.399  1.00  0.00     0.185 C 
BRANCH  24  25
HETATM   25  C   UNL     1     -11.847   1.488 -33.772  1.00  0.00     0.226 C 
HETATM   26  N   UNL     1     -12.247   2.315 -32.741  1.00  0.00    -0.365 N 
HETATM   27  C   UNL     1     -13.195   3.373 -32.973  1.00  0.00     0.149 C 
HETATM   28  H   UNL     1     -11.584   2.443 -31.975  1.00  0.00     0.161 HD
HETATM   29  O   UNL     1     -12.335   1.533 -34.899  1.00  0.00    -0.273 OA
ENDBRANCH  24  25
ENDBRANCH  23  24
ENDBRANCH   3  23
TORSDOF 9
ENDMDL
MODEL 7
REMARK VINA RESULT:      -7.3      3.140      6.299
REMARK  9 active torsions:
REMARK  status: ('A' for Active; 'I' for Inactive)
REMARK    1  A    between atoms: C_5  and  O_6 
REMARK    2  A    between atoms: O_6  and  C_7 
REMARK    3  A    between atoms: C_7  and  C_8 
REMARK    4  A    between atoms: N_9  and  C_10 
REMARK    5  A    between atoms: C_10  and  C_11 
REMARK    6  A    between atoms: C_11  and  C_12 
REMARK    7  A    between atoms: C_18  and  S_19 
REMARK    8  A    between atoms: S_19  and  C_20 
REMARK    9  A    between atoms: C_20  and  C_21 
REMARK       I    between atoms: C_21  and  N_22 
ROOT
HETATM    1  C   UNL     1      -6.887   1.243 -31.649  1.00  0.00     0.155 A 
HETATM    2  N   UNL     1      -7.273   2.567 -31.743  1.00  0.00    -0.309 N 
HETATM    3  C   UNL     1      -8.637   2.548 -31.609  1.00  0.00     0.192 A 
HETATM    4  N   UNL     1      -9.057   1.312 -31.483  1.00  0.00    -0.123 NA
HETATM    5  N   UNL     1      -7.964   0.495 -31.497  1.00  0.00    -0.132 NA
ENDROOT
BRANCH   1   6
HETATM    6  C   UNL     1      -5.499   0.713 -31.764  1.00  0.00     0.256 C 
BRANCH   6   7
HETATM    7  O   UNL     1      -5.207   0.541 -33.147  1.00  0.00    -0.344 OA
BRANCH   7   8
HETATM    8  C   UNL     1      -5.344  -0.725 -33.646  1.00  0.00     0.069 A 
HETATM    9  C   UNL     1      -6.572  -0.983 -34.256  1.00  0.00     0.037 A 
HETATM   10  C   UNL     1      -6.838  -2.230 -34.824  1.00  0.00     0.009 A 
HETATM   11  C   UNL     1      -5.879  -3.245 -34.775  1.00  0.00    -0.062 A 
HETATM   12  C   UNL     1      -6.131  -4.577 -35.419  1.00  0.00     0.048 C 
HETATM   13  C   UNL     1      -4.649  -2.987 -34.159  1.00  0.00     0.009 A 
HETATM   14  C   UNL     1      -4.384  -1.736 -33.592  1.00  0.00     0.037 A 
ENDBRANCH   7   8
ENDBRANCH   6   7
ENDBRANCH   1   6
BRANCH   2  15
HETATM   15  C   UNL     1      -6.415   3.724 -31.929  1.00  0.00     0.137 C 
BRANCH  15  16
HETATM   16  C   UNL     1      -6.151   4.040 -33.402  1.00  0.00     0.059 C 
BRANCH  16  17
HETATM   17  C   UNL     1      -4.694   4.320 -33.669  1.00  0.00    -0.057 A 
HETATM   18  C   UNL     1      -3.704   3.858 -32.792  1.00  0.00     0.007 A 
HETATM   19  C   UNL     1      -2.357   4.130 -33.046  1.00  0.00     0.001 A 
HETATM   20  C   UNL     1      -1.991   4.865 -34.172  1.00  0.00     0.000 A 
HETATM   21  C   UNL     1      -2.970   5.332 -35.046  1.00  0.00     0.001 A 
HETATM   22  C   UNL     1      -4.315   5.065 -34.794  1.00  0.00     0.007 A 
ENDBRANCH  16  17
ENDBRANCH  15  16
ENDBRANCH   2  15
BRANCH   3  23
HETATM   23  S   UNL     1      -9.654   3.946 -31.590  1.00  0.00    -0.081 SA
BRANCH  23  24
HETATM   24  C   UNL     1     -10.104   4.071 -33.347  1.00  0.00     0.185 C 
BRANCH  24  25
HETATM   25  C   UNL     1     -11.275   3.158 -33.674  1.00  0.00     0.226 C 
HETATM   26  N   UNL     1     -11.283   2.677 -34.968  1.00  0.00    -0.365 N 
HETATM   27  C   UNL     1     -12.269   1.717 -35.390  1.00  0.00     0.149 C 
HETATM   28  H   UNL     1     -10.387   2.671 -35.458  1.00  0.00     0.161 HD
HETATM   29  O   UNL     1     -12.144   2.885 -32.849  1.00  0.00    -0.273 OA
ENDBRANCH  24  25
ENDBRANCH  23  24
ENDBRANCH   3  23
TORSDOF 9
ENDMDL
MODEL 8
REMARK VINA RESULT:      -7.2      2.197      2.641
REMARK  9 active torsions:
REMARK  status: ('A' for Active; 'I' for Inactive)
REMARK    1  A    between atoms: C_5  and  O_6 
REMARK    2  A    between atoms: O_6  and  C_7 
REMARK    3  A    between atoms: C_7  and  C_8 
REMARK    4  A    between atoms: N_9  and  C_10 
REMARK    5  A    between atoms: C_10  and  C_11 
REMARK    6  A    between atoms: C_11  and  C_12 
REMARK    7  A    between atoms: C_18  and  S_19 
REMARK    8  A    between atoms: S_19  and  C_20 
REMARK    9  A    between atoms: C_20  and  C_21 
REMARK       I    between atoms: C_21  and  N_22 
ROOT
HETATM    1  C   UNL     1      -4.119   2.211 -31.717  1.00  0.00     0.155 A 
HETATM    2  N   UNL     1      -4.904   3.324 -31.481  1.00  0.00    -0.309 N 
HETATM    3  C   UNL     1      -4.015   4.355 -31.317  1.00  0.00     0.192 A 
HETATM    4  N   UNL     1      -2.787   3.905 -31.406  1.00  0.00    -0.123 NA
HETATM    5  N   UNL     1      -2.849   2.567 -31.667  1.00  0.00    -0.132 NA
ENDROOT
BRANCH   1   6
HETATM    6  C   UNL     1      -4.597   0.816 -31.931  1.00  0.00     0.256 C 
BRANCH   6   7
HETATM    7  O   UNL     1      -4.904   0.664 -33.313  1.00  0.00    -0.344 OA
BRANCH   7   8
HETATM    8  C   UNL     1      -5.196  -0.604 -33.737  1.00  0.00     0.069 A 
HETATM    9  C   UNL     1      -6.485  -0.767 -34.246  1.00  0.00     0.037 A 
HETATM   10  C   UNL     1      -6.909  -2.006 -34.730  1.00  0.00     0.009 A 
HETATM   11  C   UNL     1      -6.049  -3.107 -34.695  1.00  0.00    -0.062 A 
HETATM   12  C   UNL     1      -6.473  -4.435 -35.251  1.00  0.00     0.048 C 
HETATM   13  C   UNL     1      -4.758  -2.944 -34.180  1.00  0.00     0.009 A 
HETATM   14  C   UNL     1      -4.335  -1.700 -33.697  1.00  0.00     0.037 A 
ENDBRANCH   7   8
ENDBRANCH   6   7
ENDBRANCH   1   6
BRANCH   2  15
HETATM   15  C   UNL     1      -6.354   3.385 -31.432  1.00  0.00     0.137 C 
BRANCH  15  16
HETATM   16  C   UNL     1      -7.000   3.327 -32.816  1.00  0.00     0.059 C 
BRANCH  16  17
HETATM   17  C   UNL     1      -8.058   2.256 -32.903  1.00  0.00    -0.057 A 
HETATM   18  C   UNL     1      -8.885   2.154 -34.029  1.00  0.00     0.007 A 
HETATM   19  C   UNL     1      -9.866   1.163 -34.095  1.00  0.00     0.001 A 
HETATM   20  C   UNL     1     -10.031   0.269 -33.038  1.00  0.00     0.000 A 
HETATM   21  C   UNL     1      -9.216   0.366 -31.912  1.00  0.00     0.001 A 
HETATM   22  C   UNL     1      -8.237   1.356 -31.843  1.00  0.00     0.007 A 
ENDBRANCH  16  17
ENDBRANCH  15  16
ENDBRANCH   2  15
BRANCH   3  23
HETATM   23  S   UNL     1      -4.448   6.007 -31.050  1.00  0.00    -0.081 SA
BRANCH  23  24
HETATM   24  C   UNL     1      -2.958   6.625 -30.212  1.00  0.00     0.185 C 
BRANCH  24  25
HETATM   25  C   UNL     1      -3.321   7.369 -28.937  1.00  0.00     0.226 C 
HETATM   26  N   UNL     1      -2.964   6.719 -27.773  1.00  0.00    -0.365 N 
HETATM   27  C   UNL     1      -3.147   7.349 -26.491  1.00  0.00     0.149 C 
HETATM   28  H   UNL     1      -2.219   6.024 -27.848  1.00  0.00     0.161 HD
HETATM   29  O   UNL     1      -3.896   8.455 -28.952  1.00  0.00    -0.273 OA
ENDBRANCH  24  25
ENDBRANCH  23  24
ENDBRANCH   3  23
TORSDOF 9
ENDMDL
MODEL 9
REMARK VINA RESULT:      -7.1      3.987      7.021
REMARK  9 active torsions:
REMARK  status: ('A' for Active; 'I' for Inactive)
REMARK    1  A    between atoms: C_5  and  O_6 
REMARK    2  A    between atoms: O_6  and  C_7 
REMARK    3  A    between atoms: C_7  and  C_8 
REMARK    4  A    between atoms: N_9  and  C_10 
REMARK    5  A    between atoms: C_10  and  C_11 
REMARK    6  A    between atoms: C_11  and  C_12 
REMARK    7  A    between atoms: C_18  and  S_19 
REMARK    8  A    between atoms: S_19  and  C_20 
REMARK    9  A    between atoms: C_20  and  C_21 
REMARK       I    between atoms: C_21  and  N_22 
ROOT
HETATM    1  C   UNL     1      -8.591   1.234 -34.096  1.00  0.00     0.155 A 
HETATM    2  N   UNL     1      -9.204   2.448 -33.848  1.00  0.00    -0.309 N 
HETATM    3  C   UNL     1     -10.408   2.127 -33.277  1.00  0.00     0.192 A 
HETATM    4  N   UNL     1     -10.541   0.824 -33.218  1.00  0.00    -0.123 NA
HETATM    5  N   UNL     1      -9.402   0.263 -33.718  1.00  0.00    -0.132 NA
ENDROOT
BRANCH   1   6
HETATM    6  C   UNL     1      -7.265   1.024 -34.742  1.00  0.00     0.256 C 
BRANCH   6   7
HETATM    7  O   UNL     1      -6.347   0.611 -33.735  1.00  0.00    -0.344 OA
BRANCH   7   8
HETATM    8  C   UNL     1      -5.796  -0.632 -33.885  1.00  0.00     0.069 A 
HETATM    9  C   UNL     1      -4.677  -0.875 -33.088  1.00  0.00     0.037 A 
HETATM   10  C   UNL     1      -4.028  -2.111 -33.129  1.00  0.00     0.009 A 
HETATM   11  C   UNL     1      -4.483  -3.118 -33.984  1.00  0.00    -0.062 A 
HETATM   12  C   UNL     1      -3.824  -4.466 -34.008  1.00  0.00     0.048 C 
HETATM   13  C   UNL     1      -5.603  -2.872 -34.786  1.00  0.00     0.009 A 
HETATM   14  C   UNL     1      -6.253  -1.633 -34.743  1.00  0.00     0.037 A 
ENDBRANCH   7   8
ENDBRANCH   6   7
ENDBRANCH   1   6
BRANCH   2  15
HETATM   15  C   UNL     1      -8.676   3.773 -34.120  1.00  0.00     0.137 C 
BRANCH  15  16
HETATM   16  C   UNL     1      -8.114   4.459 -32.874  1.00  0.00     0.059 C 
BRANCH  16  17
HETATM   17  C   UNL     1      -6.804   3.855 -32.437  1.00  0.00    -0.057 A 
HETATM   18  C   UNL     1      -5.642   4.034 -33.199  1.00  0.00     0.007 A 
HETATM   19  C   UNL     1      -4.436   3.463 -32.788  1.00  0.00     0.001 A 
HETATM   20  C   UNL     1      -4.380   2.708 -31.618  1.00  0.00     0.000 A 
HETATM   21  C   UNL     1      -5.532   2.521 -30.857  1.00  0.00     0.001 A 
HETATM   22  C   UNL     1      -6.739   3.088 -31.265  1.00  0.00     0.007 A 
ENDBRANCH  16  17
ENDBRANCH  15  16
ENDBRANCH   2  15
BRANCH   3  23
HETATM   23  S   UNL     1     -11.574   3.269 -32.706  1.00  0.00    -0.081 SA
BRANCH  23  24
HETATM   24  C   UNL     1     -12.501   3.611 -34.232  1.00  0.00     0.185 C 
BRANCH  24  25
HETATM   25  C   UNL     1     -13.220   2.363 -34.721  1.00  0.00     0.226 C 
HETATM   26  N   UNL     1     -14.227   1.918 -33.888  1.00  0.00    -0.365 N 
HETATM   27  C   UNL     1     -15.065   0.813 -34.273  1.00  0.00     0.149 C 
HETATM   28  H   UNL     1     -14.628   2.606 -33.249  1.00  0.00     0.161 HD
HETATM   29  O   UNL     1     -12.914   1.798 -35.768  1.00  0.00    -0.273 OA
ENDBRANCH  24  25
ENDBRANCH  23  24
ENDBRANCH   3  23
TORSDOF 9
ENDMDL
MODEL 10
REMARK VINA RESULT:      -7.1      2.234      4.120
REMARK  9 active torsions:
REMARK  status: ('A' for Active; 'I' for Inactive)
REMARK    1  A    between atoms: C_5  and  O_6 
REMARK    2  A    between atoms: O_6  and  C_7 
REMARK    3  A    between atoms: C_7  and  C_8 
REMARK    4  A    between atoms: N_9  and  C_10 
REMARK    5  A    between atoms: C_10  and  C_11 
REMARK    6  A    between atoms: C_11  and  C_12 
REMARK    7  A    between atoms: C_18  and  S_19 
REMARK    8  A    between atoms: S_19  and  C_20 
REMARK    9  A    between atoms: C_20  and  C_21 
REMARK       I    between atoms: C_21  and  N_22 
ROOT
HETATM    1  C   UNL     1      -6.602   4.743 -30.754  1.00  0.00     0.155 A 
HETATM    2  N   UNL     1      -5.245   4.679 -31.010  1.00  0.00    -0.309 N 
HETATM    3  C   UNL     1      -4.757   5.904 -30.635  1.00  0.00     0.192 A 
HETATM    4  N   UNL     1      -5.739   6.670 -30.223  1.00  0.00    -0.123 NA
HETATM    5  N   UNL     1      -6.891   5.942 -30.285  1.00  0.00    -0.132 NA
ENDROOT
BRANCH   1   6
HETATM    6  C   UNL     1      -7.606   3.673 -31.016  1.00  0.00     0.256 C 
BRANCH   6   7
HETATM    7  O   UNL     1      -7.816   3.603 -32.423  1.00  0.00    -0.344 OA
BRANCH   7   8
HETATM    8  C   UNL     1      -7.568   2.395 -33.016  1.00  0.00     0.069 A 
HETATM    9  C   UNL     1      -8.234   1.313 -32.438  1.00  0.00     0.037 A 
HETATM   10  C   UNL     1      -8.085   0.025 -32.956  1.00  0.00     0.009 A 
HETATM   11  C   UNL     1      -7.252  -0.199 -34.055  1.00  0.00    -0.062 A 
HETATM   12  C   UNL     1      -7.115  -1.569 -34.652  1.00  0.00     0.048 C 
HETATM   13  C   UNL     1      -6.581   0.886 -34.631  1.00  0.00     0.009 A 
HETATM   14  C   UNL     1      -6.733   2.176 -34.111  1.00  0.00     0.037 A 
ENDBRANCH   7   8
ENDBRANCH   6   7
ENDBRANCH   1   6
BRANCH   2  15
HETATM   15  C   UNL     1      -4.501   3.552 -31.544  1.00  0.00     0.137 C 
BRANCH  15  16
HETATM   16  C   UNL     1      -4.564   2.316 -30.645  1.00  0.00     0.059 C 
BRANCH  16  17
HETATM   17  C   UNL     1      -4.319   1.043 -31.415  1.00  0.00    -0.057 A 
HETATM   18  C   UNL     1      -3.465   1.030 -32.525  1.00  0.00     0.007 A 
HETATM   19  C   UNL     1      -3.252  -0.153 -33.236  1.00  0.00     0.001 A 
HETATM   20  C   UNL     1      -3.889  -1.329 -32.845  1.00  0.00     0.000 A 
HETATM   21  C   UNL     1      -4.744  -1.324 -31.745  1.00  0.00     0.001 A 
HETATM   22  C   UNL     1      -4.961  -0.143 -31.035  1.00  0.00     0.007 A 
ENDBRANCH  16  17
ENDBRANCH  15  16
ENDBRANCH   2  15
BRANCH   3  23
HETATM   23  S   UNL     1      -3.092   6.368 -30.684  1.00  0.00    -0.081 SA
BRANCH  23  24
HETATM   24  C   UNL     1      -3.114   7.598 -32.023  1.00  0.00     0.185 C 
BRANCH  24  25
HETATM   25  C   UNL     1      -2.327   7.104 -33.226  1.00  0.00     0.226 C 
HETATM   26  N   UNL     1      -2.618   5.810 -33.610  1.00  0.00    -0.365 N 
HETATM   27  C   UNL     1      -2.031   5.244 -34.796  1.00  0.00     0.149 C 
HETATM   28  H   UNL     1      -3.523   5.439 -33.315  1.00  0.00     0.161 HD
HETATM   29  O   UNL     1      -1.494   7.804 -33.798  1.00  0.00    -0.273 OA
ENDBRANCH  24  25
ENDBRANCH  23  24
ENDBRANCH   3  23
TORSDOF 9
ENDMDL
