MODEL 1
REMARK VINA RESULT:      -8.6      0.000      0.000
REMARK  5 active torsions:
REMARK  status: ('A' for Active; 'I' for Inactive)
REMARK    1  A    between atoms: C_3  and  C_4 
REMARK    2  A    between atoms: C_9  and  N_10 
REMARK       I    between atoms: N_10  and  C_11 
REMARK    3  A    between atoms: C_11  and  C_12 
REMARK    4  A    between atoms: C_14  and  C_15 
REMARK    5  A    between atoms: C_17  and  O_18 
ROOT
HETATM    1  C   UNL     1      -6.498   1.408 -33.278  1.00  0.00     0.149 A 
HETATM    2  N   UNL     1      -5.773   0.358 -33.832  1.00  0.00    -0.223 NA
HETATM    3  C   UNL     1      -6.522  -0.723 -33.700  1.00  0.00     0.139 A 
HETATM    4  N   UNL     1      -7.695  -0.403 -33.055  1.00  0.00    -0.342 N 
HETATM    5  H   UNL     1      -8.417  -1.063 -32.801  1.00  0.00     0.167 HD
HETATM    6  C   UNL     1      -7.699   0.938 -32.780  1.00  0.00     0.041 A 
HETATM    7  C   UNL     1      -8.814   1.619 -32.083  1.00  0.00     0.071 C 
ENDROOT
BRANCH   1   8
HETATM    8  C   UNL     1      -6.002   2.793 -33.248  1.00  0.00     0.276 C 
HETATM    9  N   UNL     1      -4.706   2.853 -32.775  1.00  0.00    -0.322 N 
HETATM   10  H   UNL     1      -4.315   1.943 -32.543  1.00  0.00     0.169 HD
HETATM   11  O   UNL     1      -6.693   3.737 -33.611  1.00  0.00    -0.266 OA
BRANCH   9  12
HETATM   12  C   UNL     1      -3.905   3.993 -32.580  1.00  0.00     0.035 A 
HETATM   13  C   UNL     1      -3.972   4.802 -31.448  1.00  0.00     0.030 A 
HETATM   14  C   UNL     1      -3.126   5.907 -31.313  1.00  0.00     0.018 A 
HETATM   15  C   UNL     1      -2.201   6.229 -32.315  1.00  0.00     0.015 A 
HETATM   16  C   UNL     1      -2.130   5.431 -33.473  1.00  0.00    -0.046 A 
HETATM   17  C   UNL     1      -1.163   5.712 -34.592  1.00  0.00     0.049 C 
HETATM   18  C   UNL     1      -2.983   4.314 -33.584  1.00  0.00     0.037 A 
BRANCH  15  19
HETATM   19  C   UNL     1      -1.293   7.400 -32.109  1.00  0.00     0.156 C 
HETATM   20  C   UNL     1       0.001   7.181 -31.368  1.00  0.00     0.097 C 
HETATM   21  O   UNL     1      -1.584   8.505 -32.560  1.00  0.00    -0.293 OA
ENDBRANCH  15  19
ENDBRANCH   9  12
ENDBRANCH   1   8
BRANCH   3  22
HETATM   22  C   UNL     1      -6.178  -2.085 -34.119  1.00  0.00     0.013 A 
HETATM   23  C   UNL     1      -4.897  -2.593 -33.842  1.00  0.00     0.052 A 
HETATM   24  C   UNL     1      -4.551  -3.897 -34.204  1.00  0.00     0.069 A 
HETATM   25  C   UNL     1      -5.487  -4.695 -34.864  1.00  0.00     0.037 A 
HETATM   26  C   UNL     1      -6.757  -4.203 -35.160  1.00  0.00     0.004 A 
HETATM   27  C   UNL     1      -7.101  -2.902 -34.789  1.00  0.00     0.015 A 
BRANCH  24  28
HETATM   28  O   UNL     1      -3.347  -4.505 -33.976  1.00  0.00    -0.356 OA
HETATM   29  C   UNL     1      -2.860  -4.485 -32.640  1.00  0.00     0.210 C 
ENDBRANCH  24  28
ENDBRANCH   3  22
TORSDOF 5
ENDMDL
MODEL 2
REMARK VINA RESULT:      -8.2      1.650      2.506
REMARK  5 active torsions:
REMARK  status: ('A' for Active; 'I' for Inactive)
REMARK    1  A    between atoms: C_3  and  C_4 
REMARK    2  A    between atoms: C_9  and  N_10 
REMARK       I    between atoms: N_10  and  C_11 
REMARK    3  A    between atoms: C_11  and  C_12 
REMARK    4  A    between atoms: C_14  and  C_15 
REMARK    5  A    between atoms: C_17  and  O_18 
ROOT
HETATM    1  C   UNL     1      -4.912   1.397 -32.431  1.00  0.00     0.149 A 
HETATM    2  N   UNL     1      -4.259   0.197 -32.167  1.00  0.00    -0.223 NA
HETATM    3  C   UNL     1      -4.749  -0.689 -33.018  1.00  0.00     0.139 A 
HETATM    4  N   UNL     1      -5.714  -0.099 -33.803  1.00  0.00    -0.342 N 
HETATM    5  H   UNL     1      -6.264  -0.576 -34.504  1.00  0.00     0.167 HD
HETATM    6  C   UNL     1      -5.832   1.218 -33.448  1.00  0.00     0.041 A 
HETATM    7  C   UNL     1      -6.789   2.147 -34.090  1.00  0.00     0.071 C 
ENDROOT
BRANCH   1   8
HETATM    8  C   UNL     1      -4.628   2.639 -31.695  1.00  0.00     0.276 C 
HETATM    9  N   UNL     1      -4.073   3.596 -32.520  1.00  0.00    -0.322 N 
HETATM   10  H   UNL     1      -3.968   3.291 -33.485  1.00  0.00     0.169 HD
HETATM   11  O   UNL     1      -4.876   2.755 -30.501  1.00  0.00    -0.266 OA
BRANCH   9  12
HETATM   12  C   UNL     1      -3.648   4.893 -32.180  1.00  0.00     0.035 A 
HETATM   13  C   UNL     1      -4.516   5.957 -31.948  1.00  0.00     0.030 A 
HETATM   14  C   UNL     1      -4.022   7.215 -31.590  1.00  0.00     0.018 A 
HETATM   15  C   UNL     1      -2.643   7.434 -31.466  1.00  0.00     0.015 A 
HETATM   16  C   UNL     1      -1.749   6.374 -31.712  1.00  0.00    -0.046 A 
HETATM   17  C   UNL     1      -0.256   6.531 -31.598  1.00  0.00     0.049 C 
HETATM   18  C   UNL     1      -2.269   5.111 -32.059  1.00  0.00     0.037 A 
BRANCH  15  19
HETATM   19  C   UNL     1      -2.163   8.788 -31.047  1.00  0.00     0.156 C 
HETATM   20  C   UNL     1      -1.944   9.046 -29.577  1.00  0.00     0.097 C 
HETATM   21  O   UNL     1      -1.925   9.655 -31.882  1.00  0.00    -0.293 OA
ENDBRANCH  15  19
ENDBRANCH   9  12
ENDBRANCH   1   8
BRANCH   3  22
HETATM   22  C   UNL     1      -4.384  -2.105 -33.117  1.00  0.00     0.013 A 
HETATM   23  C   UNL     1      -5.062  -2.935 -34.026  1.00  0.00     0.052 A 
HETATM   24  C   UNL     1      -4.716  -4.281 -34.161  1.00  0.00     0.069 A 
HETATM   25  C   UNL     1      -3.694  -4.807 -33.370  1.00  0.00     0.037 A 
HETATM   26  C   UNL     1      -3.020  -4.003 -32.452  1.00  0.00     0.004 A 
HETATM   27  C   UNL     1      -3.364  -2.656 -32.327  1.00  0.00     0.015 A 
BRANCH  24  28
HETATM   28  O   UNL     1      -5.290  -5.180 -35.018  1.00  0.00    -0.356 OA
HETATM   29  C   UNL     1      -6.466  -4.759 -35.698  1.00  0.00     0.210 C 
ENDBRANCH  24  28
ENDBRANCH   3  22
TORSDOF 5
ENDMDL
MODEL 3
REMARK VINA RESULT:      -8.2      3.596      6.318
REMARK  5 active torsions:
REMARK  status: ('A' for Active; 'I' for Inactive)
REMARK    1  A    between atoms: C_3  and  C_4 
REMARK    2  A    between atoms: C_9  and  N_10 
REMARK       I    between atoms: N_10  and  C_11 
REMARK    3  A    between atoms: C_11  and  C_12 
REMARK    4  A    between atoms: C_14  and  C_15 
REMARK    5  A    between atoms: C_17  and  O_18 
ROOT
HETATM    1  C   UNL     1      -1.857   4.444 -31.717  1.00  0.00     0.149 A 
HETATM    2  N   UNL     1      -2.554   3.310 -31.310  1.00  0.00    -0.223 NA
HETATM    3  C   UNL     1      -3.392   3.017 -32.290  1.00  0.00     0.139 A 
HETATM    4  N   UNL     1      -3.271   3.943 -33.301  1.00  0.00    -0.342 N 
HETATM    5  H   UNL     1      -3.830   3.959 -34.143  1.00  0.00     0.167 HD
HETATM    6  C   UNL     1      -2.307   4.852 -32.958  1.00  0.00     0.041 A 
HETATM    7  C   UNL     1      -1.926   5.993 -33.822  1.00  0.00     0.071 C 
ENDROOT
BRANCH   1   8
HETATM    8  C   UNL     1      -0.811   5.075 -30.897  1.00  0.00     0.276 C 
HETATM    9  N   UNL     1      -1.348   5.995 -30.018  1.00  0.00    -0.322 N 
HETATM   10  H   UNL     1      -2.360   6.071 -30.076  1.00  0.00     0.169 HD
HETATM   11  O   UNL     1       0.372   4.781 -31.017  1.00  0.00    -0.266 OA
BRANCH   9  12
HETATM   12  C   UNL     1      -0.669   6.811 -29.095  1.00  0.00     0.035 A 
HETATM   13  C   UNL     1       0.588   7.364 -29.327  1.00  0.00     0.030 A 
HETATM   14  C   UNL     1       1.192   8.187 -28.371  1.00  0.00     0.018 A 
HETATM   15  C   UNL     1       0.550   8.466 -27.157  1.00  0.00     0.015 A 
HETATM   16  C   UNL     1      -0.716   7.904 -26.899  1.00  0.00    -0.046 A 
HETATM   17  C   UNL     1      -1.468   8.157 -25.620  1.00  0.00     0.049 C 
HETATM   18  C   UNL     1      -1.312   7.087 -27.881  1.00  0.00     0.037 A 
BRANCH  15  19
HETATM   19  C   UNL     1       1.219   9.380 -26.181  1.00  0.00     0.156 C 
HETATM   20  C   UNL     1       2.218   8.791 -25.217  1.00  0.00     0.097 C 
HETATM   21  O   UNL     1       0.981  10.585 -26.186  1.00  0.00    -0.293 OA
ENDBRANCH  15  19
ENDBRANCH   9  12
ENDBRANCH   1   8
BRANCH   3  22
HETATM   22  C   UNL     1      -4.354   1.911 -32.319  1.00  0.00     0.013 A 
HETATM   23  C   UNL     1      -5.488   2.001 -33.145  1.00  0.00     0.052 A 
HETATM   24  C   UNL     1      -6.406   0.950 -33.213  1.00  0.00     0.069 A 
HETATM   25  C   UNL     1      -6.199  -0.192 -32.438  1.00  0.00     0.037 A 
HETATM   26  C   UNL     1      -5.089  -0.291 -31.603  1.00  0.00     0.004 A 
HETATM   27  C   UNL     1      -4.169   0.757 -31.544  1.00  0.00     0.015 A 
BRANCH  24  28
HETATM   28  O   UNL     1      -7.534   0.914 -33.988  1.00  0.00    -0.356 OA
HETATM   29  C   UNL     1      -7.427   0.265 -35.248  1.00  0.00     0.210 C 
ENDBRANCH  24  28
ENDBRANCH   3  22
TORSDOF 5
ENDMDL
MODEL 4
REMARK VINA RESULT:      -8.2      3.215      5.780
REMARK  5 active torsions:
REMARK  status: ('A' for Active; 'I' for Inactive)
REMARK    1  A    between atoms: C_3  and  C_4 
REMARK    2  A    between atoms: C_9  and  N_10 
REMARK       I    between atoms: N_10  and  C_11 
REMARK    3  A    between atoms: C_11  and  C_12 
REMARK    4  A    between atoms: C_14  and  C_15 
REMARK    5  A    between atoms: C_17  and  O_18 
ROOT
HETATM    1  C   UNL     1      -7.063   1.562 -33.754  1.00  0.00     0.149 A 
HETATM    2  N   UNL     1      -8.132   2.446 -33.639  1.00  0.00    -0.223 NA
HETATM    3  C   UNL     1      -9.134   1.908 -34.314  1.00  0.00     0.139 A 
HETATM    4  N   UNL     1      -8.732   0.719 -34.879  1.00  0.00    -0.342 N 
HETATM    5  H   UNL     1      -9.304   0.136 -35.474  1.00  0.00     0.167 HD
HETATM    6  C   UNL     1      -7.428   0.483 -34.537  1.00  0.00     0.041 A 
HETATM    7  C   UNL     1      -6.677  -0.712 -34.984  1.00  0.00     0.071 C 
ENDROOT
BRANCH   1   8
HETATM    8  C   UNL     1      -5.758   1.802 -33.120  1.00  0.00     0.276 C 
HETATM    9  N   UNL     1      -5.352   3.112 -33.281  1.00  0.00    -0.322 N 
HETATM   10  H   UNL     1      -6.020   3.685 -33.792  1.00  0.00     0.169 HD
HETATM   11  O   UNL     1      -5.150   0.915 -32.532  1.00  0.00    -0.266 OA
BRANCH   9  12
HETATM   12  C   UNL     1      -4.160   3.712 -32.839  1.00  0.00     0.035 A 
HETATM   13  C   UNL     1      -3.776   3.779 -31.502  1.00  0.00     0.030 A 
HETATM   14  C   UNL     1      -2.562   4.370 -31.138  1.00  0.00     0.018 A 
HETATM   15  C   UNL     1      -1.712   4.917 -32.108  1.00  0.00     0.015 A 
HETATM   16  C   UNL     1      -2.090   4.872 -33.464  1.00  0.00    -0.046 A 
HETATM   17  C   UNL     1      -1.231   5.436 -34.564  1.00  0.00     0.049 C 
HETATM   18  C   UNL     1      -3.312   4.260 -33.810  1.00  0.00     0.037 A 
BRANCH  15  19
HETATM   19  C   UNL     1      -0.408   5.507 -31.675  1.00  0.00     0.156 C 
HETATM   20  C   UNL     1      -0.312   7.005 -31.533  1.00  0.00     0.097 C 
HETATM   21  O   UNL     1       0.551   4.786 -31.412  1.00  0.00    -0.293 OA
ENDBRANCH  15  19
ENDBRANCH   9  12
ENDBRANCH   1   8
BRANCH   3  22
HETATM   22  C   UNL     1     -10.472   2.477 -34.499  1.00  0.00     0.013 A 
HETATM   23  C   UNL     1     -11.572   1.620 -34.674  1.00  0.00     0.052 A 
HETATM   24  C   UNL     1     -12.862   2.135 -34.824  1.00  0.00     0.069 A 
HETATM   25  C   UNL     1     -13.053   3.517 -34.815  1.00  0.00     0.037 A 
HETATM   26  C   UNL     1     -11.971   4.383 -34.658  1.00  0.00     0.004 A 
HETATM   27  C   UNL     1     -10.685   3.864 -34.500  1.00  0.00     0.015 A 
BRANCH  24  28
HETATM   28  O   UNL     1     -14.008   1.405 -34.984  1.00  0.00    -0.356 OA
HETATM   29  C   UNL     1     -14.478   0.689 -33.850  1.00  0.00     0.210 C 
ENDBRANCH  24  28
ENDBRANCH   3  22
TORSDOF 5
ENDMDL
MODEL 5
REMARK VINA RESULT:      -7.9      2.893      6.840
REMARK  5 active torsions:
REMARK  status: ('A' for Active; 'I' for Inactive)
REMARK    1  A    between atoms: C_3  and  C_4 
REMARK    2  A    between atoms: C_9  and  N_10 
REMARK       I    between atoms: N_10  and  C_11 
REMARK    3  A    between atoms: C_11  and  C_12 
REMARK    4  A    between atoms: C_14  and  C_15 
REMARK    5  A    between atoms: C_17  and  O_18 
ROOT
HETATM    1  C   UNL     1      -5.904   1.214 -33.052  1.00  0.00     0.149 A 
HETATM    2  N   UNL     1      -5.989  -0.156 -33.281  1.00  0.00    -0.223 NA
HETATM    3  C   UNL     1      -4.801  -0.657 -32.987  1.00  0.00     0.139 A 
HETATM    4  N   UNL     1      -3.950   0.353 -32.600  1.00  0.00    -0.342 N 
HETATM    5  H   UNL     1      -2.976   0.231 -32.361  1.00  0.00     0.167 HD
HETATM    6  C   UNL     1      -4.627   1.542 -32.635  1.00  0.00     0.041 A 
HETATM    7  C   UNL     1      -4.005   2.839 -32.283  1.00  0.00     0.071 C 
ENDROOT
BRANCH   1   8
HETATM    8  C   UNL     1      -7.038   2.129 -33.252  1.00  0.00     0.276 C 
HETATM    9  N   UNL     1      -8.205   1.605 -32.733  1.00  0.00    -0.322 N 
HETATM   10  H   UNL     1      -8.083   0.694 -32.295  1.00  0.00     0.169 HD
HETATM   11  O   UNL     1      -6.907   3.211 -33.813  1.00  0.00    -0.266 OA
BRANCH   9  12
HETATM   12  C   UNL     1      -9.493   2.169 -32.751  1.00  0.00     0.035 A 
HETATM   13  C   UNL     1      -9.901   3.196 -31.904  1.00  0.00     0.030 A 
HETATM   14  C   UNL     1     -11.192   3.725 -31.995  1.00  0.00     0.018 A 
HETATM   15  C   UNL     1     -12.106   3.227 -32.934  1.00  0.00     0.015 A 
HETATM   16  C   UNL     1     -11.716   2.178 -33.789  1.00  0.00    -0.046 A 
HETATM   17  C   UNL     1     -12.639   1.591 -34.823  1.00  0.00     0.049 C 
HETATM   18  C   UNL     1     -10.406   1.668 -33.689  1.00  0.00     0.037 A 
BRANCH  15  19
HETATM   19  C   UNL     1     -13.463   3.849 -33.019  1.00  0.00     0.156 C 
HETATM   20  C   UNL     1     -14.581   3.240 -32.210  1.00  0.00     0.097 C 
HETATM   21  O   UNL     1     -13.654   4.847 -33.708  1.00  0.00    -0.293 OA
ENDBRANCH  15  19
ENDBRANCH   9  12
ENDBRANCH   1   8
BRANCH   3  22
HETATM   22  C   UNL     1      -4.394  -2.062 -33.086  1.00  0.00     0.013 A 
HETATM   23  C   UNL     1      -5.041  -2.908 -34.003  1.00  0.00     0.052 A 
HETATM   24  C   UNL     1      -4.654  -4.243 -34.138  1.00  0.00     0.069 A 
HETATM   25  C   UNL     1      -3.624  -4.742 -33.341  1.00  0.00     0.037 A 
HETATM   26  C   UNL     1      -2.981  -3.921 -32.416  1.00  0.00     0.004 A 
HETATM   27  C   UNL     1      -3.365  -2.586 -32.289  1.00  0.00     0.015 A 
BRANCH  24  28
HETATM   28  O   UNL     1      -5.195  -5.156 -35.002  1.00  0.00    -0.356 OA
HETATM   29  C   UNL     1      -6.400  -4.784 -35.659  1.00  0.00     0.210 C 
ENDBRANCH  24  28
ENDBRANCH   3  22
TORSDOF 5
ENDMDL
MODEL 6
REMARK VINA RESULT:      -7.8      3.440      9.611
REMARK  5 active torsions:
REMARK  status: ('A' for Active; 'I' for Inactive)
REMARK    1  A    between atoms: C_3  and  C_4 
REMARK    2  A    between atoms: C_9  and  N_10 
REMARK       I    between atoms: N_10  and  C_11 
REMARK    3  A    between atoms: C_11  and  C_12 
REMARK    4  A    between atoms: C_14  and  C_15 
REMARK    5  A    between atoms: C_17  and  O_18 
ROOT
HETATM    1  C   UNL     1      -3.249   5.103 -32.765  1.00  0.00     0.149 A 
HETATM    2  N   UNL     1      -2.911   5.432 -31.456  1.00  0.00    -0.223 NA
HETATM    3  C   UNL     1      -1.627   5.747 -31.470  1.00  0.00     0.139 A 
HETATM    4  N   UNL     1      -1.126   5.606 -32.745  1.00  0.00    -0.342 N 
HETATM    5  H   UNL     1      -0.161   5.751 -33.008  1.00  0.00     0.167 HD
HETATM    6  C   UNL     1      -2.135   5.201 -33.577  1.00  0.00     0.041 A 
HETATM    7  C   UNL     1      -1.939   4.946 -35.022  1.00  0.00     0.071 C 
ENDROOT
BRANCH   1   8
HETATM    8  C   UNL     1      -4.609   4.709 -33.163  1.00  0.00     0.276 C 
HETATM    9  N   UNL     1      -5.007   3.554 -32.520  1.00  0.00    -0.322 N 
HETATM   10  H   UNL     1      -4.309   3.183 -31.879  1.00  0.00     0.169 HD
HETATM   11  O   UNL     1      -5.264   5.362 -33.967  1.00  0.00    -0.266 OA
BRANCH   9  12
HETATM   12  C   UNL     1      -6.223   2.859 -32.656  1.00  0.00     0.035 A 
HETATM   13  C   UNL     1      -7.300   3.005 -31.785  1.00  0.00     0.030 A 
HETATM   14  C   UNL     1      -8.488   2.299 -31.997  1.00  0.00     0.018 A 
HETATM   15  C   UNL     1      -8.617   1.424 -33.084  1.00  0.00     0.015 A 
HETATM   16  C   UNL     1      -7.534   1.253 -33.967  1.00  0.00    -0.046 A 
HETATM   17  C   UNL     1      -7.596   0.333 -35.157  1.00  0.00     0.049 C 
HETATM   18  C   UNL     1      -6.350   1.984 -33.742  1.00  0.00     0.037 A 
BRANCH  15  19
HETATM   19  C   UNL     1      -9.920   0.717 -33.291  1.00  0.00     0.156 C 
HETATM   20  C   UNL     1     -10.960   1.373 -34.164  1.00  0.00     0.097 C 
HETATM   21  O   UNL     1     -10.123  -0.383 -32.784  1.00  0.00    -0.293 OA
ENDBRANCH  15  19
ENDBRANCH   9  12
ENDBRANCH   1   8
BRANCH   3  22
HETATM   22  C   UNL     1      -0.809   6.146 -30.321  1.00  0.00     0.013 A 
HETATM   23  C   UNL     1      -0.947   7.439 -29.788  1.00  0.00     0.052 A 
HETATM   24  C   UNL     1      -0.201   7.836 -28.676  1.00  0.00     0.069 A 
HETATM   25  C   UNL     1       0.702   6.940 -28.101  1.00  0.00     0.037 A 
HETATM   26  C   UNL     1       0.862   5.659 -28.626  1.00  0.00     0.004 A 
HETATM   27  C   UNL     1       0.109   5.263 -29.732  1.00  0.00     0.015 A 
BRANCH  24  28
HETATM   28  O   UNL     1      -0.259   9.056 -28.060  1.00  0.00    -0.356 OA
HETATM   29  C   UNL     1       0.709   9.313 -27.050  1.00  0.00     0.210 C 
ENDBRANCH  24  28
ENDBRANCH   3  22
TORSDOF 5
ENDMDL
MODEL 7
REMARK VINA RESULT:      -7.8      3.292      8.895
REMARK  5 active torsions:
REMARK  status: ('A' for Active; 'I' for Inactive)
REMARK    1  A    between atoms: C_3  and  C_4 
REMARK    2  A    between atoms: C_9  and  N_10 
REMARK       I    between atoms: N_10  and  C_11 
REMARK    3  A    between atoms: C_11  and  C_12 
REMARK    4  A    between atoms: C_14  and  C_15 
REMARK    5  A    between atoms: C_17  and  O_18 
ROOT
HETATM    1  C   UNL     1      -4.837   2.188 -32.648  1.00  0.00     0.149 A 
HETATM    2  N   UNL     1      -4.310   3.423 -33.014  1.00  0.00    -0.223 NA
HETATM    3  C   UNL     1      -3.220   3.594 -32.285  1.00  0.00     0.139 A 
HETATM    4  N   UNL     1      -3.046   2.517 -31.445  1.00  0.00    -0.342 N 
HETATM    5  H   UNL     1      -2.307   2.427 -30.762  1.00  0.00     0.167 HD
HETATM    6  C   UNL     1      -4.056   1.618 -31.659  1.00  0.00     0.041 A 
HETATM    7  C   UNL     1      -4.178   0.344 -30.915  1.00  0.00     0.071 C 
ENDROOT
BRANCH   1   8
HETATM    8  C   UNL     1      -6.054   1.628 -33.255  1.00  0.00     0.276 C 
HETATM    9  N   UNL     1      -7.171   2.363 -32.912  1.00  0.00    -0.322 N 
HETATM   10  H   UNL     1      -6.966   3.162 -32.318  1.00  0.00     0.169 HD
HETATM   11  O   UNL     1      -6.023   0.633 -33.970  1.00  0.00    -0.266 OA
BRANCH   9  12
HETATM   12  C   UNL     1      -8.510   2.128 -33.276  1.00  0.00     0.035 A 
HETATM   13  C   UNL     1      -9.220   0.986 -32.918  1.00  0.00     0.030 A 
HETATM   14  C   UNL     1     -10.558   0.832 -33.296  1.00  0.00     0.018 A 
HETATM   15  C   UNL     1     -11.208   1.819 -34.050  1.00  0.00     0.015 A 
HETATM   16  C   UNL     1     -10.500   2.974 -34.434  1.00  0.00    -0.046 A 
HETATM   17  C   UNL     1     -11.129   4.077 -35.242  1.00  0.00     0.049 C 
HETATM   18  C   UNL     1      -9.157   3.115 -34.031  1.00  0.00     0.037 A 
BRANCH  15  19
HETATM   19  C   UNL     1     -12.649   1.626 -34.400  1.00  0.00     0.156 C 
HETATM   20  C   UNL     1     -13.688   1.917 -33.346  1.00  0.00     0.097 C 
HETATM   21  O   UNL     1     -12.978   1.267 -35.528  1.00  0.00    -0.293 OA
ENDBRANCH  15  19
ENDBRANCH   9  12
ENDBRANCH   1   8
BRANCH   3  22
HETATM   22  C   UNL     1      -2.328   4.757 -32.301  1.00  0.00     0.013 A 
HETATM   23  C   UNL     1      -1.374   4.913 -31.281  1.00  0.00     0.052 A 
HETATM   24  C   UNL     1      -0.493   5.997 -31.287  1.00  0.00     0.069 A 
HETATM   25  C   UNL     1      -0.575   6.941 -32.312  1.00  0.00     0.037 A 
HETATM   26  C   UNL     1      -1.525   6.810 -33.323  1.00  0.00     0.004 A 
HETATM   27  C   UNL     1      -2.398   5.721 -33.318  1.00  0.00     0.015 A 
BRANCH  24  28
HETATM   28  O   UNL     1       0.485   6.247 -30.363  1.00  0.00    -0.356 OA
HETATM   29  C   UNL     1       0.527   5.395 -29.225  1.00  0.00     0.210 C 
ENDBRANCH  24  28
ENDBRANCH   3  22
TORSDOF 5
ENDMDL
MODEL 8
REMARK VINA RESULT:      -7.6      2.722      4.592
REMARK  5 active torsions:
REMARK  status: ('A' for Active; 'I' for Inactive)
REMARK    1  A    between atoms: C_3  and  C_4 
REMARK    2  A    between atoms: C_9  and  N_10 
REMARK       I    between atoms: N_10  and  C_11 
REMARK    3  A    between atoms: C_11  and  C_12 
REMARK    4  A    between atoms: C_14  and  C_15 
REMARK    5  A    between atoms: C_17  and  O_18 
ROOT
HETATM    1  C   UNL     1      -3.384   4.120 -32.409  1.00  0.00     0.149 A 
HETATM    2  N   UNL     1      -3.467   2.733 -32.471  1.00  0.00    -0.223 NA
HETATM    3  C   UNL     1      -4.677   2.452 -32.924  1.00  0.00     0.139 A 
HETATM    4  N   UNL     1      -5.381   3.617 -33.131  1.00  0.00    -0.342 N 
HETATM    5  H   UNL     1      -6.342   3.668 -33.439  1.00  0.00     0.167 HD
HETATM    6  C   UNL     1      -4.581   4.681 -32.812  1.00  0.00     0.041 A 
HETATM    7  C   UNL     1      -5.029   6.089 -32.914  1.00  0.00     0.071 C 
ENDROOT
BRANCH   1   8
HETATM    8  C   UNL     1      -2.173   4.828 -31.964  1.00  0.00     0.276 C 
HETATM    9  N   UNL     1      -2.271   5.208 -30.640  1.00  0.00    -0.322 N 
HETATM   10  H   UNL     1      -3.143   4.927 -30.199  1.00  0.00     0.169 HD
HETATM   11  O   UNL     1      -1.226   5.026 -32.715  1.00  0.00    -0.266 OA
BRANCH   9  12
HETATM   12  C   UNL     1      -1.333   5.919 -29.870  1.00  0.00     0.035 A 
HETATM   13  C   UNL     1      -0.076   5.425 -29.531  1.00  0.00     0.030 A 
HETATM   14  C   UNL     1       0.815   6.200 -28.782  1.00  0.00     0.018 A 
HETATM   15  C   UNL     1       0.460   7.485 -28.349  1.00  0.00     0.015 A 
HETATM   16  C   UNL     1      -0.813   7.995 -28.671  1.00  0.00    -0.046 A 
HETATM   17  C   UNL     1      -1.268   9.365 -28.244  1.00  0.00     0.049 C 
HETATM   18  C   UNL     1      -1.691   7.202 -29.438  1.00  0.00     0.037 A 
BRANCH  15  19
HETATM   19  C   UNL     1       1.459   8.290 -27.581  1.00  0.00     0.156 C 
HETATM   20  C   UNL     1       1.756   7.893 -26.157  1.00  0.00     0.097 C 
HETATM   21  O   UNL     1       2.043   9.232 -28.109  1.00  0.00    -0.293 OA
ENDBRANCH  15  19
ENDBRANCH   9  12
ENDBRANCH   1   8
BRANCH   3  22
HETATM   22  C   UNL     1      -5.244   1.118 -33.143  1.00  0.00     0.013 A 
HETATM   23  C   UNL     1      -4.396  -0.003 -33.148  1.00  0.00     0.052 A 
HETATM   24  C   UNL     1      -4.912  -1.288 -33.327  1.00  0.00     0.069 A 
HETATM   25  C   UNL     1      -6.284  -1.455 -33.518  1.00  0.00     0.037 A 
HETATM   26  C   UNL     1      -7.138  -0.353 -33.531  1.00  0.00     0.004 A 
HETATM   27  C   UNL     1      -6.619   0.928 -33.344  1.00  0.00     0.015 A 
BRANCH  24  28
HETATM   28  O   UNL     1      -4.192  -2.452 -33.335  1.00  0.00    -0.356 OA
HETATM   29  C   UNL     1      -4.531  -3.410 -34.331  1.00  0.00     0.210 C 
ENDBRANCH  24  28
ENDBRANCH   3  22
TORSDOF 5
ENDMDL
MODEL 9
REMARK VINA RESULT:      -7.6      5.135      9.505
REMARK  5 active torsions:
REMARK  status: ('A' for Active; 'I' for Inactive)
REMARK    1  A    between atoms: C_3  and  C_4 
REMARK    2  A    between atoms: C_9  and  N_10 
REMARK       I    between atoms: N_10  and  C_11 
REMARK    3  A    between atoms: C_11  and  C_12 
REMARK    4  A    between atoms: C_14  and  C_15 
REMARK    5  A    between atoms: C_17  and  O_18 
ROOT
HETATM    1  C   UNL     1     -11.555   2.175 -34.330  1.00  0.00     0.149 A 
HETATM    2  N   UNL     1     -11.179   3.463 -34.697  1.00  0.00    -0.223 NA
HETATM    3  C   UNL     1     -12.292   4.098 -35.022  1.00  0.00     0.139 A 
HETATM    4  N   UNL     1     -13.368   3.248 -34.899  1.00  0.00    -0.342 N 
HETATM    5  H   UNL     1     -14.324   3.485 -35.125  1.00  0.00     0.167 HD
HETATM    6  C   UNL     1     -12.924   2.029 -34.462  1.00  0.00     0.041 A 
HETATM    7  C   UNL     1     -13.822   0.876 -34.228  1.00  0.00     0.071 C 
ENDROOT
BRANCH   1   8
HETATM    8  C   UNL     1     -10.590   1.158 -33.883  1.00  0.00     0.276 C 
HETATM    9  N   UNL     1      -9.350   1.354 -34.458  1.00  0.00    -0.322 N 
HETATM   10  H   UNL     1      -9.310   2.163 -35.074  1.00  0.00     0.169 HD
HETATM   11  O   UNL     1     -10.900   0.272 -33.096  1.00  0.00    -0.266 OA
BRANCH   9  12
HETATM   12  C   UNL     1      -8.186   0.581 -34.296  1.00  0.00     0.035 A 
HETATM   13  C   UNL     1      -7.521  -0.046 -35.346  1.00  0.00     0.030 A 
HETATM   14  C   UNL     1      -6.353  -0.779 -35.112  1.00  0.00     0.018 A 
HETATM   15  C   UNL     1      -5.834  -0.906 -33.817  1.00  0.00     0.015 A 
HETATM   16  C   UNL     1      -6.502  -0.291 -32.740  1.00  0.00    -0.046 A 
HETATM   17  C   UNL     1      -6.006  -0.380 -31.322  1.00  0.00     0.049 C 
HETATM   18  C   UNL     1      -7.670   0.454 -33.000  1.00  0.00     0.037 A 
BRANCH  15  19
HETATM   19  C   UNL     1      -4.563  -1.671 -33.621  1.00  0.00     0.156 C 
HETATM   20  C   UNL     1      -4.555  -3.143 -33.948  1.00  0.00     0.097 C 
HETATM   21  O   UNL     1      -3.546  -1.105 -33.231  1.00  0.00    -0.293 OA
ENDBRANCH  15  19
ENDBRANCH   9  12
ENDBRANCH   1   8
BRANCH   3  22
HETATM   22  C   UNL     1     -12.407   5.482 -35.493  1.00  0.00     0.013 A 
HETATM   23  C   UNL     1     -11.318   6.357 -35.344  1.00  0.00     0.052 A 
HETATM   24  C   UNL     1     -11.390   7.672 -35.809  1.00  0.00     0.069 A 
HETATM   25  C   UNL     1     -12.565   8.122 -36.413  1.00  0.00     0.037 A 
HETATM   26  C   UNL     1     -13.660   7.272 -36.555  1.00  0.00     0.004 A 
HETATM   27  C   UNL     1     -13.581   5.956 -36.097  1.00  0.00     0.015 A 
BRANCH  24  28
HETATM   28  O   UNL     1     -10.395   8.609 -35.736  1.00  0.00    -0.356 OA
HETATM   29  C   UNL     1     -10.217   9.447 -36.871  1.00  0.00     0.210 C 
ENDBRANCH  24  28
ENDBRANCH   3  22
TORSDOF 5
ENDMDL
MODEL 10
REMARK VINA RESULT:      -7.5      3.657     10.676
REMARK  5 active torsions:
REMARK  status: ('A' for Active; 'I' for Inactive)
REMARK    1  A    between atoms: C_3  and  C_4 
REMARK    2  A    between atoms: C_9  and  N_10 
REMARK       I    between atoms: N_10  and  C_11 
REMARK    3  A    between atoms: C_11  and  C_12 
REMARK    4  A    between atoms: C_14  and  C_15 
REMARK    5  A    between atoms: C_17  and  O_18 
ROOT
HETATM    1  C   UNL     1      -1.938   6.007 -31.314  1.00  0.00     0.149 A 
HETATM    2  N   UNL     1      -1.469   6.258 -30.027  1.00  0.00    -0.223 NA
HETATM    3  C   UNL     1      -0.959   7.478 -30.048  1.00  0.00     0.139 A 
HETATM    4  N   UNL     1      -1.063   8.007 -31.314  1.00  0.00    -0.342 N 
HETATM    5  H   UNL     1      -0.711   8.911 -31.596  1.00  0.00     0.167 HD
HETATM    6  C   UNL     1      -1.679   7.094 -32.128  1.00  0.00     0.041 A 
HETATM    7  C   UNL     1      -1.944   7.339 -33.564  1.00  0.00     0.071 C 
ENDROOT
BRANCH   1   8
HETATM    8  C   UNL     1      -2.596   4.748 -31.692  1.00  0.00     0.276 C 
HETATM    9  N   UNL     1      -3.950   4.788 -31.428  1.00  0.00    -0.322 N 
HETATM   10  H   UNL     1      -4.262   5.673 -31.034  1.00  0.00     0.169 HD
HETATM   11  O   UNL     1      -1.973   3.812 -32.179  1.00  0.00    -0.266 OA
BRANCH   9  12
HETATM   12  C   UNL     1      -4.905   3.775 -31.629  1.00  0.00     0.035 A 
HETATM   13  C   UNL     1      -5.774   3.735 -32.717  1.00  0.00     0.030 A 
HETATM   14  C   UNL     1      -6.682   2.682 -32.864  1.00  0.00     0.018 A 
HETATM   15  C   UNL     1      -6.743   1.650 -31.918  1.00  0.00     0.015 A 
HETATM   16  C   UNL     1      -5.881   1.681 -30.804  1.00  0.00    -0.046 A 
HETATM   17  C   UNL     1      -5.886   0.610 -29.747  1.00  0.00     0.049 C 
HETATM   18  C   UNL     1      -4.965   2.745 -30.681  1.00  0.00     0.037 A 
BRANCH  15  19
HETATM   19  C   UNL     1      -7.705   0.526 -32.137  1.00  0.00     0.156 C 
HETATM   20  C   UNL     1      -7.307  -0.585 -33.075  1.00  0.00     0.097 C 
HETATM   21  O   UNL     1      -8.780   0.497 -31.544  1.00  0.00    -0.293 OA
ENDBRANCH  15  19
ENDBRANCH   9  12
ENDBRANCH   1   8
BRANCH   3  22
HETATM   22  C   UNL     1      -0.326   8.182 -28.929  1.00  0.00     0.013 A 
HETATM   23  C   UNL     1      -1.054   9.151 -28.218  1.00  0.00     0.052 A 
HETATM   24  C   UNL     1      -0.486   9.817 -27.130  1.00  0.00     0.069 A 
HETATM   25  C   UNL     1       0.827   9.524 -26.759  1.00  0.00     0.037 A 
HETATM   26  C   UNL     1       1.570   8.577 -27.461  1.00  0.00     0.004 A 
HETATM   27  C   UNL     1       0.995   7.908 -28.542  1.00  0.00     0.015 A 
BRANCH  24  28
HETATM   28  O   UNL     1      -1.097  10.764 -26.355  1.00  0.00    -0.356 OA
HETATM   29  C   UNL     1      -1.106  10.537 -24.951  1.00  0.00     0.210 C 
ENDBRANCH  24  28
ENDBRANCH   3  22
TORSDOF 5
ENDMDL
