MODEL 1
REMARK VINA RESULT:      -7.9      0.000      0.000
REMARK  6 active torsions:
REMARK  status: ('A' for Active; 'I' for Inactive)
REMARK    1  A    between atoms: C_2  and  C_3 
REMARK    2  A    between atoms: C_3  and  O_4 
REMARK    3  A    between atoms: C_3  and  C_12 
REMARK    4  A    between atoms: O_4  and  C_5 
REMARK    5  A    between atoms: C_12  and  N_13 
REMARK       I    between atoms: N_13  and  C_14 
REMARK       I    between atoms: C_14  and  N_15 
REMARK    6  A    between atoms: N_15  and  C_16 
ROOT
HETATM    1  N   UNL     1      -3.637   0.666 -32.562  1.00  0.00    -0.340 N 
HETATM    2  C   UNL     1      -4.190  -0.590 -32.561  1.00  0.00     0.320 C 
HETATM    3  N   UNL     1      -4.076  -1.190 -33.795  1.00  0.00    -0.307 N 
HETATM    4  O   UNL     1      -4.713  -1.105 -31.582  1.00  0.00    -0.247 OA
HETATM    5  H   UNL     1      -3.315   1.031 -33.446  1.00  0.00     0.164 HD
HETATM    6  H   UNL     1      -3.250  -0.949 -34.316  1.00  0.00     0.170 HD
ENDROOT
BRANCH   1   7
HETATM    7  C   UNL     1      -3.349   1.470 -31.379  1.00  0.00     0.156 C 
BRANCH   7   8
HETATM    8  C   UNL     1      -3.520   3.003 -31.451  1.00  0.00     0.146 C 
BRANCH   8   9
HETATM    9  C   UNL     1      -4.974   3.479 -31.290  1.00  0.00     0.029 C 
HETATM   10  C   UNL     1      -5.817   2.631 -30.347  1.00  0.00     0.007 C 
ENDBRANCH   8   9
BRANCH   8  11
HETATM   11  O   UNL     1      -3.029   3.404 -32.743  1.00  0.00    -0.343 OA
BRANCH  11  12
HETATM   12  C   UNL     1      -2.370   4.595 -32.892  1.00  0.00     0.091 A 
HETATM   13  C   UNL     1      -2.829   5.438 -33.918  1.00  0.00     0.067 A 
HETATM   14 CL   UNL     1      -4.169   4.990 -34.919  1.00  0.00    -0.081 Cl
HETATM   15  C   UNL     1      -2.215   6.670 -34.165  1.00  0.00     0.026 A 
HETATM   16  C   UNL     1      -1.133   7.077 -33.390  1.00  0.00     0.002 A 
HETATM   17  C   UNL     1      -0.675   6.255 -32.362  1.00  0.00     0.003 A 
HETATM   18  C   UNL     1      -1.294   5.026 -32.110  1.00  0.00     0.038 A 
ENDBRANCH  11  12
ENDBRANCH   8  11
ENDBRANCH   7   8
ENDBRANCH   1   7
BRANCH   3  19
HETATM   19  C   UNL     1      -4.781  -2.350 -34.192  1.00  0.00     0.059 A 
HETATM   20  C   UNL     1      -6.116  -2.257 -34.620  1.00  0.00    -0.032 A 
HETATM   21  C   UNL     1      -6.823  -0.943 -34.786  1.00  0.00     0.050 C 
HETATM   22  C   UNL     1      -6.795  -3.439 -34.949  1.00  0.00     0.028 A 
HETATM   23  C   UNL     1      -6.138  -4.655 -34.835  1.00  0.00     0.117 A 
HETATM   24  N   UNL     1      -4.863  -4.777 -34.426  1.00  0.00    -0.271 NA
HETATM   25  C   UNL     1      -4.213  -3.626 -34.121  1.00  0.00     0.146 A 
ENDBRANCH   3  19
TORSDOF 6
ENDMDL
MODEL 2
REMARK VINA RESULT:      -7.7      2.495      8.495
REMARK  6 active torsions:
REMARK  status: ('A' for Active; 'I' for Inactive)
REMARK    1  A    between atoms: C_2  and  C_3 
REMARK    2  A    between atoms: C_3  and  O_4 
REMARK    3  A    between atoms: C_3  and  C_12 
REMARK    4  A    between atoms: O_4  and  C_5 
REMARK    5  A    between atoms: C_12  and  N_13 
REMARK       I    between atoms: N_13  and  C_14 
REMARK       I    between atoms: C_14  and  N_15 
REMARK    6  A    between atoms: N_15  and  C_16 
ROOT
HETATM    1  N   UNL     1      -3.860   1.971 -32.406  1.00  0.00    -0.340 N 
HETATM    2  C   UNL     1      -3.825   3.325 -32.634  1.00  0.00     0.320 C 
HETATM    3  N   UNL     1      -2.546   3.821 -32.516  1.00  0.00    -0.307 N 
HETATM    4  O   UNL     1      -4.809   3.996 -32.910  1.00  0.00    -0.247 OA
HETATM    5  H   UNL     1      -3.007   1.531 -32.095  1.00  0.00     0.164 HD
HETATM    6  H   UNL     1      -1.812   3.192 -32.798  1.00  0.00     0.170 HD
ENDROOT
BRANCH   1   7
HETATM    7  C   UNL     1      -4.982   1.088 -32.701  1.00  0.00     0.156 C 
BRANCH   7   8
HETATM    8  C   UNL     1      -4.836  -0.427 -32.444  1.00  0.00     0.146 C 
BRANCH   8   9
HETATM    9  C   UNL     1      -3.813  -0.781 -31.350  1.00  0.00     0.029 C 
HETATM   10  C   UNL     1      -2.393  -0.996 -31.858  1.00  0.00     0.007 C 
ENDBRANCH   8   9
BRANCH   8  11
HETATM   11  O   UNL     1      -4.417  -1.010 -33.691  1.00  0.00    -0.343 OA
BRANCH  11  12
HETATM   12  C   UNL     1      -4.870  -2.248 -34.062  1.00  0.00     0.091 A 
HETATM   13  C   UNL     1      -6.157  -2.298 -34.624  1.00  0.00     0.067 A 
HETATM   14 CL   UNL     1      -7.099  -0.862 -34.847  1.00  0.00    -0.081 Cl
HETATM   15  C   UNL     1      -6.720  -3.515 -35.022  1.00  0.00     0.026 A 
HETATM   16  C   UNL     1      -6.006  -4.699 -34.863  1.00  0.00     0.002 A 
HETATM   17  C   UNL     1      -4.725  -4.661 -34.317  1.00  0.00     0.003 A 
HETATM   18  C   UNL     1      -4.157  -3.444 -33.926  1.00  0.00     0.038 A 
ENDBRANCH  11  12
ENDBRANCH   8  11
ENDBRANCH   7   8
ENDBRANCH   1   7
BRANCH   3  19
HETATM   19  C   UNL     1      -2.223   5.194 -32.415  1.00  0.00     0.059 A 
HETATM   20  C   UNL     1      -1.675   5.877 -33.515  1.00  0.00    -0.032 A 
HETATM   21  C   UNL     1      -1.508   5.237 -34.862  1.00  0.00     0.050 C 
HETATM   22  C   UNL     1      -1.316   7.222 -33.353  1.00  0.00     0.028 A 
HETATM   23  C   UNL     1      -1.502   7.832 -32.121  1.00  0.00     0.117 A 
HETATM   24  N   UNL     1      -2.021   7.206 -31.050  1.00  0.00    -0.271 NA
HETATM   25  C   UNL     1      -2.375   5.908 -31.222  1.00  0.00     0.146 A 
ENDBRANCH   3  19
TORSDOF 6
ENDMDL
MODEL 3
REMARK VINA RESULT:      -7.6      5.271      8.564
REMARK  6 active torsions:
REMARK  status: ('A' for Active; 'I' for Inactive)
REMARK    1  A    between atoms: C_2  and  C_3 
REMARK    2  A    between atoms: C_3  and  O_4 
REMARK    3  A    between atoms: C_3  and  C_12 
REMARK    4  A    between atoms: O_4  and  C_5 
REMARK    5  A    between atoms: C_12  and  N_13 
REMARK       I    between atoms: N_13  and  C_14 
REMARK       I    between atoms: C_14  and  N_15 
REMARK    6  A    between atoms: N_15  and  C_16 
ROOT
HETATM    1  N   UNL     1      -9.006   1.200 -34.713  1.00  0.00    -0.340 N 
HETATM    2  C   UNL     1     -10.142   1.141 -33.943  1.00  0.00     0.320 C 
HETATM    3  N   UNL     1     -10.908   2.276 -34.091  1.00  0.00    -0.307 N 
HETATM    4  O   UNL     1     -10.430   0.195 -33.224  1.00  0.00    -0.247 OA
HETATM    5  H   UNL     1      -8.819   2.065 -35.197  1.00  0.00     0.164 HD
HETATM    6  H   UNL     1     -10.878   2.700 -35.003  1.00  0.00     0.170 HD
ENDROOT
BRANCH   1   7
HETATM    7  C   UNL     1      -8.115   0.082 -35.001  1.00  0.00     0.156 C 
BRANCH   7   8
HETATM    8  C   UNL     1      -7.230  -0.485 -33.871  1.00  0.00     0.146 C 
BRANCH   8   9
HETATM    9  C   UNL     1      -6.892   0.534 -32.769  1.00  0.00     0.029 C 
HETATM   10  C   UNL     1      -6.477  -0.087 -31.440  1.00  0.00     0.007 C 
ENDBRANCH   8   9
BRANCH   8  11
HETATM   11  O   UNL     1      -6.012  -0.928 -34.496  1.00  0.00    -0.343 OA
BRANCH  11  12
HETATM   12  C   UNL     1      -5.645  -2.246 -34.438  1.00  0.00     0.091 A 
HETATM   13  C   UNL     1      -4.428  -2.528 -33.793  1.00  0.00     0.067 A 
HETATM   14 CL   UNL     1      -3.465  -1.268 -33.098  1.00  0.00    -0.081 Cl
HETATM   15  C   UNL     1      -3.955  -3.840 -33.694  1.00  0.00     0.026 A 
HETATM   16  C   UNL     1      -4.691  -4.890 -34.237  1.00  0.00     0.002 A 
HETATM   17  C   UNL     1      -5.904  -4.625 -34.869  1.00  0.00     0.003 A 
HETATM   18  C   UNL     1      -6.382  -3.313 -34.963  1.00  0.00     0.038 A 
ENDBRANCH  11  12
ENDBRANCH   8  11
ENDBRANCH   7   8
ENDBRANCH   1   7
BRANCH   3  19
HETATM   19  C   UNL     1     -11.975   2.641 -33.238  1.00  0.00     0.059 A 
HETATM   20  C   UNL     1     -13.270   2.147 -33.471  1.00  0.00    -0.032 A 
HETATM   21  C   UNL     1     -13.571   1.140 -34.542  1.00  0.00     0.050 C 
HETATM   22  C   UNL     1     -14.309   2.581 -32.636  1.00  0.00     0.028 A 
HETATM   23  C   UNL     1     -14.034   3.483 -31.619  1.00  0.00     0.117 A 
HETATM   24  N   UNL     1     -12.807   3.976 -31.373  1.00  0.00    -0.271 NA
HETATM   25  C   UNL     1     -11.807   3.540 -32.180  1.00  0.00     0.146 A 
ENDBRANCH   3  19
TORSDOF 6
ENDMDL
MODEL 4
REMARK VINA RESULT:      -7.5      2.763      8.240
REMARK  6 active torsions:
REMARK  status: ('A' for Active; 'I' for Inactive)
REMARK    1  A    between atoms: C_2  and  C_3 
REMARK    2  A    between atoms: C_3  and  O_4 
REMARK    3  A    between atoms: C_3  and  C_12 
REMARK    4  A    between atoms: O_4  and  C_5 
REMARK    5  A    between atoms: C_12  and  N_13 
REMARK       I    between atoms: N_13  and  C_14 
REMARK       I    between atoms: C_14  and  N_15 
REMARK    6  A    between atoms: N_15  and  C_16 
ROOT
HETATM    1  N   UNL     1      -4.783   2.441 -32.752  1.00  0.00    -0.340 N 
HETATM    2  C   UNL     1      -4.311   3.724 -32.889  1.00  0.00     0.320 C 
HETATM    3  N   UNL     1      -2.959   3.790 -32.633  1.00  0.00    -0.307 N 
HETATM    4  O   UNL     1      -5.008   4.679 -33.201  1.00  0.00    -0.247 OA
HETATM    5  H   UNL     1      -4.143   1.746 -32.400  1.00  0.00     0.164 HD
HETATM    6  H   UNL     1      -2.431   2.974 -32.894  1.00  0.00     0.170 HD
ENDROOT
BRANCH   1   7
HETATM    7  C   UNL     1      -6.089   1.965 -33.196  1.00  0.00     0.156 C 
BRANCH   7   8
HETATM    8  C   UNL     1      -6.457   0.480 -32.991  1.00  0.00     0.146 C 
BRANCH   8   9
HETATM    9  C   UNL     1      -7.187   0.191 -31.668  1.00  0.00     0.029 C 
HETATM   10  C   UNL     1      -6.271   0.045 -30.459  1.00  0.00     0.007 C 
ENDBRANCH   8   9
BRANCH   8  11
HETATM   11  O   UNL     1      -5.218  -0.251 -33.018  1.00  0.00    -0.343 OA
BRANCH  11  12
HETATM   12  C   UNL     1      -5.170  -1.512 -33.551  1.00  0.00     0.091 A 
HETATM   13  C   UNL     1      -4.114  -2.332 -33.121  1.00  0.00     0.067 A 
HETATM   14 CL   UNL     1      -2.954  -1.773 -31.963  1.00  0.00    -0.081 Cl
HETATM   15  C   UNL     1      -3.966  -3.631 -33.616  1.00  0.00     0.026 A 
HETATM   16  C   UNL     1      -4.870  -4.129 -34.550  1.00  0.00     0.002 A 
HETATM   17  C   UNL     1      -5.928  -3.329 -34.977  1.00  0.00     0.003 A 
HETATM   18  C   UNL     1      -6.082  -2.032 -34.476  1.00  0.00     0.038 A 
ENDBRANCH  11  12
ENDBRANCH   8  11
ENDBRANCH   7   8
ENDBRANCH   1   7
BRANCH   3  19
HETATM   19  C   UNL     1      -2.241   4.989 -32.418  1.00  0.00     0.059 A 
HETATM   20  C   UNL     1      -1.579   5.621 -33.484  1.00  0.00    -0.032 A 
HETATM   21  C   UNL     1      -1.684   5.138 -34.901  1.00  0.00     0.050 C 
HETATM   22  C   UNL     1      -0.830   6.775 -33.213  1.00  0.00     0.028 A 
HETATM   23  C   UNL     1      -0.758   7.250 -31.912  1.00  0.00     0.117 A 
HETATM   24  N   UNL     1      -1.377   6.667 -30.871  1.00  0.00    -0.271 NA
HETATM   25  C   UNL     1      -2.107   5.557 -31.147  1.00  0.00     0.146 A 
ENDBRANCH   3  19
TORSDOF 6
ENDMDL
MODEL 5
REMARK VINA RESULT:      -7.3      2.939      7.948
REMARK  6 active torsions:
REMARK  status: ('A' for Active; 'I' for Inactive)
REMARK    1  A    between atoms: C_2  and  C_3 
REMARK    2  A    between atoms: C_3  and  O_4 
REMARK    3  A    between atoms: C_3  and  C_12 
REMARK    4  A    between atoms: O_4  and  C_5 
REMARK    5  A    between atoms: C_12  and  N_13 
REMARK       I    between atoms: N_13  and  C_14 
REMARK       I    between atoms: C_14  and  N_15 
REMARK    6  A    between atoms: N_15  and  C_16 
ROOT
HETATM    1  N   UNL     1      -6.115   2.981 -33.007  1.00  0.00    -0.340 N 
HETATM    2  C   UNL     1      -5.274   3.892 -33.598  1.00  0.00     0.320 C 
HETATM    3  N   UNL     1      -4.015   3.848 -33.043  1.00  0.00    -0.307 N 
HETATM    4  O   UNL     1      -5.610   4.642 -34.504  1.00  0.00    -0.247 OA
HETATM    5  H   UNL     1      -5.763   2.478 -32.206  1.00  0.00     0.164 HD
HETATM    6  H   UNL     1      -3.715   2.940 -32.728  1.00  0.00     0.170 HD
ENDROOT
BRANCH   1   7
HETATM    7  C   UNL     1      -7.422   2.578 -33.512  1.00  0.00     0.156 C 
BRANCH   7   8
HETATM    8  C   UNL     1      -7.889   1.120 -33.312  1.00  0.00     0.146 C 
BRANCH   8   9
HETATM    9  C   UNL     1      -9.090   0.972 -32.362  1.00  0.00     0.029 C 
HETATM   10  C   UNL     1     -10.132  -0.045 -32.813  1.00  0.00     0.007 C 
ENDBRANCH   8   9
BRANCH   8  11
HETATM   11  O   UNL     1      -6.765   0.406 -32.769  1.00  0.00    -0.343 OA
BRANCH  11  12
HETATM   12  C   UNL     1      -6.298  -0.722 -33.388  1.00  0.00     0.091 A 
HETATM   13  C   UNL     1      -4.909  -0.932 -33.341  1.00  0.00     0.067 A 
HETATM   14 CL   UNL     1      -3.859   0.176 -32.522  1.00  0.00    -0.081 Cl
HETATM   15  C   UNL     1      -4.329  -2.045 -33.956  1.00  0.00     0.026 A 
HETATM   16  C   UNL     1      -5.128  -2.966 -34.628  1.00  0.00     0.002 A 
HETATM   17  C   UNL     1      -6.507  -2.776 -34.674  1.00  0.00     0.003 A 
HETATM   18  C   UNL     1      -7.089  -1.666 -34.052  1.00  0.00     0.038 A 
ENDBRANCH  11  12
ENDBRANCH   8  11
ENDBRANCH   7   8
ENDBRANCH   1   7
BRANCH   3  19
HETATM   19  C   UNL     1      -3.018   4.833 -33.233  1.00  0.00     0.059 A 
HETATM   20  C   UNL     1      -2.869   5.878 -32.306  1.00  0.00    -0.032 A 
HETATM   21  C   UNL     1      -3.660   5.950 -31.033  1.00  0.00     0.050 C 
HETATM   22  C   UNL     1      -1.907   6.866 -32.564  1.00  0.00     0.028 A 
HETATM   23  C   UNL     1      -1.145   6.787 -33.720  1.00  0.00     0.117 A 
HETATM   24  N   UNL     1      -1.266   5.802 -34.627  1.00  0.00    -0.271 NA
HETATM   25  C   UNL     1      -2.192   4.846 -34.361  1.00  0.00     0.146 A 
ENDBRANCH   3  19
TORSDOF 6
ENDMDL
MODEL 6
REMARK VINA RESULT:      -7.2      4.600      7.724
REMARK  6 active torsions:
REMARK  status: ('A' for Active; 'I' for Inactive)
REMARK    1  A    between atoms: C_2  and  C_3 
REMARK    2  A    between atoms: C_3  and  O_4 
REMARK    3  A    between atoms: C_3  and  C_12 
REMARK    4  A    between atoms: O_4  and  C_5 
REMARK    5  A    between atoms: C_12  and  N_13 
REMARK       I    between atoms: N_13  and  C_14 
REMARK       I    between atoms: C_14  and  N_15 
REMARK    6  A    between atoms: N_15  and  C_16 
ROOT
HETATM    1  N   UNL     1      -7.549   1.112 -32.885  1.00  0.00    -0.340 N 
HETATM    2  C   UNL     1      -8.618   0.953 -33.734  1.00  0.00     0.320 C 
HETATM    3  N   UNL     1      -9.729   1.622 -33.272  1.00  0.00    -0.307 N 
HETATM    4  O   UNL     1      -8.577   0.302 -34.768  1.00  0.00    -0.247 OA
HETATM    5  H   UNL     1      -7.717   1.591 -32.014  1.00  0.00     0.164 HD
HETATM    6  H   UNL     1      -9.541   2.474 -32.770  1.00  0.00     0.170 HD
ENDROOT
BRANCH   1   7
HETATM    7  C   UNL     1      -6.165   0.768 -33.188  1.00  0.00     0.156 C 
BRANCH   7   8
HETATM    8  C   UNL     1      -5.504  -0.416 -32.450  1.00  0.00     0.146 C 
BRANCH   8   9
HETATM    9  C   UNL     1      -4.731  -0.011 -31.183  1.00  0.00     0.029 C 
HETATM   10  C   UNL     1      -3.651   1.039 -31.409  1.00  0.00     0.007 C 
ENDBRANCH   8   9
BRANCH   8  11
HETATM   11  O   UNL     1      -4.595  -1.021 -33.387  1.00  0.00    -0.343 OA
BRANCH  11  12
HETATM   12  C   UNL     1      -4.811  -2.296 -33.834  1.00  0.00     0.091 A 
HETATM   13  C   UNL     1      -4.021  -3.304 -33.253  1.00  0.00     0.067 A 
HETATM   14 CL   UNL     1      -2.857  -2.938 -32.025  1.00  0.00    -0.081 Cl
HETATM   15  C   UNL     1      -4.152  -4.638 -33.651  1.00  0.00     0.026 A 
HETATM   16  C   UNL     1      -5.073  -4.985 -34.635  1.00  0.00     0.002 A 
HETATM   17  C   UNL     1      -5.870  -3.997 -35.212  1.00  0.00     0.003 A 
HETATM   18  C   UNL     1      -5.745  -2.663 -34.809  1.00  0.00     0.038 A 
ENDBRANCH  11  12
ENDBRANCH   8  11
ENDBRANCH   7   8
ENDBRANCH   1   7
BRANCH   3  19
HETATM   19  C   UNL     1     -11.042   1.429 -33.760  1.00  0.00     0.059 A 
HETATM   20  C   UNL     1     -11.647   2.403 -34.572  1.00  0.00    -0.032 A 
HETATM   21  C   UNL     1     -10.916   3.623 -35.052  1.00  0.00     0.050 C 
HETATM   22  C   UNL     1     -12.972   2.199 -34.984  1.00  0.00     0.028 A 
HETATM   23  C   UNL     1     -13.643   1.056 -34.576  1.00  0.00     0.117 A 
HETATM   24  N   UNL     1     -13.093   0.108 -33.797  1.00  0.00    -0.271 NA
HETATM   25  C   UNL     1     -11.807   0.311 -33.413  1.00  0.00     0.146 A 
ENDBRANCH   3  19
TORSDOF 6
ENDMDL
MODEL 7
REMARK VINA RESULT:      -7.2      2.663      3.967
REMARK  6 active torsions:
REMARK  status: ('A' for Active; 'I' for Inactive)
REMARK    1  A    between atoms: C_2  and  C_3 
REMARK    2  A    between atoms: C_3  and  O_4 
REMARK    3  A    between atoms: C_3  and  C_12 
REMARK    4  A    between atoms: O_4  and  C_5 
REMARK    5  A    between atoms: C_12  and  N_13 
REMARK       I    between atoms: N_13  and  C_14 
REMARK       I    between atoms: C_14  and  N_15 
REMARK    6  A    between atoms: N_15  and  C_16 
ROOT
HETATM    1  N   UNL     1      -8.018   0.463 -34.962  1.00  0.00    -0.340 N 
HETATM    2  C   UNL     1      -7.451  -0.593 -34.293  1.00  0.00     0.320 C 
HETATM    3  N   UNL     1      -6.510  -1.232 -35.068  1.00  0.00    -0.307 N 
HETATM    4  O   UNL     1      -7.748  -0.916 -33.151  1.00  0.00    -0.247 OA
HETATM    5  H   UNL     1      -7.769   0.585 -35.932  1.00  0.00     0.164 HD
HETATM    6  H   UNL     1      -6.000  -0.639 -35.702  1.00  0.00     0.170 HD
ENDROOT
BRANCH   1   7
HETATM    7  C   UNL     1      -8.846   1.504 -34.363  1.00  0.00     0.156 C 
BRANCH   7   8
HETATM    8  C   UNL     1      -8.164   2.675 -33.623  1.00  0.00     0.146 C 
BRANCH   8   9
HETATM    9  C   UNL     1      -8.808   4.046 -33.890  1.00  0.00     0.029 C 
HETATM   10  C   UNL     1     -10.232   3.981 -34.429  1.00  0.00     0.007 C 
ENDBRANCH   8   9
BRANCH   8  11
HETATM   11  O   UNL     1      -6.798   2.697 -34.074  1.00  0.00    -0.343 OA
BRANCH  11  12
HETATM   12  C   UNL     1      -5.771   2.681 -33.168  1.00  0.00     0.091 A 
HETATM   13  C   UNL     1      -4.796   3.683 -33.312  1.00  0.00     0.067 A 
HETATM   14 CL   UNL     1      -4.912   4.879 -34.559  1.00  0.00    -0.081 Cl
HETATM   15  C   UNL     1      -3.698   3.746 -32.448  1.00  0.00     0.026 A 
HETATM   16  C   UNL     1      -3.557   2.808 -31.430  1.00  0.00     0.002 A 
HETATM   17  C   UNL     1      -4.521   1.815 -31.271  1.00  0.00     0.003 A 
HETATM   18  C   UNL     1      -5.625   1.756 -32.129  1.00  0.00     0.038 A 
ENDBRANCH  11  12
ENDBRANCH   8  11
ENDBRANCH   7   8
ENDBRANCH   1   7
BRANCH   3  19
HETATM   19  C   UNL     1      -5.959  -2.503 -34.780  1.00  0.00     0.059 A 
HETATM   20  C   UNL     1      -4.724  -2.607 -34.119  1.00  0.00    -0.032 A 
HETATM   21  C   UNL     1      -3.985  -1.411 -33.592  1.00  0.00     0.050 C 
HETATM   22  C   UNL     1      -4.187  -3.884 -33.906  1.00  0.00     0.028 A 
HETATM   23  C   UNL     1      -4.881  -4.998 -34.356  1.00  0.00     0.117 A 
HETATM   24  N   UNL     1      -6.064  -4.931 -34.993  1.00  0.00    -0.271 NA
HETATM   25  C   UNL     1      -6.578  -3.690 -35.184  1.00  0.00     0.146 A 
ENDBRANCH   3  19
TORSDOF 6
ENDMDL
MODEL 8
REMARK VINA RESULT:      -7.2      2.812      8.520
REMARK  6 active torsions:
REMARK  status: ('A' for Active; 'I' for Inactive)
REMARK    1  A    between atoms: C_2  and  C_3 
REMARK    2  A    between atoms: C_3  and  O_4 
REMARK    3  A    between atoms: C_3  and  C_12 
REMARK    4  A    between atoms: O_4  and  C_5 
REMARK    5  A    between atoms: C_12  and  N_13 
REMARK       I    between atoms: N_13  and  C_14 
REMARK       I    between atoms: C_14  and  N_15 
REMARK    6  A    between atoms: N_15  and  C_16 
ROOT
HETATM    1  N   UNL     1      -3.409   2.369 -31.270  1.00  0.00    -0.340 N 
HETATM    2  C   UNL     1      -2.920   3.495 -31.885  1.00  0.00     0.320 C 
HETATM    3  N   UNL     1      -2.541   4.445 -30.964  1.00  0.00    -0.307 N 
HETATM    4  O   UNL     1      -2.834   3.628 -33.098  1.00  0.00    -0.247 OA
HETATM    5  H   UNL     1      -3.523   2.400 -30.269  1.00  0.00     0.164 HD
HETATM    6  H   UNL     1      -2.176   4.084 -30.098  1.00  0.00     0.170 HD
ENDROOT
BRANCH   1   7
HETATM    7  C   UNL     1      -3.652   1.085 -31.918  1.00  0.00     0.156 C 
BRANCH   7   8
HETATM    8  C   UNL     1      -4.968   0.871 -32.696  1.00  0.00     0.146 C 
BRANCH   8   9
HETATM    9  C   UNL     1      -6.051   1.922 -32.395  1.00  0.00     0.029 C 
HETATM   10  C   UNL     1      -6.932   1.596 -31.196  1.00  0.00     0.007 C 
ENDBRANCH   8   9
BRANCH   8  11
HETATM   11  O   UNL     1      -5.453  -0.430 -32.320  1.00  0.00    -0.343 OA
BRANCH  11  12
HETATM   12  C   UNL     1      -5.435  -1.461 -33.221  1.00  0.00     0.091 A 
HETATM   13  C   UNL     1      -6.645  -1.737 -33.879  1.00  0.00     0.067 A 
HETATM   14 CL   UNL     1      -8.070  -0.803 -33.571  1.00  0.00    -0.081 Cl
HETATM   15  C   UNL     1      -6.737  -2.780 -34.806  1.00  0.00     0.026 A 
HETATM   16  C   UNL     1      -5.622  -3.563 -35.089  1.00  0.00     0.002 A 
HETATM   17  C   UNL     1      -4.412  -3.293 -34.451  1.00  0.00     0.003 A 
HETATM   18  C   UNL     1      -4.317  -2.245 -33.529  1.00  0.00     0.038 A 
ENDBRANCH  11  12
ENDBRANCH   8  11
ENDBRANCH   7   8
ENDBRANCH   1   7
BRANCH   3  19
HETATM   19  C   UNL     1      -2.266   5.798 -31.272  1.00  0.00     0.059 A 
HETATM   20  C   UNL     1      -0.941   6.264 -31.303  1.00  0.00    -0.032 A 
HETATM   21  C   UNL     1       0.240   5.354 -31.128  1.00  0.00     0.050 C 
HETATM   22  C   UNL     1      -0.719   7.625 -31.554  1.00  0.00     0.028 A 
HETATM   23  C   UNL     1      -1.803   8.466 -31.755  1.00  0.00     0.117 A 
HETATM   24  N   UNL     1      -3.082   8.052 -31.729  1.00  0.00    -0.271 NA
HETATM   25  C   UNL     1      -3.284   6.731 -31.495  1.00  0.00     0.146 A 
ENDBRANCH   3  19
TORSDOF 6
ENDMDL
MODEL 9
REMARK VINA RESULT:      -7.2     16.006     18.059
REMARK  6 active torsions:
REMARK  status: ('A' for Active; 'I' for Inactive)
REMARK    1  A    between atoms: C_2  and  C_3 
REMARK    2  A    between atoms: C_3  and  O_4 
REMARK    3  A    between atoms: C_3  and  C_12 
REMARK    4  A    between atoms: O_4  and  C_5 
REMARK    5  A    between atoms: C_12  and  N_13 
REMARK       I    between atoms: N_13  and  C_14 
REMARK       I    between atoms: C_14  and  N_15 
REMARK    6  A    between atoms: N_15  and  C_16 
ROOT
HETATM    1  N   UNL     1      -3.945 -13.641 -41.779  1.00  0.00    -0.340 N 
HETATM    2  C   UNL     1      -3.193 -14.278 -40.823  1.00  0.00     0.320 C 
HETATM    3  N   UNL     1      -1.921 -13.756 -40.755  1.00  0.00    -0.307 N 
HETATM    4  O   UNL     1      -3.609 -15.190 -40.122  1.00  0.00    -0.247 OA
HETATM    5  H   UNL     1      -3.476 -12.966 -42.365  1.00  0.00     0.164 HD
HETATM    6  H   UNL     1      -1.848 -12.772 -40.953  1.00  0.00     0.170 HD
ENDROOT
BRANCH   1   7
HETATM    7  C   UNL     1      -5.390 -13.755 -41.939  1.00  0.00     0.156 C 
BRANCH   7   8
HETATM    8  C   UNL     1      -6.311 -12.785 -41.167  1.00  0.00     0.146 C 
BRANCH   8   9
HETATM    9  C   UNL     1      -5.558 -11.778 -40.281  1.00  0.00     0.029 C 
HETATM   10  C   UNL     1      -5.439 -12.188 -38.818  1.00  0.00     0.007 C 
ENDBRANCH   8   9
BRANCH   8  11
HETATM   11  O   UNL     1      -7.158 -13.603 -40.341  1.00  0.00    -0.343 OA
BRANCH  11  12
HETATM   12  C   UNL     1      -8.518 -13.444 -40.375  1.00  0.00     0.091 A 
HETATM   13  C   UNL     1      -9.270 -14.574 -40.740  1.00  0.00     0.067 A 
HETATM   14 CL   UNL     1      -8.505 -16.084 -41.106  1.00  0.00    -0.081 Cl
HETATM   15  C   UNL     1     -10.664 -14.513 -40.820  1.00  0.00     0.026 A 
HETATM   16  C   UNL     1     -11.328 -13.323 -40.537  1.00  0.00     0.002 A 
HETATM   17  C   UNL     1     -10.595 -12.199 -40.164  1.00  0.00     0.003 A 
HETATM   18  C   UNL     1      -9.200 -12.261 -40.075  1.00  0.00     0.038 A 
ENDBRANCH  11  12
ENDBRANCH   8  11
ENDBRANCH   7   8
ENDBRANCH   1   7
BRANCH   3  19
HETATM   19  C   UNL     1      -0.837 -14.366 -40.082  1.00  0.00     0.059 A 
HETATM   20  C   UNL     1      -0.422 -13.889 -38.827  1.00  0.00    -0.032 A 
HETATM   21  C   UNL     1      -1.154 -12.804 -38.092  1.00  0.00     0.050 C 
HETATM   22  C   UNL     1       0.694 -14.485 -38.223  1.00  0.00     0.028 A 
HETATM   23  C   UNL     1       1.354 -15.514 -38.878  1.00  0.00     0.117 A 
HETATM   24  N   UNL     1       0.983 -15.991 -40.080  1.00  0.00    -0.271 NA
HETATM   25  C   UNL     1      -0.104 -15.413 -40.650  1.00  0.00     0.146 A 
ENDBRANCH   3  19
TORSDOF 6
ENDMDL
MODEL 10
REMARK VINA RESULT:      -7.1      2.612      7.839
REMARK  6 active torsions:
REMARK  status: ('A' for Active; 'I' for Inactive)
REMARK    1  A    between atoms: C_2  and  C_3 
REMARK    2  A    between atoms: C_3  and  O_4 
REMARK    3  A    between atoms: C_3  and  C_12 
REMARK    4  A    between atoms: O_4  and  C_5 
REMARK    5  A    between atoms: C_12  and  N_13 
REMARK       I    between atoms: N_13  and  C_14 
REMARK       I    between atoms: C_14  and  N_15 
REMARK    6  A    between atoms: N_15  and  C_16 
ROOT
HETATM    1  N   UNL     1      -4.211   2.421 -31.324  1.00  0.00    -0.340 N 
HETATM    2  C   UNL     1      -4.018   3.694 -31.803  1.00  0.00     0.320 C 
HETATM    3  N   UNL     1      -2.774   3.831 -32.377  1.00  0.00    -0.307 N 
HETATM    4  O   UNL     1      -4.852   4.585 -31.728  1.00  0.00    -0.247 OA
HETATM    5  H   UNL     1      -3.424   1.791 -31.353  1.00  0.00     0.164 HD
HETATM    6  H   UNL     1      -2.416   3.007 -32.832  1.00  0.00     0.170 HD
ENDROOT
BRANCH   1   7
HETATM    7  C   UNL     1      -5.487   1.858 -30.899  1.00  0.00     0.156 C 
BRANCH   7   8
HETATM    8  C   UNL     1      -6.549   1.511 -31.964  1.00  0.00     0.146 C 
BRANCH   8   9
HETATM    9  C   UNL     1      -7.430   0.303 -31.601  1.00  0.00     0.029 C 
HETATM   10  C   UNL     1      -8.926   0.542 -31.757  1.00  0.00     0.007 C 
ENDBRANCH   8   9
BRANCH   8  11
HETATM   11  O   UNL     1      -5.828   1.225 -33.176  1.00  0.00    -0.343 OA
BRANCH  11  12
HETATM   12  C   UNL     1      -5.549  -0.069 -33.525  1.00  0.00     0.091 A 
HETATM   13  C   UNL     1      -6.386  -0.649 -34.493  1.00  0.00     0.067 A 
HETATM   14 CL   UNL     1      -7.685   0.244 -35.211  1.00  0.00    -0.081 Cl
HETATM   15  C   UNL     1      -6.197  -1.971 -34.908  1.00  0.00     0.026 A 
HETATM   16  C   UNL     1      -5.168  -2.733 -34.361  1.00  0.00     0.002 A 
HETATM   17  C   UNL     1      -4.324  -2.167 -33.408  1.00  0.00     0.003 A 
HETATM   18  C   UNL     1      -4.508  -0.842 -32.998  1.00  0.00     0.038 A 
ENDBRANCH  11  12
ENDBRANCH   8  11
ENDBRANCH   7   8
ENDBRANCH   1   7
BRANCH   3  19
HETATM   19  C   UNL     1      -2.172   5.068 -32.705  1.00  0.00     0.059 A 
HETATM   20  C   UNL     1      -1.215   5.640 -31.850  1.00  0.00    -0.032 A 
HETATM   21  C   UNL     1      -0.703   4.939 -30.626  1.00  0.00     0.050 C 
HETATM   22  C   UNL     1      -0.688   6.896 -32.184  1.00  0.00     0.028 A 
HETATM   23  C   UNL     1      -1.129   7.534 -33.334  1.00  0.00     0.117 A 
HETATM   24  N   UNL     1      -2.045   7.014 -34.171  1.00  0.00    -0.271 NA
HETATM   25  C   UNL     1      -2.539   5.794 -33.842  1.00  0.00     0.146 A 
ENDBRANCH   3  19
TORSDOF 6
ENDMDL
