MODEL 1
REMARK VINA RESULT:      -9.8      0.000      0.000
REMARK  3 active torsions:
REMARK  status: ('A' for Active; 'I' for Inactive)
REMARK    1  A    between atoms: C_7  and  C_8 
REMARK       I    between atoms: C_8  and  N_9 
REMARK    2  A    between atoms: N_9  and  C_10 
REMARK    3  A    between atoms: C_18  and  N_19 
ROOT
HETATM    1  C   UNL     1      -3.456   0.445 -31.598  1.00  0.00     0.262 C 
HETATM    2  N   UNL     1      -4.373   1.427 -31.897  1.00  0.00    -0.305 N 
HETATM    3  O   UNL     1      -2.489   0.542 -30.848  1.00  0.00    -0.267 OA
HETATM    4  H   UNL     1      -5.098   1.213 -32.577  1.00  0.00     0.170 HD
ENDROOT
BRANCH   2   5
HETATM    5  C   UNL     1      -4.424   2.683 -31.329  1.00  0.00     0.163 A 
HETATM    6  N   UNL     1      -5.075   2.991 -30.207  1.00  0.00    -0.155 NA
HETATM    7  N   UNL     1      -4.880   4.304 -30.050  1.00  0.00    -0.275 N 
HETATM    8  H   UNL     1      -5.303   4.754 -29.245  1.00  0.00     0.189 HD
HETATM    9  C   UNL     1      -4.111   4.879 -31.025  1.00  0.00     0.064 A 
HETATM   10  C   UNL     1      -3.789   3.835 -31.887  1.00  0.00     0.042 A 
HETATM   11  C   UNL     1      -3.682   6.196 -31.209  1.00  0.00     0.034 A 
HETATM   12  C   UNL     1      -2.980   4.103 -33.010  1.00  0.00     0.053 A 
HETATM   13  C   UNL     1      -2.528   5.421 -33.207  1.00  0.00     0.103 A 
HETATM   14  C   UNL     1      -2.877   6.454 -32.323  1.00  0.00     0.038 A 
BRANCH  13  15
HETATM   15  N   UNL     1      -1.666   5.719 -34.358  1.00  0.00    -0.116 N 
HETATM   16  O   UNL     1      -1.708   4.946 -35.325  1.00  0.00    -0.532 OA
HETATM   17  O   UNL     1      -0.949   6.728 -34.296  1.00  0.00    -0.532 OA
ENDBRANCH  13  15
ENDBRANCH   2   5
BRANCH   1  18
HETATM   18  C   UNL     1      -3.714  -0.849 -32.307  1.00  0.00     0.098 C 
HETATM   19  C   UNL     1      -3.030  -1.942 -31.931  1.00  0.00     0.109 C 
HETATM   20  N   UNL     1      -3.169  -3.194 -32.474  1.00  0.00    -0.364 N 
HETATM   21  C   UNL     1      -4.179  -3.455 -33.409  1.00  0.00     0.046 A 
HETATM   22  H   UNL     1      -2.734  -3.974 -31.993  1.00  0.00     0.165 HD
HETATM   23  C   UNL     1      -4.955  -2.398 -33.915  1.00  0.00     0.042 A 
HETATM   24  C   UNL     1      -4.387  -4.744 -33.903  1.00  0.00     0.030 A 
HETATM   25  C   UNL     1      -5.948  -2.632 -34.872  1.00  0.00     0.018 A 
HETATM   26  C   UNL     1      -4.709  -1.024 -33.405  1.00  0.00     0.201 C 
HETATM   27  C   UNL     1      -6.161  -3.928 -35.339  1.00  0.00     0.001 A 
HETATM   28  C   UNL     1      -5.381  -4.981 -34.858  1.00  0.00     0.002 A 
HETATM   29  O   UNL     1      -5.316  -0.060 -33.870  1.00  0.00    -0.286 OA
ENDBRANCH   1  18
TORSDOF 3
ENDMDL
MODEL 2
REMARK VINA RESULT:      -9.4      1.315      1.569
REMARK  3 active torsions:
REMARK  status: ('A' for Active; 'I' for Inactive)
REMARK    1  A    between atoms: C_7  and  C_8 
REMARK       I    between atoms: C_8  and  N_9 
REMARK    2  A    between atoms: N_9  and  C_10 
REMARK    3  A    between atoms: C_18  and  N_19 
ROOT
HETATM    1  C   UNL     1      -5.417   1.453 -32.894  1.00  0.00     0.262 C 
HETATM    2  N   UNL     1      -4.652   1.816 -31.809  1.00  0.00    -0.305 N 
HETATM    3  O   UNL     1      -6.229   2.152 -33.492  1.00  0.00    -0.267 OA
HETATM    4  H   UNL     1      -4.053   1.109 -31.388  1.00  0.00     0.170 HD
ENDROOT
BRANCH   2   5
HETATM    5  C   UNL     1      -4.593   3.075 -31.249  1.00  0.00     0.163 A 
HETATM    6  N   UNL     1      -5.198   3.441 -30.119  1.00  0.00    -0.155 NA
HETATM    7  N   UNL     1      -4.897   4.735 -29.975  1.00  0.00    -0.275 N 
HETATM    8  H   UNL     1      -5.269   5.222 -29.167  1.00  0.00     0.189 HD
HETATM    9  C   UNL     1      -4.100   5.241 -30.966  1.00  0.00     0.064 A 
HETATM   10  C   UNL     1      -3.877   4.170 -31.826  1.00  0.00     0.042 A 
HETATM   11  C   UNL     1      -3.571   6.519 -31.167  1.00  0.00     0.034 A 
HETATM   12  C   UNL     1      -3.068   4.365 -32.964  1.00  0.00     0.053 A 
HETATM   13  C   UNL     1      -2.516   5.642 -33.177  1.00  0.00     0.103 A 
HETATM   14  C   UNL     1      -2.766   6.705 -32.295  1.00  0.00     0.038 A 
BRANCH  13  15
HETATM   15  N   UNL     1      -1.651   5.864 -34.344  1.00  0.00    -0.116 N 
HETATM   16  O   UNL     1      -0.921   6.865 -34.338  1.00  0.00    -0.532 OA
HETATM   17  O   UNL     1      -1.699   5.035 -35.263  1.00  0.00    -0.532 OA
ENDBRANCH  13  15
ENDBRANCH   2   5
BRANCH   1  18
HETATM   18  C   UNL     1      -5.196   0.038 -33.333  1.00  0.00     0.098 C 
HETATM   19  C   UNL     1      -3.997  -0.528 -33.117  1.00  0.00     0.109 C 
HETATM   20  N   UNL     1      -3.652  -1.814 -33.448  1.00  0.00    -0.364 N 
HETATM   21  C   UNL     1      -4.618  -2.706 -33.932  1.00  0.00     0.046 A 
HETATM   22  H   UNL     1      -2.785  -2.186 -33.077  1.00  0.00     0.165 HD
HETATM   23  C   UNL     1      -5.911  -2.244 -34.232  1.00  0.00     0.042 A 
HETATM   24  C   UNL     1      -4.300  -4.042 -34.188  1.00  0.00     0.030 A 
HETATM   25  C   UNL     1      -6.881  -3.111 -34.746  1.00  0.00     0.018 A 
HETATM   26  C   UNL     1      -6.234  -0.815 -33.982  1.00  0.00     0.201 C 
HETATM   27  C   UNL     1      -6.557  -4.447 -34.974  1.00  0.00     0.001 A 
HETATM   28  C   UNL     1      -5.269  -4.911 -34.699  1.00  0.00     0.002 A 
HETATM   29  O   UNL     1      -7.330  -0.352 -34.295  1.00  0.00    -0.286 OA
ENDBRANCH   1  18
TORSDOF 3
ENDMDL
MODEL 3
REMARK VINA RESULT:      -9.2      1.215      1.771
REMARK  3 active torsions:
REMARK  status: ('A' for Active; 'I' for Inactive)
REMARK    1  A    between atoms: C_7  and  C_8 
REMARK       I    between atoms: C_8  and  N_9 
REMARK    2  A    between atoms: N_9  and  C_10 
REMARK    3  A    between atoms: C_18  and  N_19 
ROOT
HETATM    1  C   UNL     1      -3.967   0.945 -31.940  1.00  0.00     0.262 C 
HETATM    2  N   UNL     1      -4.825   2.021 -31.983  1.00  0.00    -0.305 N 
HETATM    3  O   UNL     1      -2.860   0.905 -31.412  1.00  0.00    -0.267 OA
HETATM    4  H   UNL     1      -5.695   1.919 -32.501  1.00  0.00     0.170 HD
ENDROOT
BRANCH   2   5
HETATM    5  C   UNL     1      -4.631   3.232 -31.352  1.00  0.00     0.163 A 
HETATM    6  N   UNL     1      -5.169   3.584 -30.184  1.00  0.00    -0.155 NA
HETATM    7  N   UNL     1      -4.742   4.833 -29.974  1.00  0.00    -0.275 N 
HETATM    8  H   UNL     1      -5.045   5.303 -29.127  1.00  0.00     0.189 HD
HETATM    9  C   UNL     1      -3.926   5.321 -30.958  1.00  0.00     0.064 A 
HETATM   10  C   UNL     1      -3.829   4.289 -31.886  1.00  0.00     0.042 A 
HETATM   11  C   UNL     1      -3.283   6.554 -31.101  1.00  0.00     0.034 A 
HETATM   12  C   UNL     1      -3.035   4.476 -33.036  1.00  0.00     0.053 A 
HETATM   13  C   UNL     1      -2.369   5.706 -33.191  1.00  0.00     0.103 A 
HETATM   14  C   UNL     1      -2.493   6.732 -32.242  1.00  0.00     0.038 A 
BRANCH  13  15
HETATM   15  N   UNL     1      -1.517   5.916 -34.370  1.00  0.00    -0.116 N 
HETATM   16  O   UNL     1      -0.822   6.941 -34.403  1.00  0.00    -0.532 OA
HETATM   17  O   UNL     1      -1.542   5.056 -35.260  1.00  0.00    -0.532 OA
ENDBRANCH  13  15
ENDBRANCH   2   5
BRANCH   1  18
HETATM   18  C   UNL     1      -4.495  -0.267 -32.643  1.00  0.00     0.098 C 
HETATM   19  C   UNL     1      -5.581  -0.140 -33.425  1.00  0.00     0.109 C 
HETATM   20  N   UNL     1      -6.168  -1.153 -34.141  1.00  0.00    -0.364 N 
HETATM   21  C   UNL     1      -5.564  -2.414 -34.214  1.00  0.00     0.046 A 
HETATM   22  H   UNL     1      -6.868  -0.905 -34.832  1.00  0.00     0.165 HD
HETATM   23  C   UNL     1      -4.436  -2.698 -33.425  1.00  0.00     0.042 A 
HETATM   24  C   UNL     1      -6.104  -3.427 -35.010  1.00  0.00     0.030 A 
HETATM   25  C   UNL     1      -3.836  -3.961 -33.458  1.00  0.00     0.018 A 
HETATM   26  C   UNL     1      -3.883  -1.624 -32.558  1.00  0.00     0.201 C 
HETATM   27  C   UNL     1      -4.372  -4.955 -34.276  1.00  0.00     0.001 A 
HETATM   28  C   UNL     1      -5.504  -4.690 -35.048  1.00  0.00     0.002 A 
HETATM   29  O   UNL     1      -2.941  -1.848 -31.799  1.00  0.00    -0.286 OA
ENDBRANCH   1  18
TORSDOF 3
ENDMDL
MODEL 4
REMARK VINA RESULT:      -9.2      5.115      6.849
REMARK  3 active torsions:
REMARK  status: ('A' for Active; 'I' for Inactive)
REMARK    1  A    between atoms: C_7  and  C_8 
REMARK       I    between atoms: C_8  and  N_9 
REMARK    2  A    between atoms: N_9  and  C_10 
REMARK    3  A    between atoms: C_18  and  N_19 
ROOT
HETATM    1  C   UNL     1      -6.643   1.251 -33.651  1.00  0.00     0.262 C 
HETATM    2  N   UNL     1      -7.967   1.115 -33.301  1.00  0.00    -0.305 N 
HETATM    3  O   UNL     1      -6.049   2.296 -33.897  1.00  0.00    -0.267 OA
HETATM    4  H   UNL     1      -8.334   0.175 -33.173  1.00  0.00     0.170 HD
ENDROOT
BRANCH   2   5
HETATM    5  C   UNL     1      -8.851   2.149 -33.071  1.00  0.00     0.163 A 
HETATM    6  N   UNL     1      -8.508   3.384 -32.706  1.00  0.00    -0.155 NA
HETATM    7  N   UNL     1      -9.668   4.034 -32.570  1.00  0.00    -0.275 N 
HETATM    8  H   UNL     1      -9.637   5.007 -32.285  1.00  0.00     0.189 HD
HETATM    9  C   UNL     1     -10.773   3.275 -32.844  1.00  0.00     0.064 A 
HETATM   10  C   UNL     1     -10.271   2.022 -33.181  1.00  0.00     0.042 A 
HETATM   11  C   UNL     1     -12.136   3.583 -32.824  1.00  0.00     0.034 A 
HETATM   12  C   UNL     1     -11.173   0.997 -33.534  1.00  0.00     0.053 A 
HETATM   13  C   UNL     1     -12.549   1.292 -33.532  1.00  0.00     0.103 A 
HETATM   14  C   UNL     1     -13.025   2.563 -33.179  1.00  0.00     0.038 A 
BRANCH  13  15
HETATM   15  N   UNL     1     -13.506   0.246 -33.918  1.00  0.00    -0.116 N 
HETATM   16  O   UNL     1     -13.344  -0.887 -33.444  1.00  0.00    -0.532 OA
HETATM   17  O   UNL     1     -14.421   0.559 -34.692  1.00  0.00    -0.532 OA
ENDBRANCH  13  15
ENDBRANCH   2   5
BRANCH   1  18
HETATM   18  C   UNL     1      -5.912  -0.053 -33.737  1.00  0.00     0.098 C 
HETATM   19  C   UNL     1      -4.720  -0.168 -33.127  1.00  0.00     0.109 C 
HETATM   20  N   UNL     1      -3.944  -1.299 -33.105  1.00  0.00    -0.364 N 
HETATM   21  C   UNL     1      -4.429  -2.505 -33.627  1.00  0.00     0.046 A 
HETATM   22  H   UNL     1      -3.155  -1.325 -32.467  1.00  0.00     0.165 HD
HETATM   23  C   UNL     1      -5.652  -2.526 -34.320  1.00  0.00     0.042 A 
HETATM   24  C   UNL     1      -3.685  -3.683 -33.532  1.00  0.00     0.030 A 
HETATM   25  C   UNL     1      -6.140  -3.712 -34.877  1.00  0.00     0.018 A 
HETATM   26  C   UNL     1      -6.426  -1.263 -34.442  1.00  0.00     0.201 C 
HETATM   27  C   UNL     1      -5.398  -4.886 -34.753  1.00  0.00     0.001 A 
HETATM   28  C   UNL     1      -4.173  -4.871 -34.086  1.00  0.00     0.002 A 
HETATM   29  O   UNL     1      -7.465  -1.220 -35.099  1.00  0.00    -0.286 OA
ENDBRANCH   1  18
TORSDOF 3
ENDMDL
MODEL 5
REMARK VINA RESULT:      -9.1      2.187      2.437
REMARK  3 active torsions:
REMARK  status: ('A' for Active; 'I' for Inactive)
REMARK    1  A    between atoms: C_7  and  C_8 
REMARK       I    between atoms: C_8  and  N_9 
REMARK    2  A    between atoms: N_9  and  C_10 
REMARK    3  A    between atoms: C_18  and  N_19 
ROOT
HETATM    1  C   UNL     1      -4.311   1.453 -31.812  1.00  0.00     0.262 C 
HETATM    2  N   UNL     1      -3.725   2.354 -32.673  1.00  0.00    -0.305 N 
HETATM    3  O   UNL     1      -4.967   1.711 -30.807  1.00  0.00    -0.267 OA
HETATM    4  H   UNL     1      -3.169   1.989 -33.442  1.00  0.00     0.170 HD
ENDROOT
BRANCH   2   5
HETATM    5  C   UNL     1      -3.849   3.726 -32.610  1.00  0.00     0.163 A 
HETATM    6  N   UNL     1      -4.895   4.423 -33.056  1.00  0.00    -0.155 NA
HETATM    7  N   UNL     1      -4.579   5.700 -32.821  1.00  0.00    -0.275 N 
HETATM    8  H   UNL     1      -5.247   6.413 -33.095  1.00  0.00     0.189 HD
HETATM    9  C   UNL     1      -3.361   5.877 -32.222  1.00  0.00     0.064 A 
HETATM   10  C   UNL     1      -2.851   4.592 -32.065  1.00  0.00     0.042 A 
HETATM   11  C   UNL     1      -2.688   7.032 -31.815  1.00  0.00     0.034 A 
HETATM   12  C   UNL     1      -1.590   4.428 -31.457  1.00  0.00     0.053 A 
HETATM   13  C   UNL     1      -0.902   5.579 -31.029  1.00  0.00     0.103 A 
HETATM   14  C   UNL     1      -1.440   6.863 -31.208  1.00  0.00     0.038 A 
BRANCH  13  15
HETATM   15  N   UNL     1       0.403   5.431 -30.372  1.00  0.00    -0.116 N 
HETATM   16  O   UNL     1       0.578   6.025 -29.297  1.00  0.00    -0.532 OA
HETATM   17  O   UNL     1       1.252   4.721 -30.927  1.00  0.00    -0.532 OA
ENDBRANCH  13  15
ENDBRANCH   2   5
BRANCH   1  18
HETATM   18  C   UNL     1      -4.073   0.024 -32.192  1.00  0.00     0.098 C 
HETATM   19  C   UNL     1      -3.202  -0.701 -31.471  1.00  0.00     0.109 C 
HETATM   20  N   UNL     1      -2.893  -2.020 -31.689  1.00  0.00    -0.364 N 
HETATM   21  C   UNL     1      -3.600  -2.769 -32.637  1.00  0.00     0.046 A 
HETATM   22  H   UNL     1      -2.362  -2.510 -30.976  1.00  0.00     0.165 HD
HETATM   23  C   UNL     1      -4.524  -2.133 -33.484  1.00  0.00     0.042 A 
HETATM   24  C   UNL     1      -3.357  -4.134 -32.806  1.00  0.00     0.030 A 
HETATM   25  C   UNL     1      -5.219  -2.855 -34.460  1.00  0.00     0.018 A 
HETATM   26  C   UNL     1      -4.759  -0.674 -33.318  1.00  0.00     0.201 C 
HETATM   27  C   UNL     1      -4.983  -4.222 -34.601  1.00  0.00     0.001 A 
HETATM   28  C   UNL     1      -4.052  -4.859 -33.779  1.00  0.00     0.002 A 
HETATM   29  O   UNL     1      -5.505  -0.064 -34.082  1.00  0.00    -0.286 OA
ENDBRANCH   1  18
TORSDOF 3
ENDMDL
MODEL 6
REMARK VINA RESULT:      -8.8      4.372      5.562
REMARK  3 active torsions:
REMARK  status: ('A' for Active; 'I' for Inactive)
REMARK    1  A    between atoms: C_7  and  C_8 
REMARK       I    between atoms: C_8  and  N_9 
REMARK    2  A    between atoms: N_9  and  C_10 
REMARK    3  A    between atoms: C_18  and  N_19 
ROOT
HETATM    1  C   UNL     1      -6.094   1.440 -32.966  1.00  0.00     0.262 C 
HETATM    2  N   UNL     1      -6.529   2.206 -34.023  1.00  0.00    -0.305 N 
HETATM    3  O   UNL     1      -6.028   1.778 -31.787  1.00  0.00    -0.267 OA
HETATM    4  H   UNL     1      -6.482   1.804 -34.956  1.00  0.00     0.170 HD
ENDROOT
BRANCH   2   5
HETATM    5  C   UNL     1      -7.062   3.475 -33.934  1.00  0.00     0.163 A 
HETATM    6  N   UNL     1      -6.366   4.608 -34.029  1.00  0.00    -0.155 NA
HETATM    7  N   UNL     1      -7.269   5.578 -33.857  1.00  0.00    -0.275 N 
HETATM    8  H   UNL     1      -6.945   6.539 -33.885  1.00  0.00     0.189 HD
HETATM    9  C   UNL     1      -8.547   5.129 -33.662  1.00  0.00     0.064 A 
HETATM   10  C   UNL     1      -8.449   3.742 -33.709  1.00  0.00     0.042 A 
HETATM   11  C   UNL     1      -9.748   5.814 -33.457  1.00  0.00     0.034 A 
HETATM   12  C   UNL     1      -9.617   2.969 -33.551  1.00  0.00     0.053 A 
HETATM   13  C   UNL     1     -10.838   3.641 -33.356  1.00  0.00     0.103 A 
HETATM   14  C   UNL     1     -10.904   5.041 -33.305  1.00  0.00     0.038 A 
BRANCH  13  15
HETATM   15  N   UNL     1     -12.072   2.857 -33.211  1.00  0.00    -0.116 N 
HETATM   16  O   UNL     1     -13.105   3.462 -32.890  1.00  0.00    -0.532 OA
HETATM   17  O   UNL     1     -12.010   1.638 -33.421  1.00  0.00    -0.532 OA
ENDBRANCH  13  15
ENDBRANCH   2   5
BRANCH   1  18
HETATM   18  C   UNL     1      -5.656   0.065 -33.366  1.00  0.00     0.098 C 
HETATM   19  C   UNL     1      -4.397  -0.319 -33.092  1.00  0.00     0.109 C 
HETATM   20  N   UNL     1      -3.860  -1.547 -33.383  1.00  0.00    -0.364 N 
HETATM   21  C   UNL     1      -4.667  -2.576 -33.885  1.00  0.00     0.046 A 
HETATM   22  H   UNL     1      -2.963  -1.786 -32.971  1.00  0.00     0.165 HD
HETATM   23  C   UNL     1      -5.999  -2.309 -34.244  1.00  0.00     0.042 A 
HETATM   24  C   UNL     1      -4.151  -3.856 -34.102  1.00  0.00     0.030 A 
HETATM   25  C   UNL     1      -6.813  -3.313 -34.778  1.00  0.00     0.018 A 
HETATM   26  C   UNL     1      -6.533  -0.937 -34.037  1.00  0.00     0.201 C 
HETATM   27  C   UNL     1      -6.292  -4.593 -34.966  1.00  0.00     0.001 A 
HETATM   28  C   UNL     1      -4.964  -4.863 -34.632  1.00  0.00     0.002 A 
HETATM   29  O   UNL     1      -7.670  -0.641 -34.402  1.00  0.00    -0.286 OA
ENDBRANCH   1  18
TORSDOF 3
ENDMDL
MODEL 7
REMARK VINA RESULT:      -8.8      5.127      7.476
REMARK  3 active torsions:
REMARK  status: ('A' for Active; 'I' for Inactive)
REMARK    1  A    between atoms: C_7  and  C_8 
REMARK       I    between atoms: C_8  and  N_9 
REMARK    2  A    between atoms: N_9  and  C_10 
REMARK    3  A    between atoms: C_18  and  N_19 
ROOT
HETATM    1  C   UNL     1      -8.129   1.857 -33.001  1.00  0.00     0.262 C 
HETATM    2  N   UNL     1      -7.776   1.150 -31.874  1.00  0.00    -0.305 N 
HETATM    3  O   UNL     1      -7.378   2.475 -33.750  1.00  0.00    -0.267 OA
HETATM    4  H   UNL     1      -8.519   0.726 -31.324  1.00  0.00     0.170 HD
ENDROOT
BRANCH   2   5
HETATM    5  C   UNL     1      -6.489   0.929 -31.431  1.00  0.00     0.163 A 
HETATM    6  N   UNL     1      -5.887   1.606 -30.453  1.00  0.00    -0.155 NA
HETATM    7  N   UNL     1      -4.659   1.084 -30.382  1.00  0.00    -0.275 N 
HETATM    8  H   UNL     1      -4.019   1.466 -29.694  1.00  0.00     0.189 HD
HETATM    9  C   UNL     1      -4.426   0.072 -31.273  1.00  0.00     0.064 A 
HETATM   10  C   UNL     1      -5.616  -0.060 -31.983  1.00  0.00     0.042 A 
HETATM   11  C   UNL     1      -3.296  -0.718 -31.503  1.00  0.00     0.034 A 
HETATM   12  C   UNL     1      -5.706  -1.045 -32.987  1.00  0.00     0.053 A 
HETATM   13  C   UNL     1      -4.582  -1.859 -33.225  1.00  0.00     0.103 A 
HETATM   14  C   UNL     1      -3.393  -1.696 -32.498  1.00  0.00     0.038 A 
BRANCH  13  15
HETATM   15  N   UNL     1      -4.660  -2.907 -34.251  1.00  0.00    -0.116 N 
HETATM   16  O   UNL     1      -3.974  -3.926 -34.088  1.00  0.00    -0.532 OA
HETATM   17  O   UNL     1      -5.409  -2.713 -35.219  1.00  0.00    -0.532 OA
ENDBRANCH  13  15
ENDBRANCH   2   5
BRANCH   1  18
HETATM   18  C   UNL     1      -9.601   1.843 -33.278  1.00  0.00     0.098 C 
HETATM   19  C   UNL     1     -10.183   2.962 -33.743  1.00  0.00     0.109 C 
HETATM   20  N   UNL     1     -11.512   3.096 -34.055  1.00  0.00    -0.364 N 
HETATM   21  C   UNL     1     -12.362   1.983 -34.037  1.00  0.00     0.046 A 
HETATM   22  H   UNL     1     -11.802   3.924 -34.563  1.00  0.00     0.165 HD
HETATM   23  C   UNL     1     -11.895   0.752 -33.546  1.00  0.00     0.042 A 
HETATM   24  C   UNL     1     -13.696   2.088 -34.438  1.00  0.00     0.030 A 
HETATM   25  C   UNL     1     -12.735  -0.364 -33.489  1.00  0.00     0.018 A 
HETATM   26  C   UNL     1     -10.481   0.654 -33.095  1.00  0.00     0.201 C 
HETATM   27  C   UNL     1     -14.058  -0.251 -33.915  1.00  0.00     0.001 A 
HETATM   28  C   UNL     1     -14.538   0.973 -34.386  1.00  0.00     0.002 A 
HETATM   29  O   UNL     1     -10.050  -0.383 -32.593  1.00  0.00    -0.286 OA
ENDBRANCH   1  18
TORSDOF 3
ENDMDL
MODEL 8
REMARK VINA RESULT:      -8.8      2.631      8.091
REMARK  3 active torsions:
REMARK  status: ('A' for Active; 'I' for Inactive)
REMARK    1  A    between atoms: C_7  and  C_8 
REMARK       I    between atoms: C_8  and  N_9 
REMARK    2  A    between atoms: N_9  and  C_10 
REMARK    3  A    between atoms: C_18  and  N_19 
ROOT
HETATM    1  C   UNL     1      -5.170   3.603 -31.553  1.00  0.00     0.262 C 
HETATM    2  N   UNL     1      -5.166   3.221 -32.875  1.00  0.00    -0.305 N 
HETATM    3  O   UNL     1      -5.974   3.266 -30.689  1.00  0.00    -0.267 OA
HETATM    4  H   UNL     1      -4.460   3.622 -33.488  1.00  0.00     0.170 HD
ENDROOT
BRANCH   2   5
HETATM    5  C   UNL     1      -6.022   2.305 -33.452  1.00  0.00     0.163 A 
HETATM    6  N   UNL     1      -7.177   2.604 -34.048  1.00  0.00    -0.155 NA
HETATM    7  N   UNL     1      -7.679   1.425 -34.429  1.00  0.00    -0.275 N 
HETATM    8  H   UNL     1      -8.574   1.421 -34.905  1.00  0.00     0.189 HD
HETATM    9  C   UNL     1      -6.890   0.351 -34.116  1.00  0.00     0.064 A 
HETATM   10  C   UNL     1      -5.784   0.895 -33.471  1.00  0.00     0.042 A 
HETATM   11  C   UNL     1      -7.056  -1.018 -34.346  1.00  0.00     0.034 A 
HETATM   12  C   UNL     1      -4.761   0.034 -33.025  1.00  0.00     0.053 A 
HETATM   13  C   UNL     1      -4.904  -1.347 -33.259  1.00  0.00     0.103 A 
HETATM   14  C   UNL     1      -6.036  -1.867 -33.905  1.00  0.00     0.038 A 
BRANCH  13  15
HETATM   15  N   UNL     1      -3.840  -2.261 -32.823  1.00  0.00    -0.116 N 
HETATM   16  O   UNL     1      -3.079  -1.874 -31.925  1.00  0.00    -0.532 OA
HETATM   17  O   UNL     1      -3.768  -3.367 -33.376  1.00  0.00    -0.532 OA
ENDBRANCH  13  15
ENDBRANCH   2   5
BRANCH   1  18
HETATM   18  C   UNL     1      -4.058   4.542 -31.201  1.00  0.00     0.098 C 
HETATM   19  C   UNL     1      -4.306   5.548 -30.345  1.00  0.00     0.109 C 
HETATM   20  N   UNL     1      -3.388   6.474 -29.919  1.00  0.00    -0.364 N 
HETATM   21  C   UNL     1      -2.036   6.343 -30.258  1.00  0.00     0.046 A 
HETATM   22  H   UNL     1      -3.641   7.073 -29.140  1.00  0.00     0.165 HD
HETATM   23  C   UNL     1      -1.635   5.351 -31.170  1.00  0.00     0.042 A 
HETATM   24  C   UNL     1      -1.078   7.228 -29.758  1.00  0.00     0.030 A 
HETATM   25  C   UNL     1      -0.295   5.223 -31.548  1.00  0.00     0.018 A 
HETATM   26  C   UNL     1      -2.664   4.430 -31.720  1.00  0.00     0.201 C 
HETATM   27  C   UNL     1       0.654   6.098 -31.021  1.00  0.00     0.001 A 
HETATM   28  C   UNL     1       0.263   7.100 -30.132  1.00  0.00     0.002 A 
HETATM   29  O   UNL     1      -2.371   3.593 -32.573  1.00  0.00    -0.286 OA
ENDBRANCH   1  18
TORSDOF 3
ENDMDL
MODEL 9
REMARK VINA RESULT:      -8.8      2.749      3.693
REMARK  3 active torsions:
REMARK  status: ('A' for Active; 'I' for Inactive)
REMARK    1  A    between atoms: C_7  and  C_8 
REMARK       I    between atoms: C_8  and  N_9 
REMARK    2  A    between atoms: N_9  and  C_10 
REMARK    3  A    between atoms: C_18  and  N_19 
ROOT
HETATM    1  C   UNL     1      -4.994   3.261 -31.703  1.00  0.00     0.262 C 
HETATM    2  N   UNL     1      -4.201   4.053 -32.502  1.00  0.00    -0.305 N 
HETATM    3  O   UNL     1      -5.385   3.515 -30.568  1.00  0.00    -0.267 OA
HETATM    4  H   UNL     1      -3.917   3.687 -33.407  1.00  0.00     0.170 HD
ENDROOT
BRANCH   2   5
HETATM    5  C   UNL     1      -3.774   5.329 -32.201  1.00  0.00     0.163 A 
HETATM    6  N   UNL     1      -4.480   6.442 -32.404  1.00  0.00    -0.155 NA
HETATM    7  N   UNL     1      -3.678   7.433 -32.001  1.00  0.00    -0.275 N 
HETATM    8  H   UNL     1      -4.024   8.384 -32.075  1.00  0.00     0.189 HD
HETATM    9  C   UNL     1      -2.465   7.016 -31.525  1.00  0.00     0.064 A 
HETATM   10  C   UNL     1      -2.493   5.630 -31.640  1.00  0.00     0.042 A 
HETATM   11  C   UNL     1      -1.376   7.728 -31.014  1.00  0.00     0.034 A 
HETATM   12  C   UNL     1      -1.373   4.886 -31.216  1.00  0.00     0.053 A 
HETATM   13  C   UNL     1      -0.272   5.584 -30.687  1.00  0.00     0.103 A 
HETATM   14  C   UNL     1      -0.270   6.984 -30.591  1.00  0.00     0.038 A 
BRANCH  13  15
HETATM   15  N   UNL     1       0.897   4.829 -30.217  1.00  0.00    -0.116 N 
HETATM   16  O   UNL     1       1.121   4.812 -28.998  1.00  0.00    -0.532 OA
HETATM   17  O   UNL     1       1.591   4.252 -31.066  1.00  0.00    -0.532 OA
ENDBRANCH  13  15
ENDBRANCH   2   5
BRANCH   1  18
HETATM   18  C   UNL     1      -5.373   1.960 -32.341  1.00  0.00     0.098 C 
HETATM   19  C   UNL     1      -6.620   1.813 -32.821  1.00  0.00     0.109 C 
HETATM   20  N   UNL     1      -7.105   0.690 -33.442  1.00  0.00    -0.364 N 
HETATM   21  C   UNL     1      -6.252  -0.375 -33.753  1.00  0.00     0.046 A 
HETATM   22  H   UNL     1      -7.998   0.758 -33.919  1.00  0.00     0.165 HD
HETATM   23  C   UNL     1      -4.925  -0.369 -33.289  1.00  0.00     0.042 A 
HETATM   24  C   UNL     1      -6.714  -1.485 -34.464  1.00  0.00     0.030 A 
HETATM   25  C   UNL     1      -4.065  -1.438 -33.562  1.00  0.00     0.018 A 
HETATM   26  C   UNL     1      -4.447   0.803 -32.509  1.00  0.00     0.201 C 
HETATM   27  C   UNL     1      -4.533  -2.528 -34.293  1.00  0.00     0.001 A 
HETATM   28  C   UNL     1      -5.855  -2.553 -34.741  1.00  0.00     0.002 A 
HETATM   29  O   UNL     1      -3.317   0.820 -32.024  1.00  0.00    -0.286 OA
ENDBRANCH   1  18
TORSDOF 3
ENDMDL
MODEL 10
REMARK VINA RESULT:      -8.5      2.733      8.252
REMARK  3 active torsions:
REMARK  status: ('A' for Active; 'I' for Inactive)
REMARK    1  A    between atoms: C_7  and  C_8 
REMARK       I    between atoms: C_8  and  N_9 
REMARK    2  A    between atoms: N_9  and  C_10 
REMARK    3  A    between atoms: C_18  and  N_19 
ROOT
HETATM    1  C   UNL     1      -4.323   4.216 -33.227  1.00  0.00     0.262 C 
HETATM    2  N   UNL     1      -4.842   3.111 -32.591  1.00  0.00    -0.305 N 
HETATM    3  O   UNL     1      -4.724   4.724 -34.269  1.00  0.00    -0.267 OA
HETATM    4  H   UNL     1      -4.372   2.775 -31.754  1.00  0.00     0.170 HD
ENDROOT
BRANCH   2   5
HETATM    5  C   UNL     1      -5.978   2.424 -32.967  1.00  0.00     0.163 A 
HETATM    6  N   UNL     1      -7.196   2.955 -33.071  1.00  0.00    -0.155 NA
HETATM    7  N   UNL     1      -7.983   1.936 -33.429  1.00  0.00    -0.275 N 
HETATM    8  H   UNL     1      -8.972   2.121 -33.559  1.00  0.00     0.189 HD
HETATM    9  C   UNL     1      -7.326   0.745 -33.579  1.00  0.00     0.064 A 
HETATM   10  C   UNL     1      -5.997   1.030 -33.284  1.00  0.00     0.042 A 
HETATM   11  C   UNL     1      -7.783  -0.526 -33.944  1.00  0.00     0.034 A 
HETATM   12  C   UNL     1      -5.043  -0.005 -33.359  1.00  0.00     0.053 A 
HETATM   13  C   UNL     1      -5.481  -1.288 -33.736  1.00  0.00     0.103 A 
HETATM   14  C   UNL     1      -6.831  -1.547 -34.020  1.00  0.00     0.038 A 
BRANCH  13  15
HETATM   15  N   UNL     1      -4.502  -2.378 -33.843  1.00  0.00    -0.116 N 
HETATM   16  O   UNL     1      -4.492  -3.044 -34.889  1.00  0.00    -0.532 OA
HETATM   17  O   UNL     1      -3.740  -2.566 -32.885  1.00  0.00    -0.532 OA
ENDBRANCH  13  15
ENDBRANCH   2   5
BRANCH   1  18
HETATM   18  C   UNL     1      -3.135   4.803 -32.528  1.00  0.00     0.098 C 
HETATM   19  C   UNL     1      -1.928   4.706 -33.110  1.00  0.00     0.109 C 
HETATM   20  N   UNL     1      -0.757   5.205 -32.599  1.00  0.00    -0.364 N 
HETATM   21  C   UNL     1      -0.766   6.006 -31.450  1.00  0.00     0.046 A 
HETATM   22  H   UNL     1       0.056   5.230 -33.206  1.00  0.00     0.165 HD
HETATM   23  C   UNL     1      -1.956   6.171 -30.721  1.00  0.00     0.042 A 
HETATM   24  C   UNL     1       0.407   6.593 -30.971  1.00  0.00     0.030 A 
HETATM   25  C   UNL     1      -1.982   6.940 -29.553  1.00  0.00     0.018 A 
HETATM   26  C   UNL     1      -3.196   5.520 -31.222  1.00  0.00     0.201 C 
HETATM   27  C   UNL     1      -0.808   7.541 -29.100  1.00  0.00     0.001 A 
HETATM   28  C   UNL     1       0.384   7.365 -29.805  1.00  0.00     0.002 A 
HETATM   29  O   UNL     1      -4.243   5.580 -30.579  1.00  0.00    -0.286 OA
ENDBRANCH   1  18
TORSDOF 3
ENDMDL
