MODEL 1
REMARK VINA RESULT:      -9.7      0.000      0.000
REMARK  3 active torsions:
REMARK  status: ('A' for Active; 'I' for Inactive)
REMARK    1  A    between atoms: C_3  and  N_4 
REMARK       I    between atoms: N_4  and  C_5 
REMARK    2  A    between atoms: C_5  and  C_6 
REMARK    3  A    between atoms: C_6  and  N_7 
ROOT
HETATM    1  N   UNL     1      -4.494   1.158 -32.205  1.00  0.00    -0.224 N 
HETATM    2  N   UNL     1      -5.653   1.128 -33.011  1.00  0.00    -0.180 NA
HETATM    3  C   UNL     1      -5.973   0.034 -33.642  1.00  0.00     0.153 A 
HETATM    4  C   UNL     1      -5.177  -1.150 -33.511  1.00  0.00     0.028 A 
HETATM    5  C   UNL     1      -4.067  -1.117 -32.705  1.00  0.00     0.116 A 
HETATM    6  N   UNL     1      -3.484  -2.351 -32.726  1.00  0.00    -0.350 N 
HETATM    7  H   UNL     1      -2.653  -2.607 -32.208  1.00  0.00     0.166 HD
HETATM    8  C   UNL     1      -4.218  -3.195 -33.537  1.00  0.00     0.044 A 
HETATM    9  C   UNL     1      -5.293  -2.458 -34.048  1.00  0.00     0.005 A 
HETATM   10  C   UNL     1      -4.015  -4.545 -33.849  1.00  0.00     0.030 A 
HETATM   11  C   UNL     1      -4.938  -5.158 -34.703  1.00  0.00     0.002 A 
HETATM   12  C   UNL     1      -6.018  -4.449 -35.224  1.00  0.00     0.001 A 
HETATM   13  C   UNL     1      -6.207  -3.098 -34.907  1.00  0.00     0.014 A 
HETATM   14  C   UNL     1      -3.660   0.047 -31.972  1.00  0.00     0.291 A 
HETATM   15  O   UNL     1      -2.684   0.058 -31.232  1.00  0.00    -0.264 OA
ENDROOT
BRANCH   1  16
HETATM   16  C   UNL     1      -4.327   2.336 -31.370  1.00  0.00     0.258 C 
BRANCH  16  17
HETATM   17  C   UNL     1      -3.414   3.499 -31.792  1.00  0.00     0.244 C 
HETATM   18  N   UNL     1      -3.954   4.648 -32.380  1.00  0.00    -0.320 N 
HETATM   19  C   UNL     1      -5.235   4.678 -33.070  1.00  0.00     0.159 C 
HETATM   20  O   UNL     1      -2.229   3.444 -31.428  1.00  0.00    -0.271 OA
BRANCH  18  21
HETATM   21  C   UNL     1      -3.146   5.825 -32.486  1.00  0.00     0.042 A 
HETATM   22  C   UNL     1      -2.320   6.062 -33.606  1.00  0.00    -0.035 A 
HETATM   23  C   UNL     1      -2.186   5.097 -34.753  1.00  0.00     0.050 C 
HETATM   24  C   UNL     1      -1.566   7.249 -33.660  1.00  0.00     0.009 A 
HETATM   25  C   UNL     1      -1.593   8.167 -32.611  1.00  0.00     0.001 A 
HETATM   26  C   UNL     1      -2.379   7.914 -31.491  1.00  0.00     0.002 A 
HETATM   27  C   UNL     1      -3.146   6.749 -31.429  1.00  0.00     0.030 A 
ENDBRANCH  18  21
ENDBRANCH  16  17
ENDBRANCH   1  16
TORSDOF 3
ENDMDL
MODEL 2
REMARK VINA RESULT:      -9.3      1.787      7.988
REMARK  3 active torsions:
REMARK  status: ('A' for Active; 'I' for Inactive)
REMARK    1  A    between atoms: C_3  and  N_4 
REMARK       I    between atoms: N_4  and  C_5 
REMARK    2  A    between atoms: C_5  and  C_6 
REMARK    3  A    between atoms: C_6  and  N_7 
ROOT
HETATM    1  N   UNL     1      -6.239   2.614 -32.451  1.00  0.00    -0.224 N 
HETATM    2  N   UNL     1      -6.225   3.342 -33.661  1.00  0.00    -0.180 NA
HETATM    3  C   UNL     1      -5.233   4.145 -33.922  1.00  0.00     0.153 A 
HETATM    4  C   UNL     1      -4.140   4.283 -33.005  1.00  0.00     0.028 A 
HETATM    5  C   UNL     1      -4.151   3.552 -31.844  1.00  0.00     0.116 A 
HETATM    6  N   UNL     1      -3.012   3.836 -31.147  1.00  0.00    -0.350 N 
HETATM    7  H   UNL     1      -2.762   3.425 -30.257  1.00  0.00     0.166 HD
HETATM    8  C   UNL     1      -2.251   4.745 -31.856  1.00  0.00     0.044 A 
HETATM    9  C   UNL     1      -2.944   5.045 -33.035  1.00  0.00     0.005 A 
HETATM   10  C   UNL     1      -1.009   5.313 -31.548  1.00  0.00     0.030 A 
HETATM   11  C   UNL     1      -0.460   6.210 -32.470  1.00  0.00     0.002 A 
HETATM   12  C   UNL     1      -1.127   6.526 -33.652  1.00  0.00     0.001 A 
HETATM   13  C   UNL     1      -2.370   5.952 -33.947  1.00  0.00     0.014 A 
HETATM   14  C   UNL     1      -5.203   2.642 -31.497  1.00  0.00     0.291 A 
HETATM   15  O   UNL     1      -5.190   1.971 -30.472  1.00  0.00    -0.264 OA
ENDROOT
BRANCH   1  16
HETATM   16  C   UNL     1      -7.260   1.587 -32.336  1.00  0.00     0.258 C 
BRANCH  16  17
HETATM   17  C   UNL     1      -6.948   0.107 -32.615  1.00  0.00     0.244 C 
HETATM   18  N   UNL     1      -6.694  -0.331 -33.919  1.00  0.00    -0.320 N 
HETATM   19  C   UNL     1      -7.150   0.369 -35.111  1.00  0.00     0.159 C 
HETATM   20  O   UNL     1      -6.760  -0.623 -31.630  1.00  0.00    -0.271 OA
BRANCH  18  21
HETATM   21  C   UNL     1      -6.116  -1.625 -34.123  1.00  0.00     0.042 A 
HETATM   22  C   UNL     1      -4.747  -1.873 -33.887  1.00  0.00    -0.035 A 
HETATM   23  C   UNL     1      -3.777  -0.809 -33.446  1.00  0.00     0.050 C 
HETATM   24  C   UNL     1      -4.244  -3.172 -34.085  1.00  0.00     0.009 A 
HETATM   25  C   UNL     1      -5.066  -4.199 -34.547  1.00  0.00     0.001 A 
HETATM   26  C   UNL     1      -6.407  -3.943 -34.814  1.00  0.00     0.002 A 
HETATM   27  C   UNL     1      -6.927  -2.665 -34.607  1.00  0.00     0.030 A 
ENDBRANCH  18  21
ENDBRANCH  16  17
ENDBRANCH   1  16
TORSDOF 3
ENDMDL
MODEL 3
REMARK VINA RESULT:      -9.2      1.312      2.275
REMARK  3 active torsions:
REMARK  status: ('A' for Active; 'I' for Inactive)
REMARK    1  A    between atoms: C_3  and  N_4 
REMARK       I    between atoms: N_4  and  C_5 
REMARK    2  A    between atoms: C_5  and  C_6 
REMARK    3  A    between atoms: C_6  and  N_7 
ROOT
HETATM    1  N   UNL     1      -4.723   0.854 -31.679  1.00  0.00    -0.224 N 
HETATM    2  N   UNL     1      -3.564   0.051 -31.617  1.00  0.00    -0.180 NA
HETATM    3  C   UNL     1      -3.548  -1.110 -32.207  1.00  0.00     0.153 A 
HETATM    4  C   UNL     1      -4.688  -1.576 -32.941  1.00  0.00     0.028 A 
HETATM    5  C   UNL     1      -5.801  -0.776 -33.015  1.00  0.00     0.116 A 
HETATM    6  N   UNL     1      -6.740  -1.418 -33.771  1.00  0.00    -0.350 N 
HETATM    7  H   UNL     1      -7.654  -1.047 -33.994  1.00  0.00     0.166 HD
HETATM    8  C   UNL     1      -6.239  -2.632 -34.198  1.00  0.00     0.044 A 
HETATM    9  C   UNL     1      -4.943  -2.757 -33.684  1.00  0.00     0.005 A 
HETATM   10  C   UNL     1      -6.828  -3.618 -34.998  1.00  0.00     0.030 A 
HETATM   11  C   UNL     1      -6.072  -4.759 -35.284  1.00  0.00     0.002 A 
HETATM   12  C   UNL     1      -4.779  -4.908 -34.788  1.00  0.00     0.001 A 
HETATM   13  C   UNL     1      -4.202  -3.916 -33.985  1.00  0.00     0.014 A 
HETATM   14  C   UNL     1      -5.884   0.516 -32.401  1.00  0.00     0.291 A 
HETATM   15  O   UNL     1      -6.871   1.236 -32.498  1.00  0.00    -0.264 OA
ENDROOT
BRANCH   1  16
HETATM   16  C   UNL     1      -4.585   2.214 -31.185  1.00  0.00     0.258 C 
BRANCH  16  17
HETATM   17  C   UNL     1      -3.553   3.186 -31.782  1.00  0.00     0.244 C 
HETATM   18  N   UNL     1      -3.940   4.136 -32.733  1.00  0.00    -0.320 N 
HETATM   19  C   UNL     1      -5.120   4.003 -33.575  1.00  0.00     0.159 C 
HETATM   20  O   UNL     1      -2.430   3.205 -31.255  1.00  0.00    -0.271 OA
BRANCH  18  21
HETATM   21  C   UNL     1      -3.051   5.213 -33.047  1.00  0.00     0.042 A 
HETATM   22  C   UNL     1      -3.140   6.463 -32.399  1.00  0.00    -0.035 A 
HETATM   23  C   UNL     1      -4.184   6.785 -31.363  1.00  0.00     0.050 C 
HETATM   24  C   UNL     1      -2.223   7.476 -32.737  1.00  0.00     0.009 A 
HETATM   25  C   UNL     1      -1.262   7.274 -33.727  1.00  0.00     0.001 A 
HETATM   26  C   UNL     1      -1.200   6.054 -34.391  1.00  0.00     0.002 A 
HETATM   27  C   UNL     1      -2.091   5.033 -34.056  1.00  0.00     0.030 A 
ENDBRANCH  18  21
ENDBRANCH  16  17
ENDBRANCH   1  16
TORSDOF 3
ENDMDL
MODEL 4
REMARK VINA RESULT:      -9.1      1.434      2.136
REMARK  3 active torsions:
REMARK  status: ('A' for Active; 'I' for Inactive)
REMARK    1  A    between atoms: C_3  and  N_4 
REMARK       I    between atoms: N_4  and  C_5 
REMARK    2  A    between atoms: C_5  and  C_6 
REMARK    3  A    between atoms: C_6  and  N_7 
ROOT
HETATM    1  N   UNL     1      -6.152   1.576 -33.541  1.00  0.00    -0.224 N 
HETATM    2  N   UNL     1      -7.277   1.060 -34.218  1.00  0.00    -0.180 NA
HETATM    3  C   UNL     1      -7.301  -0.193 -34.573  1.00  0.00     0.153 A 
HETATM    4  C   UNL     1      -6.206  -1.064 -34.265  1.00  0.00     0.028 A 
HETATM    5  C   UNL     1      -5.127  -0.558 -33.583  1.00  0.00     0.116 A 
HETATM    6  N   UNL     1      -4.228  -1.568 -33.393  1.00  0.00    -0.350 N 
HETATM    7  H   UNL     1      -3.345  -1.472 -32.908  1.00  0.00     0.166 HD
HETATM    8  C   UNL     1      -4.722  -2.736 -33.940  1.00  0.00     0.044 A 
HETATM    9  C   UNL     1      -5.971  -2.443 -34.500  1.00  0.00     0.005 A 
HETATM   10  C   UNL     1      -4.163  -4.019 -33.976  1.00  0.00     0.030 A 
HETATM   11  C   UNL     1      -4.903  -5.030 -34.597  1.00  0.00     0.002 A 
HETATM   12  C   UNL     1      -6.150  -4.768 -35.161  1.00  0.00     0.001 A 
HETATM   13  C   UNL     1      -6.696  -3.479 -35.121  1.00  0.00     0.014 A 
HETATM   14  C   UNL     1      -5.038   0.806 -33.152  1.00  0.00     0.291 A 
HETATM   15  O   UNL     1      -4.084   1.242 -32.518  1.00  0.00    -0.264 OA
ENDROOT
BRANCH   1  16
HETATM   16  C   UNL     1      -6.294   2.914 -32.992  1.00  0.00     0.258 C 
BRANCH  16  17
HETATM   17  C   UNL     1      -5.331   4.050 -33.379  1.00  0.00     0.244 C 
HETATM   18  N   UNL     1      -4.286   4.416 -32.525  1.00  0.00    -0.320 N 
HETATM   19  C   UNL     1      -4.284   4.159 -31.092  1.00  0.00     0.159 C 
HETATM   20  O   UNL     1      -5.417   4.488 -34.536  1.00  0.00    -0.271 OA
BRANCH  18  21
HETATM   21  C   UNL     1      -3.235   5.250 -33.023  1.00  0.00     0.042 A 
HETATM   22  C   UNL     1      -3.165   6.625 -32.712  1.00  0.00    -0.035 A 
HETATM   23  C   UNL     1      -4.194   7.336 -31.874  1.00  0.00     0.050 C 
HETATM   24  C   UNL     1      -2.095   7.387 -33.216  1.00  0.00     0.009 A 
HETATM   25  C   UNL     1      -1.132   6.813 -34.046  1.00  0.00     0.001 A 
HETATM   26  C   UNL     1      -1.223   5.467 -34.382  1.00  0.00     0.002 A 
HETATM   27  C   UNL     1      -2.269   4.692 -33.877  1.00  0.00     0.030 A 
ENDBRANCH  18  21
ENDBRANCH  16  17
ENDBRANCH   1  16
TORSDOF 3
ENDMDL
MODEL 5
REMARK VINA RESULT:      -9.0      4.915      7.300
REMARK  3 active torsions:
REMARK  status: ('A' for Active; 'I' for Inactive)
REMARK    1  A    between atoms: C_3  and  N_4 
REMARK       I    between atoms: N_4  and  C_5 
REMARK    2  A    between atoms: C_5  and  C_6 
REMARK    3  A    between atoms: C_6  and  N_7 
ROOT
HETATM    1  N   UNL     1      -7.425   1.336 -34.105  1.00  0.00    -0.224 N 
HETATM    2  N   UNL     1      -7.704   0.352 -35.078  1.00  0.00    -0.180 NA
HETATM    3  C   UNL     1      -7.024  -0.758 -35.090  1.00  0.00     0.153 A 
HETATM    4  C   UNL     1      -6.006  -1.007 -34.113  1.00  0.00     0.028 A 
HETATM    5  C   UNL     1      -5.759  -0.054 -33.156  1.00  0.00     0.116 A 
HETATM    6  N   UNL     1      -4.770  -0.517 -32.336  1.00  0.00    -0.350 N 
HETATM    7  H   UNL     1      -4.400  -0.017 -31.538  1.00  0.00     0.166 HD
HETATM    8  C   UNL     1      -4.376  -1.774 -32.750  1.00  0.00     0.044 A 
HETATM    9  C   UNL     1      -5.142  -2.106 -33.874  1.00  0.00     0.005 A 
HETATM   10  C   UNL     1      -3.413  -2.637 -32.215  1.00  0.00     0.030 A 
HETATM   11  C   UNL     1      -3.230  -3.873 -32.843  1.00  0.00     0.002 A 
HETATM   12  C   UNL     1      -3.979  -4.230 -33.962  1.00  0.00     0.001 A 
HETATM   13  C   UNL     1      -4.938  -3.356 -34.489  1.00  0.00     0.014 A 
HETATM   14  C   UNL     1      -6.476   1.184 -33.074  1.00  0.00     0.291 A 
HETATM   15  O   UNL     1      -6.269   2.016 -32.198  1.00  0.00    -0.264 OA
ENDROOT
BRANCH   1  16
HETATM   16  C   UNL     1      -8.365   2.440 -34.023  1.00  0.00     0.258 C 
BRANCH  16  17
HETATM   17  C   UNL     1      -9.805   2.236 -33.520  1.00  0.00     0.244 C 
HETATM   18  N   UNL     1     -10.888   2.742 -34.246  1.00  0.00    -0.320 N 
HETATM   19  C   UNL     1     -10.787   3.848 -35.187  1.00  0.00     0.159 C 
HETATM   20  O   UNL     1      -9.960   1.465 -32.560  1.00  0.00    -0.271 OA
BRANCH  18  21
HETATM   21  C   UNL     1     -12.211   2.291 -33.934  1.00  0.00     0.042 A 
HETATM   22  C   UNL     1     -12.982   2.895 -32.919  1.00  0.00    -0.035 A 
HETATM   23  C   UNL     1     -12.479   4.025 -32.059  1.00  0.00     0.050 C 
HETATM   24  C   UNL     1     -14.284   2.420 -32.674  1.00  0.00     0.009 A 
HETATM   25  C   UNL     1     -14.801   1.340 -33.389  1.00  0.00     0.001 A 
HETATM   26  C   UNL     1     -14.025   0.721 -34.364  1.00  0.00     0.002 A 
HETATM   27  C   UNL     1     -12.738   1.191 -34.631  1.00  0.00     0.030 A 
ENDBRANCH  18  21
ENDBRANCH  16  17
ENDBRANCH   1  16
TORSDOF 3
ENDMDL
MODEL 6
REMARK VINA RESULT:      -8.9      4.607      6.512
REMARK  3 active torsions:
REMARK  status: ('A' for Active; 'I' for Inactive)
REMARK    1  A    between atoms: C_3  and  N_4 
REMARK       I    between atoms: N_4  and  C_5 
REMARK    2  A    between atoms: C_5  and  C_6 
REMARK    3  A    between atoms: C_6  and  N_7 
ROOT
HETATM    1  N   UNL     1      -7.207   1.355 -34.021  1.00  0.00    -0.224 N 
HETATM    2  N   UNL     1      -8.034   0.491 -34.772  1.00  0.00    -0.180 NA
HETATM    3  C   UNL     1      -7.672  -0.745 -34.964  1.00  0.00     0.153 A 
HETATM    4  C   UNL     1      -6.453  -1.249 -34.404  1.00  0.00     0.028 A 
HETATM    5  C   UNL     1      -5.670  -0.408 -33.655  1.00  0.00     0.116 A 
HETATM    6  N   UNL     1      -4.582  -1.109 -33.220  1.00  0.00    -0.350 N 
HETATM    7  H   UNL     1      -3.846  -0.731 -32.637  1.00  0.00     0.166 HD
HETATM    8  C   UNL     1      -4.658  -2.411 -33.675  1.00  0.00     0.044 A 
HETATM    9  C   UNL     1      -5.832  -2.524 -34.429  1.00  0.00     0.005 A 
HETATM   10  C   UNL     1      -3.787  -3.488 -33.473  1.00  0.00     0.030 A 
HETATM   11  C   UNL     1      -4.126  -4.714 -34.054  1.00  0.00     0.002 A 
HETATM   12  C   UNL     1      -5.290  -4.856 -34.808  1.00  0.00     0.001 A 
HETATM   13  C   UNL     1      -6.151  -3.769 -35.005  1.00  0.00     0.014 A 
HETATM   14  C   UNL     1      -6.010   0.960 -33.392  1.00  0.00     0.291 A 
HETATM   15  O   UNL     1      -5.319   1.695 -32.697  1.00  0.00    -0.264 OA
ENDROOT
BRANCH   1  16
HETATM   16  C   UNL     1      -7.781   2.643 -33.670  1.00  0.00     0.258 C 
BRANCH  16  17
HETATM   17  C   UNL     1      -9.138   2.753 -32.955  1.00  0.00     0.244 C 
HETATM   18  N   UNL     1     -10.176   3.506 -33.514  1.00  0.00    -0.320 N 
HETATM   19  C   UNL     1      -9.970   4.585 -34.468  1.00  0.00     0.159 C 
HETATM   20  O   UNL     1      -9.319   2.011 -31.977  1.00  0.00    -0.271 OA
BRANCH  18  21
HETATM   21  C   UNL     1     -11.505   3.353 -33.003  1.00  0.00     0.042 A 
HETATM   22  C   UNL     1     -12.419   2.440 -33.570  1.00  0.00    -0.035 A 
HETATM   23  C   UNL     1     -12.099   1.586 -34.768  1.00  0.00     0.050 C 
HETATM   24  C   UNL     1     -13.704   2.321 -33.008  1.00  0.00     0.009 A 
HETATM   25  C   UNL     1     -14.095   3.117 -31.933  1.00  0.00     0.001 A 
HETATM   26  C   UNL     1     -13.205   4.043 -31.399  1.00  0.00     0.002 A 
HETATM   27  C   UNL     1     -11.921   4.162 -31.933  1.00  0.00     0.030 A 
ENDBRANCH  18  21
ENDBRANCH  16  17
ENDBRANCH   1  16
TORSDOF 3
ENDMDL
MODEL 7
REMARK VINA RESULT:      -8.7      2.230      8.688
REMARK  3 active torsions:
REMARK  status: ('A' for Active; 'I' for Inactive)
REMARK    1  A    between atoms: C_3  and  N_4 
REMARK       I    between atoms: N_4  and  C_5 
REMARK    2  A    between atoms: C_5  and  C_6 
REMARK    3  A    between atoms: C_6  and  N_7 
ROOT
HETATM    1  N   UNL     1      -4.884   3.884 -32.281  1.00  0.00    -0.224 N 
HETATM    2  N   UNL     1      -3.749   3.668 -33.092  1.00  0.00    -0.180 NA
HETATM    3  C   UNL     1      -2.628   4.269 -32.811  1.00  0.00     0.153 A 
HETATM    4  C   UNL     1      -2.524   5.133 -31.672  1.00  0.00     0.028 A 
HETATM    5  C   UNL     1      -3.627   5.316 -30.875  1.00  0.00     0.116 A 
HETATM    6  N   UNL     1      -3.284   6.157 -29.856  1.00  0.00    -0.350 N 
HETATM    7  H   UNL     1      -3.908   6.453 -29.116  1.00  0.00     0.166 HD
HETATM    8  C   UNL     1      -1.957   6.517 -29.980  1.00  0.00     0.044 A 
HETATM    9  C   UNL     1      -1.454   5.883 -31.122  1.00  0.00     0.005 A 
HETATM   10  C   UNL     1      -1.169   7.343 -29.169  1.00  0.00     0.030 A 
HETATM   11  C   UNL     1       0.169   7.524 -29.534  1.00  0.00     0.002 A 
HETATM   12  C   UNL     1       0.697   6.904 -30.665  1.00  0.00     0.001 A 
HETATM   13  C   UNL     1      -0.103   6.082 -31.469  1.00  0.00     0.014 A 
HETATM   14  C   UNL     1      -4.888   4.678 -31.117  1.00  0.00     0.291 A 
HETATM   15  O   UNL     1      -5.858   4.824 -30.384  1.00  0.00    -0.264 OA
ENDROOT
BRANCH   1  16
HETATM   16  C   UNL     1      -6.022   3.016 -32.531  1.00  0.00     0.258 C 
BRANCH  16  17
HETATM   17  C   UNL     1      -5.879   1.709 -33.330  1.00  0.00     0.244 C 
HETATM   18  N   UNL     1      -5.616   0.502 -32.674  1.00  0.00    -0.320 N 
HETATM   19  C   UNL     1      -4.997   0.413 -31.360  1.00  0.00     0.159 C 
HETATM   20  O   UNL     1      -6.180   1.750 -34.533  1.00  0.00    -0.271 OA
BRANCH  18  21
HETATM   21  C   UNL     1      -5.786  -0.730 -33.383  1.00  0.00     0.042 A 
HETATM   22  C   UNL     1      -7.064  -1.237 -33.699  1.00  0.00    -0.035 A 
HETATM   23  C   UNL     1      -8.346  -0.560 -33.292  1.00  0.00     0.050 C 
HETATM   24  C   UNL     1      -7.163  -2.443 -34.417  1.00  0.00     0.009 A 
HETATM   25  C   UNL     1      -6.023  -3.159 -34.782  1.00  0.00     0.001 A 
HETATM   26  C   UNL     1      -4.765  -2.677 -34.437  1.00  0.00     0.002 A 
HETATM   27  C   UNL     1      -4.648  -1.473 -33.740  1.00  0.00     0.030 A 
ENDBRANCH  18  21
ENDBRANCH  16  17
ENDBRANCH   1  16
TORSDOF 3
ENDMDL
MODEL 8
REMARK VINA RESULT:      -8.5      3.089      9.582
REMARK  3 active torsions:
REMARK  status: ('A' for Active; 'I' for Inactive)
REMARK    1  A    between atoms: C_3  and  N_4 
REMARK       I    between atoms: N_4  and  C_5 
REMARK    2  A    between atoms: C_5  and  C_6 
REMARK    3  A    between atoms: C_6  and  N_7 
ROOT
HETATM    1  N   UNL     1      -1.485   5.329 -31.797  1.00  0.00    -0.224 N 
HETATM    2  N   UNL     1      -0.170   5.012 -31.394  1.00  0.00    -0.180 NA
HETATM    3  C   UNL     1       0.427   5.745 -30.498  1.00  0.00     0.153 A 
HETATM    4  C   UNL     1      -0.242   6.861 -29.897  1.00  0.00     0.028 A 
HETATM    5  C   UNL     1      -1.530   7.145 -30.278  1.00  0.00     0.116 A 
HETATM    6  N   UNL     1      -1.958   8.228 -29.566  1.00  0.00    -0.350 N 
HETATM    7  H   UNL     1      -2.878   8.644 -29.643  1.00  0.00     0.166 HD
HETATM    8  C   UNL     1      -0.956   8.647 -28.713  1.00  0.00     0.044 A 
HETATM    9  C   UNL     1       0.141   7.799 -28.905  1.00  0.00     0.005 A 
HETATM   10  C   UNL     1      -0.940   9.699 -27.790  1.00  0.00     0.030 A 
HETATM   11  C   UNL     1       0.225   9.887 -27.041  1.00  0.00     0.002 A 
HETATM   12  C   UNL     1       1.332   9.058 -27.210  1.00  0.00     0.001 A 
HETATM   13  C   UNL     1       1.304   8.010 -28.140  1.00  0.00     0.014 A 
HETATM   14  C   UNL     1      -2.253   6.376 -31.248  1.00  0.00     0.291 A 
HETATM   15  O   UNL     1      -3.412   6.619 -31.559  1.00  0.00    -0.264 OA
ENDROOT
BRANCH   1  16
HETATM   16  C   UNL     1      -2.154   4.344 -32.630  1.00  0.00     0.258 C 
BRANCH  16  17
HETATM   17  C   UNL     1      -3.078   3.273 -32.026  1.00  0.00     0.244 C 
HETATM   18  N   UNL     1      -4.346   3.041 -32.570  1.00  0.00    -0.320 N 
HETATM   19  C   UNL     1      -5.081   4.022 -33.356  1.00  0.00     0.159 C 
HETATM   20  O   UNL     1      -2.584   2.522 -31.171  1.00  0.00    -0.271 OA
BRANCH  18  21
HETATM   21  C   UNL     1      -5.060   1.857 -32.200  1.00  0.00     0.042 A 
HETATM   22  C   UNL     1      -5.858   1.803 -31.037  1.00  0.00    -0.035 A 
HETATM   23  C   UNL     1      -5.998   2.954 -30.076  1.00  0.00     0.050 C 
HETATM   24  C   UNL     1      -6.553   0.617 -30.739  1.00  0.00     0.009 A 
HETATM   25  C   UNL     1      -6.430  -0.511 -31.550  1.00  0.00     0.001 A 
HETATM   26  C   UNL     1      -5.614  -0.468 -32.675  1.00  0.00     0.002 A 
HETATM   27  C   UNL     1      -4.931   0.706 -32.995  1.00  0.00     0.030 A 
ENDBRANCH  18  21
ENDBRANCH  16  17
ENDBRANCH   1  16
TORSDOF 3
ENDMDL
MODEL 9
REMARK VINA RESULT:      -8.5      2.130      2.748
REMARK  3 active torsions:
REMARK  status: ('A' for Active; 'I' for Inactive)
REMARK    1  A    between atoms: C_3  and  N_4 
REMARK       I    between atoms: N_4  and  C_5 
REMARK    2  A    between atoms: C_5  and  C_6 
REMARK    3  A    between atoms: C_6  and  N_7 
ROOT
HETATM    1  N   UNL     1      -6.390   2.544 -32.886  1.00  0.00    -0.224 N 
HETATM    2  N   UNL     1      -5.089   2.149 -32.507  1.00  0.00    -0.180 NA
HETATM    3  C   UNL     1      -4.689   0.931 -32.739  1.00  0.00     0.153 A 
HETATM    4  C   UNL     1      -5.546  -0.011 -33.397  1.00  0.00     0.028 A 
HETATM    5  C   UNL     1      -6.800   0.391 -33.784  1.00  0.00     0.116 A 
HETATM    6  N   UNL     1      -7.417  -0.661 -34.397  1.00  0.00    -0.350 N 
HETATM    7  H   UNL     1      -8.350  -0.635 -34.789  1.00  0.00     0.166 HD
HETATM    8  C   UNL     1      -6.565  -1.747 -34.420  1.00  0.00     0.044 A 
HETATM    9  C   UNL     1      -5.375  -1.362 -33.792  1.00  0.00     0.005 A 
HETATM   10  C   UNL     1      -6.754  -3.029 -34.951  1.00  0.00     0.030 A 
HETATM   11  C   UNL     1      -5.699  -3.939 -34.840  1.00  0.00     0.002 A 
HETATM   12  C   UNL     1      -4.503  -3.582 -34.221  1.00  0.00     0.001 A 
HETATM   13  C   UNL     1      -4.327  -2.298 -33.691  1.00  0.00     0.014 A 
HETATM   14  C   UNL     1      -7.302   1.717 -33.572  1.00  0.00     0.291 A 
HETATM   15  O   UNL     1      -8.412   2.075 -33.948  1.00  0.00    -0.264 OA
ENDROOT
BRANCH   1  16
HETATM   16  C   UNL     1      -6.680   3.964 -32.791  1.00  0.00     0.258 C 
BRANCH  16  17
HETATM   17  C   UNL     1      -5.576   5.024 -32.951  1.00  0.00     0.244 C 
HETATM   18  N   UNL     1      -4.727   5.330 -31.883  1.00  0.00    -0.320 N 
HETATM   19  C   UNL     1      -5.066   5.097 -30.486  1.00  0.00     0.159 C 
HETATM   20  O   UNL     1      -5.367   5.449 -34.098  1.00  0.00    -0.271 OA
BRANCH  18  21
HETATM   21  C   UNL     1      -3.533   6.081 -32.131  1.00  0.00     0.042 A 
HETATM   22  C   UNL     1      -2.378   5.482 -32.678  1.00  0.00    -0.035 A 
HETATM   23  C   UNL     1      -2.284   4.016 -33.007  1.00  0.00     0.050 C 
HETATM   24  C   UNL     1      -1.244   6.278 -32.918  1.00  0.00     0.009 A 
HETATM   25  C   UNL     1      -1.233   7.633 -32.588  1.00  0.00     0.001 A 
HETATM   26  C   UNL     1      -2.359   8.213 -32.014  1.00  0.00     0.002 A 
HETATM   27  C   UNL     1      -3.499   7.442 -31.785  1.00  0.00     0.030 A 
ENDBRANCH  18  21
ENDBRANCH  16  17
ENDBRANCH   1  16
TORSDOF 3
ENDMDL
MODEL 10
REMARK VINA RESULT:      -8.5      5.753      7.877
REMARK  3 active torsions:
REMARK  status: ('A' for Active; 'I' for Inactive)
REMARK    1  A    between atoms: C_3  and  N_4 
REMARK       I    between atoms: N_4  and  C_5 
REMARK    2  A    between atoms: C_5  and  C_6 
REMARK    3  A    between atoms: C_6  and  N_7 
ROOT
HETATM    1  N   UNL     1      -8.716   2.812 -33.660  1.00  0.00    -0.224 N 
HETATM    2  N   UNL     1      -9.429   1.762 -34.278  1.00  0.00    -0.180 NA
HETATM    3  C   UNL     1      -8.839   0.624 -34.504  1.00  0.00     0.153 A 
HETATM    4  C   UNL     1      -7.476   0.413 -34.114  1.00  0.00     0.028 A 
HETATM    5  C   UNL     1      -6.799   1.432 -33.492  1.00  0.00     0.116 A 
HETATM    6  N   UNL     1      -5.537   0.996 -33.204  1.00  0.00    -0.350 N 
HETATM    7  H   UNL     1      -4.829   1.545 -32.735  1.00  0.00     0.166 HD
HETATM    8  C   UNL     1      -5.392  -0.310 -33.629  1.00  0.00     0.044 A 
HETATM    9  C   UNL     1      -6.604  -0.701 -34.210  1.00  0.00     0.005 A 
HETATM   10  C   UNL     1      -4.289  -1.169 -33.538  1.00  0.00     0.030 A 
HETATM   11  C   UNL     1      -4.431  -2.462 -34.050  1.00  0.00     0.002 A 
HETATM   12  C   UNL     1      -5.627  -2.879 -34.633  1.00  0.00     0.001 A 
HETATM   13  C   UNL     1      -6.721  -2.009 -34.720  1.00  0.00     0.014 A 
HETATM   14  C   UNL     1      -7.388   2.706 -33.200  1.00  0.00     0.291 A 
HETATM   15  O   UNL     1      -6.785   3.600 -32.618  1.00  0.00    -0.264 OA
ENDROOT
BRANCH   1  16
HETATM   16  C   UNL     1      -9.501   3.963 -33.249  1.00  0.00     0.258 C 
BRANCH  16  17
HETATM   17  C   UNL     1     -10.932   3.809 -32.704  1.00  0.00     0.244 C 
HETATM   18  N   UNL     1     -12.026   3.802 -33.575  1.00  0.00    -0.320 N 
HETATM   19  C   UNL     1     -12.005   4.395 -34.904  1.00  0.00     0.159 C 
HETATM   20  O   UNL     1     -11.047   3.516 -31.504  1.00  0.00    -0.271 OA
BRANCH  18  21
HETATM   21  C   UNL     1     -13.300   3.360 -33.094  1.00  0.00     0.042 A 
HETATM   22  C   UNL     1     -13.719   2.019 -33.224  1.00  0.00    -0.035 A 
HETATM   23  C   UNL     1     -12.895   0.957 -33.903  1.00  0.00     0.050 C 
HETATM   24  C   UNL     1     -14.974   1.643 -32.712  1.00  0.00     0.009 A 
HETATM   25  C   UNL     1     -15.819   2.580 -32.119  1.00  0.00     0.001 A 
HETATM   26  C   UNL     1     -15.420   3.909 -32.026  1.00  0.00     0.002 A 
HETATM   27  C   UNL     1     -14.171   4.297 -32.513  1.00  0.00     0.030 A 
ENDBRANCH  18  21
ENDBRANCH  16  17
ENDBRANCH   1  16
TORSDOF 3
ENDMDL
