MODEL 1
REMARK VINA RESULT:      -9.0      0.000      0.000
REMARK  5 active torsions:
REMARK  status: ('A' for Active; 'I' for Inactive)
REMARK    1  A    between atoms: C_4  and  N_5 
REMARK       I    between atoms: N_5  and  C_6 
REMARK       I    between atoms: C_6  and  N_7 
REMARK    2  A    between atoms: N_7  and  C_8 
REMARK    3  A    between atoms: C_17  and  C_18 
REMARK       I    between atoms: C_18  and  N_19 
REMARK    4  A    between atoms: N_19  and  C_20 
REMARK    5  A    between atoms: C_20  and  C_21 
ROOT
HETATM    1  C   UNL     1      -3.737   5.214 -35.173  1.00  0.00     0.072 C 
HETATM    2  C   UNL     1      -3.799   4.959 -33.709  1.00  0.00     0.056 C 
HETATM    3  N   UNL     1      -2.744   5.406 -32.913  1.00  0.00    -0.228 NA
HETATM    4  C   UNL     1      -2.931   5.025 -31.672  1.00  0.00     0.175 C 
HETATM    5  S   UNL     1      -4.421   4.281 -31.352  1.00  0.00    -0.044 SA
HETATM    6  C   UNL     1      -4.782   4.257 -33.028  1.00  0.00     0.100 C 
ENDROOT
BRANCH   4   7
HETATM    7  N   UNL     1      -1.969   5.204 -30.708  1.00  0.00    -0.287 N 
HETATM    8  C   UNL     1      -1.599   6.415 -30.151  1.00  0.00     0.326 C 
HETATM    9  N   UNL     1      -0.727   6.228 -29.088  1.00  0.00    -0.309 N 
HETATM   10  O   UNL     1      -1.998   7.512 -30.519  1.00  0.00    -0.247 OA
HETATM   11  H   UNL     1      -0.355   5.298 -28.964  1.00  0.00     0.170 HD
HETATM   12  H   UNL     1      -1.690   4.342 -30.270  1.00  0.00     0.172 HD
BRANCH   9  13
HETATM   13  C   UNL     1      -0.261   7.210 -28.183  1.00  0.00     0.037 A 
HETATM   14  C   UNL     1      -0.974   7.646 -27.062  1.00  0.00     0.053 A 
HETATM   15  C   UNL     1      -0.425   8.606 -26.208  1.00  0.00     0.036 A 
HETATM   16 CL   UNL     1      -1.314   9.132 -24.830  1.00  0.00    -0.084 Cl
HETATM   17  C   UNL     1       0.836   9.138 -26.456  1.00  0.00     0.024 A 
HETATM   18  C   UNL     1       1.556   8.710 -27.568  1.00  0.00     0.004 A 
HETATM   19  C   UNL     1       1.008   7.752 -28.427  1.00  0.00     0.029 A 
ENDBRANCH   9  13
ENDBRANCH   4   7
BRANCH   6  20
HETATM   20  C   UNL     1      -5.929   3.529 -33.544  1.00  0.00     0.260 C 
HETATM   21  N   UNL     1      -5.913   2.178 -33.284  1.00  0.00    -0.352 N 
HETATM   22  H   UNL     1      -5.179   1.816 -32.686  1.00  0.00     0.163 HD
HETATM   23  O   UNL     1      -6.821   4.047 -34.207  1.00  0.00    -0.267 OA
BRANCH  21  24
HETATM   24  C   UNL     1      -6.769   1.235 -33.959  1.00  0.00     0.161 C 
BRANCH  24  25
HETATM   25  C   UNL     1      -6.106  -0.120 -34.054  1.00  0.00    -0.040 A 
HETATM   26  C   UNL     1      -4.908  -0.374 -33.368  1.00  0.00     0.012 A 
HETATM   27  C   UNL     1      -4.292  -1.625 -33.460  1.00  0.00     0.043 A 
HETATM   28  C   UNL     1      -4.871  -2.623 -34.234  1.00  0.00     0.116 A 
HETATM   29  F   UNL     1      -4.272  -3.818 -34.328  1.00  0.00    -0.206 F 
HETATM   30  C   UNL     1      -6.064  -2.401 -34.909  1.00  0.00     0.043 A 
HETATM   31  C   UNL     1      -6.687  -1.157 -34.809  1.00  0.00     0.012 A 
ENDBRANCH  24  25
ENDBRANCH  21  24
ENDBRANCH   6  20
TORSDOF 5
ENDMDL
MODEL 2
REMARK VINA RESULT:      -8.7      1.692      1.974
REMARK  5 active torsions:
REMARK  status: ('A' for Active; 'I' for Inactive)
REMARK    1  A    between atoms: C_4  and  N_5 
REMARK       I    between atoms: N_5  and  C_6 
REMARK       I    between atoms: C_6  and  N_7 
REMARK    2  A    between atoms: N_7  and  C_8 
REMARK    3  A    between atoms: C_17  and  C_18 
REMARK       I    between atoms: C_18  and  N_19 
REMARK    4  A    between atoms: N_19  and  C_20 
REMARK    5  A    between atoms: C_20  and  C_21 
ROOT
HETATM    1  C   UNL     1      -5.903   3.884 -34.311  1.00  0.00     0.072 C 
HETATM    2  C   UNL     1      -5.098   3.474 -33.129  1.00  0.00     0.056 C 
HETATM    3  N   UNL     1      -4.047   4.299 -32.725  1.00  0.00    -0.228 NA
HETATM    4  C   UNL     1      -3.405   3.744 -31.726  1.00  0.00     0.175 C 
HETATM    5  S   UNL     1      -4.100   2.326 -31.108  1.00  0.00    -0.044 SA
HETATM    6  C   UNL     1      -5.234   2.306 -32.394  1.00  0.00     0.100 C 
ENDROOT
BRANCH   4   7
HETATM    7  N   UNL     1      -2.237   4.273 -31.234  1.00  0.00    -0.287 N 
HETATM    8  C   UNL     1      -2.122   5.454 -30.524  1.00  0.00     0.326 C 
HETATM    9  N   UNL     1      -0.836   5.612 -30.026  1.00  0.00    -0.309 N 
HETATM   10  O   UNL     1      -3.029   6.252 -30.329  1.00  0.00    -0.247 OA
HETATM   11  H   UNL     1      -0.136   4.969 -30.365  1.00  0.00     0.170 HD
HETATM   12  H   UNL     1      -1.476   3.616 -31.245  1.00  0.00     0.172 HD
BRANCH   9  13
HETATM   13  C   UNL     1      -0.385   6.607 -29.128  1.00  0.00     0.037 A 
HETATM   14  C   UNL     1      -0.946   7.884 -29.023  1.00  0.00     0.053 A 
HETATM   15  C   UNL     1      -0.450   8.797 -28.090  1.00  0.00     0.036 A 
HETATM   16 CL   UNL     1      -1.154  10.365 -27.971  1.00  0.00    -0.084 Cl
HETATM   17  C   UNL     1       0.604   8.453 -27.250  1.00  0.00     0.024 A 
HETATM   18  C   UNL     1       1.170   7.184 -27.344  1.00  0.00     0.004 A 
HETATM   19  C   UNL     1       0.678   6.268 -28.279  1.00  0.00     0.029 A 
ENDBRANCH   9  13
ENDBRANCH   4   7
BRANCH   6  20
HETATM   20  C   UNL     1      -6.103   1.165 -32.619  1.00  0.00     0.260 C 
HETATM   21  N   UNL     1      -5.842   0.465 -33.775  1.00  0.00    -0.352 N 
HETATM   22  H   UNL     1      -5.028   0.728 -34.317  1.00  0.00     0.163 HD
HETATM   23  O   UNL     1      -7.034   0.863 -31.880  1.00  0.00    -0.267 OA
BRANCH  21  24
HETATM   24  C   UNL     1      -6.761  -0.489 -34.343  1.00  0.00     0.161 C 
BRANCH  24  25
HETATM   25  C   UNL     1      -6.146  -1.868 -34.382  1.00  0.00    -0.040 A 
HETATM   26  C   UNL     1      -4.805  -2.059 -34.014  1.00  0.00     0.012 A 
HETATM   27  C   UNL     1      -4.234  -3.334 -34.055  1.00  0.00     0.043 A 
HETATM   28  C   UNL     1      -5.001  -4.420 -34.462  1.00  0.00     0.116 A 
HETATM   29  F   UNL     1      -4.447  -5.639 -34.510  1.00  0.00    -0.206 F 
HETATM   30  C   UNL     1      -6.333  -4.259 -34.816  1.00  0.00     0.043 A 
HETATM   31  C   UNL     1      -6.909  -2.989 -34.764  1.00  0.00     0.012 A 
ENDBRANCH  24  25
ENDBRANCH  21  24
ENDBRANCH   6  20
TORSDOF 5
ENDMDL
MODEL 3
REMARK VINA RESULT:      -8.5      2.170      2.698
REMARK  5 active torsions:
REMARK  status: ('A' for Active; 'I' for Inactive)
REMARK    1  A    between atoms: C_4  and  N_5 
REMARK       I    between atoms: N_5  and  C_6 
REMARK       I    between atoms: C_6  and  N_7 
REMARK    2  A    between atoms: N_7  and  C_8 
REMARK    3  A    between atoms: C_17  and  C_18 
REMARK       I    between atoms: C_18  and  N_19 
REMARK    4  A    between atoms: N_19  and  C_20 
REMARK    5  A    between atoms: C_20  and  C_21 
ROOT
HETATM    1  C   UNL     1      -3.208   0.813 -31.187  1.00  0.00     0.072 C 
HETATM    2  C   UNL     1      -3.519   2.115 -31.835  1.00  0.00     0.056 C 
HETATM    3  N   UNL     1      -2.639   3.180 -31.638  1.00  0.00    -0.228 NA
HETATM    4  C   UNL     1      -3.112   4.260 -32.213  1.00  0.00     0.175 C 
HETATM    5  S   UNL     1      -4.510   4.038 -33.147  1.00  0.00    -0.044 SA
HETATM    6  C   UNL     1      -4.643   2.423 -32.587  1.00  0.00     0.100 C 
ENDROOT
BRANCH   4   7
HETATM    7  N   UNL     1      -2.518   5.487 -32.046  1.00  0.00    -0.287 N 
HETATM    8  C   UNL     1      -2.891   6.447 -31.124  1.00  0.00     0.326 C 
HETATM    9  N   UNL     1      -1.981   7.494 -31.099  1.00  0.00    -0.309 N 
HETATM   10  O   UNL     1      -3.877   6.386 -30.401  1.00  0.00    -0.247 OA
HETATM   11  H   UNL     1      -1.288   7.511 -31.833  1.00  0.00     0.170 HD
HETATM   12  H   UNL     1      -1.630   5.557 -32.514  1.00  0.00     0.172 HD
BRANCH   9  13
HETATM   13  C   UNL     1      -1.944   8.571 -30.183  1.00  0.00     0.037 A 
HETATM   14  C   UNL     1      -1.351   8.507 -28.918  1.00  0.00     0.053 A 
HETATM   15  C   UNL     1      -1.341   9.630 -28.087  1.00  0.00     0.036 A 
HETATM   16 CL   UNL     1      -0.606   9.536 -26.532  1.00  0.00    -0.084 Cl
HETATM   17  C   UNL     1      -1.914  10.827 -28.504  1.00  0.00     0.024 A 
HETATM   18  C   UNL     1      -2.505  10.903 -29.762  1.00  0.00     0.004 A 
HETATM   19  C   UNL     1      -2.520   9.780 -30.596  1.00  0.00     0.029 A 
ENDBRANCH   9  13
ENDBRANCH   4   7
BRANCH   6  20
HETATM   20  C   UNL     1      -5.822   1.621 -32.863  1.00  0.00     0.260 C 
HETATM   21  N   UNL     1      -5.562   0.408 -33.458  1.00  0.00    -0.352 N 
HETATM   22  H   UNL     1      -4.595   0.127 -33.567  1.00  0.00     0.163 HD
HETATM   23  O   UNL     1      -6.968   1.998 -32.642  1.00  0.00    -0.267 OA
BRANCH  21  24
HETATM   24  C   UNL     1      -6.579  -0.392 -34.094  1.00  0.00     0.161 C 
BRANCH  24  25
HETATM   25  C   UNL     1      -6.106  -1.815 -34.277  1.00  0.00    -0.040 A 
HETATM   26  C   UNL     1      -4.752  -2.142 -34.102  1.00  0.00     0.012 A 
HETATM   27  C   UNL     1      -4.313  -3.457 -34.277  1.00  0.00     0.043 A 
HETATM   28  C   UNL     1      -5.225  -4.447 -34.625  1.00  0.00     0.116 A 
HETATM   29  F   UNL     1      -4.798  -5.705 -34.801  1.00  0.00    -0.206 F 
HETATM   30  C   UNL     1      -6.571  -4.152 -34.788  1.00  0.00     0.043 A 
HETATM   31  C   UNL     1      -7.014  -2.842 -34.602  1.00  0.00     0.012 A 
ENDBRANCH  24  25
ENDBRANCH  21  24
ENDBRANCH   6  20
TORSDOF 5
ENDMDL
MODEL 4
REMARK VINA RESULT:      -8.4      6.287      9.999
REMARK  5 active torsions:
REMARK  status: ('A' for Active; 'I' for Inactive)
REMARK    1  A    between atoms: C_4  and  N_5 
REMARK       I    between atoms: N_5  and  C_6 
REMARK       I    between atoms: C_6  and  N_7 
REMARK    2  A    between atoms: N_7  and  C_8 
REMARK    3  A    between atoms: C_17  and  C_18 
REMARK       I    between atoms: C_18  and  N_19 
REMARK    4  A    between atoms: N_19  and  C_20 
REMARK    5  A    between atoms: C_20  and  C_21 
ROOT
HETATM    1  C   UNL     1      -5.470   3.023 -29.837  1.00  0.00     0.072 C 
HETATM    2  C   UNL     1      -6.339   2.587 -30.963  1.00  0.00     0.056 C 
HETATM    3  N   UNL     1      -7.543   3.261 -31.171  1.00  0.00    -0.228 NA
HETATM    4  C   UNL     1      -8.208   2.693 -32.148  1.00  0.00     0.175 C 
HETATM    5  S   UNL     1      -7.383   1.463 -32.974  1.00  0.00    -0.044 SA
HETATM    6  C   UNL     1      -6.115   1.522 -31.822  1.00  0.00     0.100 C 
ENDROOT
BRANCH   4   7
HETATM    7  N   UNL     1      -9.492   3.065 -32.460  1.00  0.00    -0.287 N 
HETATM    8  C   UNL     1     -10.509   2.212 -32.849  1.00  0.00     0.326 C 
HETATM    9  N   UNL     1     -11.721   2.883 -32.920  1.00  0.00    -0.309 N 
HETATM   10  O   UNL     1     -10.378   1.017 -33.080  1.00  0.00    -0.247 OA
HETATM   11  H   UNL     1     -11.689   3.889 -32.850  1.00  0.00     0.170 HD
HETATM   12  H   UNL     1      -9.706   4.006 -32.174  1.00  0.00     0.172 HD
BRANCH   9  13
HETATM   13  C   UNL     1     -13.000   2.315 -33.129  1.00  0.00     0.037 A 
HETATM   14  C   UNL     1     -14.143   2.665 -32.405  1.00  0.00     0.053 A 
HETATM   15  C   UNL     1     -15.372   2.069 -32.696  1.00  0.00     0.036 A 
HETATM   16 CL   UNL     1     -16.772   2.511 -31.796  1.00  0.00    -0.084 Cl
HETATM   17  C   UNL     1     -15.480   1.122 -33.710  1.00  0.00     0.024 A 
HETATM   18  C   UNL     1     -14.348   0.767 -34.440  1.00  0.00     0.004 A 
HETATM   19  C   UNL     1     -13.116   1.361 -34.149  1.00  0.00     0.029 A 
ENDBRANCH   9  13
ENDBRANCH   4   7
BRANCH   6  20
HETATM   20  C   UNL     1      -5.062   0.521 -31.804  1.00  0.00     0.260 C 
HETATM   21  N   UNL     1      -4.585   0.171 -33.046  1.00  0.00    -0.352 N 
HETATM   22  H   UNL     1      -4.921   0.689 -33.850  1.00  0.00     0.163 HD
HETATM   23  O   UNL     1      -4.654  -0.019 -30.781  1.00  0.00    -0.267 OA
BRANCH  21  24
HETATM   24  C   UNL     1      -3.782  -1.004 -33.280  1.00  0.00     0.161 C 
BRANCH  24  25
HETATM   25  C   UNL     1      -4.613  -2.110 -33.887  1.00  0.00    -0.040 A 
HETATM   26  C   UNL     1      -5.899  -1.843 -34.382  1.00  0.00     0.012 A 
HETATM   27  C   UNL     1      -6.670  -2.867 -34.939  1.00  0.00     0.043 A 
HETATM   28  C   UNL     1      -6.157  -4.158 -35.003  1.00  0.00     0.116 A 
HETATM   29  F   UNL     1      -6.904  -5.139 -35.528  1.00  0.00    -0.206 F 
HETATM   30  C   UNL     1      -4.883  -4.443 -34.535  1.00  0.00     0.043 A 
HETATM   31  C   UNL     1      -4.106  -3.420 -33.990  1.00  0.00     0.012 A 
ENDBRANCH  24  25
ENDBRANCH  21  24
ENDBRANCH   6  20
TORSDOF 5
ENDMDL
MODEL 5
REMARK VINA RESULT:      -8.4      2.409      3.462
REMARK  5 active torsions:
REMARK  status: ('A' for Active; 'I' for Inactive)
REMARK    1  A    between atoms: C_4  and  N_5 
REMARK       I    between atoms: N_5  and  C_6 
REMARK       I    between atoms: C_6  and  N_7 
REMARK    2  A    between atoms: N_7  and  C_8 
REMARK    3  A    between atoms: C_17  and  C_18 
REMARK       I    between atoms: C_18  and  N_19 
REMARK    4  A    between atoms: N_19  and  C_20 
REMARK    5  A    between atoms: C_20  and  C_21 
ROOT
HETATM    1  C   UNL     1      -9.301   3.666 -34.150  1.00  0.00     0.072 C 
HETATM    2  C   UNL     1      -7.898   3.448 -33.706  1.00  0.00     0.056 C 
HETATM    3  N   UNL     1      -7.060   4.558 -33.587  1.00  0.00    -0.228 NA
HETATM    4  C   UNL     1      -5.849   4.169 -33.265  1.00  0.00     0.175 C 
HETATM    5  S   UNL     1      -5.680   2.517 -32.921  1.00  0.00    -0.044 SA
HETATM    6  C   UNL     1      -7.288   2.231 -33.443  1.00  0.00     0.100 C 
ENDROOT
BRANCH   4   7
HETATM    7  N   UNL     1      -4.794   5.046 -33.231  1.00  0.00    -0.287 N 
HETATM    8  C   UNL     1      -4.040   5.361 -32.115  1.00  0.00     0.326 C 
HETATM    9  N   UNL     1      -2.946   6.143 -32.458  1.00  0.00    -0.309 N 
HETATM   10  O   UNL     1      -4.278   4.987 -30.974  1.00  0.00    -0.247 OA
HETATM   11  H   UNL     1      -2.926   6.509 -33.398  1.00  0.00     0.170 HD
HETATM   12  H   UNL     1      -4.462   5.293 -34.148  1.00  0.00     0.172 HD
BRANCH   9  13
HETATM   13  C   UNL     1      -1.874   6.526 -31.618  1.00  0.00     0.037 A 
HETATM   14  C   UNL     1      -1.978   7.472 -30.593  1.00  0.00     0.053 A 
HETATM   15  C   UNL     1      -0.871   7.772 -29.797  1.00  0.00     0.036 A 
HETATM   16 CL   UNL     1      -1.014   8.939 -28.538  1.00  0.00    -0.084 Cl
HETATM   17  C   UNL     1       0.348   7.133 -30.005  1.00  0.00     0.024 A 
HETATM   18  C   UNL     1       0.462   6.188 -31.020  1.00  0.00     0.004 A 
HETATM   19  C   UNL     1      -0.644   5.887 -31.822  1.00  0.00     0.029 A 
ENDBRANCH   9  13
ENDBRANCH   4   7
BRANCH   6  20
HETATM   20  C   UNL     1      -7.800   0.881 -33.609  1.00  0.00     0.260 C 
HETATM   21  N   UNL     1      -6.963   0.031 -34.294  1.00  0.00    -0.352 N 
HETATM   22  H   UNL     1      -6.039   0.367 -34.539  1.00  0.00     0.163 HD
HETATM   23  O   UNL     1      -8.909   0.523 -33.225  1.00  0.00    -0.267 OA
BRANCH  21  24
HETATM   24  C   UNL     1      -7.395  -1.233 -34.837  1.00  0.00     0.161 C 
BRANCH  24  25
HETATM   25  C   UNL     1      -6.350  -2.300 -34.605  1.00  0.00    -0.040 A 
HETATM   26  C   UNL     1      -5.099  -1.965 -34.065  1.00  0.00     0.012 A 
HETATM   27  C   UNL     1      -4.131  -2.952 -33.856  1.00  0.00     0.043 A 
HETATM   28  C   UNL     1      -4.412  -4.272 -34.186  1.00  0.00     0.116 A 
HETATM   29  F   UNL     1      -3.477  -5.213 -33.994  1.00  0.00    -0.206 F 
HETATM   30  C   UNL     1      -5.647  -4.631 -34.707  1.00  0.00     0.043 A 
HETATM   31  C   UNL     1      -6.619  -3.650 -34.905  1.00  0.00     0.012 A 
ENDBRANCH  24  25
ENDBRANCH  21  24
ENDBRANCH   6  20
TORSDOF 5
ENDMDL
MODEL 6
REMARK VINA RESULT:      -8.4      1.645      2.144
REMARK  5 active torsions:
REMARK  status: ('A' for Active; 'I' for Inactive)
REMARK    1  A    between atoms: C_4  and  N_5 
REMARK       I    between atoms: N_5  and  C_6 
REMARK       I    between atoms: C_6  and  N_7 
REMARK    2  A    between atoms: N_7  and  C_8 
REMARK    3  A    between atoms: C_17  and  C_18 
REMARK       I    between atoms: C_18  and  N_19 
REMARK    4  A    between atoms: N_19  and  C_20 
REMARK    5  A    between atoms: C_20  and  C_21 
ROOT
HETATM    1  C   UNL     1      -3.383   2.022 -31.932  1.00  0.00     0.072 C 
HETATM    2  C   UNL     1      -3.076   3.456 -32.180  1.00  0.00     0.056 C 
HETATM    3  N   UNL     1      -1.957   4.012 -31.559  1.00  0.00    -0.228 NA
HETATM    4  C   UNL     1      -1.891   5.294 -31.827  1.00  0.00     0.175 C 
HETATM    5  S   UNL     1      -3.026   5.866 -32.948  1.00  0.00    -0.044 SA
HETATM    6  C   UNL     1      -3.824   4.349 -32.933  1.00  0.00     0.100 C 
ENDROOT
BRANCH   4   7
HETATM    7  N   UNL     1      -0.970   6.112 -31.218  1.00  0.00    -0.287 N 
HETATM    8  C   UNL     1      -1.126   6.732 -29.992  1.00  0.00     0.326 C 
HETATM    9  N   UNL     1       0.053   7.343 -29.590  1.00  0.00    -0.309 N 
HETATM   10  O   UNL     1      -2.152   6.729 -29.325  1.00  0.00    -0.247 OA
HETATM   11  H   UNL     1       0.790   7.405 -30.277  1.00  0.00     0.170 HD
HETATM   12  H   UNL     1      -0.060   6.059 -31.644  1.00  0.00     0.172 HD
BRANCH   9  13
HETATM   13  C   UNL     1       0.323   7.935 -28.334  1.00  0.00     0.037 A 
HETATM   14  C   UNL     1      -0.221   9.150 -27.905  1.00  0.00     0.053 A 
HETATM   15  C   UNL     1       0.083   9.648 -26.636  1.00  0.00     0.036 A 
HETATM   16 CL   UNL     1      -0.596  11.145 -26.122  1.00  0.00    -0.084 Cl
HETATM   17  C   UNL     1       0.924   8.946 -25.780  1.00  0.00     0.024 A 
HETATM   18  C   UNL     1       1.470   7.734 -26.195  1.00  0.00     0.004 A 
HETATM   19  C   UNL     1       1.170   7.233 -27.466  1.00  0.00     0.029 A 
ENDBRANCH   9  13
ENDBRANCH   4   7
BRANCH   6  20
HETATM   20  C   UNL     1      -5.109   4.163 -33.586  1.00  0.00     0.260 C 
HETATM   21  N   UNL     1      -6.065   3.557 -32.805  1.00  0.00    -0.352 N 
HETATM   22  H   UNL     1      -5.844   3.379 -31.832  1.00  0.00     0.163 HD
HETATM   23  O   UNL     1      -5.327   4.465 -34.755  1.00  0.00    -0.267 OA
BRANCH  21  24
HETATM   24  C   UNL     1      -7.283   3.000 -33.339  1.00  0.00     0.161 C 
BRANCH  24  25
HETATM   25  C   UNL     1      -7.124   1.522 -33.608  1.00  0.00    -0.040 A 
HETATM   26  C   UNL     1      -7.370   1.002 -34.889  1.00  0.00     0.012 A 
HETATM   27  C   UNL     1      -7.228  -0.366 -35.136  1.00  0.00     0.043 A 
HETATM   28  C   UNL     1      -6.840  -1.216 -34.106  1.00  0.00     0.116 A 
HETATM   29  F   UNL     1      -6.716  -2.529 -34.345  1.00  0.00    -0.206 F 
HETATM   30  C   UNL     1      -6.577  -0.724 -32.836  1.00  0.00     0.043 A 
HETATM   31  C   UNL     1      -6.706   0.643 -32.589  1.00  0.00     0.012 A 
ENDBRANCH  24  25
ENDBRANCH  21  24
ENDBRANCH   6  20
TORSDOF 5
ENDMDL
MODEL 7
REMARK VINA RESULT:      -8.3      5.859      9.388
REMARK  5 active torsions:
REMARK  status: ('A' for Active; 'I' for Inactive)
REMARK    1  A    between atoms: C_4  and  N_5 
REMARK       I    between atoms: N_5  and  C_6 
REMARK       I    between atoms: C_6  and  N_7 
REMARK    2  A    between atoms: N_7  and  C_8 
REMARK    3  A    between atoms: C_17  and  C_18 
REMARK       I    between atoms: C_18  and  N_19 
REMARK    4  A    between atoms: N_19  and  C_20 
REMARK    5  A    between atoms: C_20  and  C_21 
ROOT
HETATM    1  C   UNL     1      -4.124   3.564 -31.145  1.00  0.00     0.072 C 
HETATM    2  C   UNL     1      -5.285   2.910 -31.805  1.00  0.00     0.056 C 
HETATM    3  N   UNL     1      -6.402   3.690 -32.109  1.00  0.00    -0.228 NA
HETATM    4  C   UNL     1      -7.350   2.934 -32.609  1.00  0.00     0.175 C 
HETATM    5  S   UNL     1      -6.919   1.321 -32.905  1.00  0.00    -0.044 SA
HETATM    6  C   UNL     1      -5.418   1.564 -32.113  1.00  0.00     0.100 C 
ENDROOT
BRANCH   4   7
HETATM    7  N   UNL     1      -8.609   3.423 -32.855  1.00  0.00    -0.287 N 
HETATM    8  C   UNL     1      -9.787   2.703 -32.768  1.00  0.00     0.326 C 
HETATM    9  N   UNL     1     -10.889   3.534 -32.909  1.00  0.00    -0.309 N 
HETATM   10  O   UNL     1      -9.864   1.498 -32.570  1.00  0.00    -0.247 OA
HETATM   11  H   UNL     1     -10.710   4.480 -33.210  1.00  0.00     0.170 HD
HETATM   12  H   UNL     1      -8.636   4.428 -32.900  1.00  0.00     0.172 HD
BRANCH   9  13
HETATM   13  C   UNL     1     -12.248   3.188 -32.723  1.00  0.00     0.037 A 
HETATM   14  C   UNL     1     -12.938   2.262 -33.512  1.00  0.00     0.053 A 
HETATM   15  C   UNL     1     -14.275   1.963 -33.240  1.00  0.00     0.036 A 
HETATM   16 CL   UNL     1     -15.111   0.819 -34.219  1.00  0.00    -0.084 Cl
HETATM   17  C   UNL     1     -14.940   2.577 -32.183  1.00  0.00     0.024 A 
HETATM   18  C   UNL     1     -14.262   3.499 -31.389  1.00  0.00     0.004 A 
HETATM   19  C   UNL     1     -12.924   3.802 -31.660  1.00  0.00     0.029 A 
ENDBRANCH   9  13
ENDBRANCH   4   7
BRANCH   6  20
HETATM   20  C   UNL     1      -4.535   0.451 -31.806  1.00  0.00     0.260 C 
HETATM   21  N   UNL     1      -4.081  -0.238 -32.907  1.00  0.00    -0.352 N 
HETATM   22  H   UNL     1      -4.306   0.127 -33.825  1.00  0.00     0.163 HD
HETATM   23  O   UNL     1      -4.249   0.105 -30.665  1.00  0.00    -0.267 OA
BRANCH  21  24
HETATM   24  C   UNL     1      -3.465  -1.539 -32.823  1.00  0.00     0.161 C 
BRANCH  24  25
HETATM   25  C   UNL     1      -4.273  -2.565 -33.584  1.00  0.00    -0.040 A 
HETATM   26  C   UNL     1      -5.418  -2.181 -34.299  1.00  0.00     0.012 A 
HETATM   27  C   UNL     1      -6.168  -3.130 -34.997  1.00  0.00     0.043 A 
HETATM   28  C   UNL     1      -5.776  -4.464 -34.984  1.00  0.00     0.116 A 
HETATM   29  F   UNL     1      -6.504  -5.373 -35.646  1.00  0.00    -0.206 F 
HETATM   30  C   UNL     1      -4.639  -4.866 -34.297  1.00  0.00     0.043 A 
HETATM   31  C   UNL     1      -3.881  -3.918 -33.609  1.00  0.00     0.012 A 
ENDBRANCH  24  25
ENDBRANCH  21  24
ENDBRANCH   6  20
TORSDOF 5
ENDMDL
MODEL 8
REMARK VINA RESULT:      -8.2      6.077      9.241
REMARK  5 active torsions:
REMARK  status: ('A' for Active; 'I' for Inactive)
REMARK    1  A    between atoms: C_4  and  N_5 
REMARK       I    between atoms: N_5  and  C_6 
REMARK       I    between atoms: C_6  and  N_7 
REMARK    2  A    between atoms: N_7  and  C_8 
REMARK    3  A    between atoms: C_17  and  C_18 
REMARK       I    between atoms: C_18  and  N_19 
REMARK    4  A    between atoms: N_19  and  C_20 
REMARK    5  A    between atoms: C_20  and  C_21 
ROOT
HETATM    1  C   UNL     1      -5.482   3.647 -29.858  1.00  0.00     0.072 C 
HETATM    2  C   UNL     1      -6.737   3.234 -30.542  1.00  0.00     0.056 C 
HETATM    3  N   UNL     1      -7.955   3.603 -29.971  1.00  0.00    -0.228 NA
HETATM    4  C   UNL     1      -8.944   3.088 -30.661  1.00  0.00     0.175 C 
HETATM    5  S   UNL     1      -8.501   2.300 -32.096  1.00  0.00    -0.044 SA
HETATM    6  C   UNL     1      -6.844   2.454 -31.683  1.00  0.00     0.100 C 
ENDROOT
BRANCH   4   7
HETATM    7  N   UNL     1     -10.246   3.170 -30.231  1.00  0.00    -0.287 N 
HETATM    8  C   UNL     1     -11.170   4.118 -30.630  1.00  0.00     0.326 C 
HETATM    9  N   UNL     1     -12.434   3.816 -30.144  1.00  0.00    -0.309 N 
HETATM   10  O   UNL     1     -10.927   5.087 -31.338  1.00  0.00    -0.247 OA
HETATM   11  H   UNL     1     -12.493   3.080 -29.457  1.00  0.00     0.170 HD
HETATM   12  H   UNL     1     -10.551   2.341 -29.750  1.00  0.00     0.172 HD
BRANCH   9  13
HETATM   13  C   UNL     1     -13.650   4.462 -30.470  1.00  0.00     0.037 A 
HETATM   14  C   UNL     1     -14.120   5.617 -29.837  1.00  0.00     0.053 A 
HETATM   15  C   UNL     1     -15.323   6.201 -30.240  1.00  0.00     0.036 A 
HETATM   16 CL   UNL     1     -15.889   7.624 -29.452  1.00  0.00    -0.084 Cl
HETATM   17  C   UNL     1     -16.069   5.648 -31.276  1.00  0.00     0.024 A 
HETATM   18  C   UNL     1     -15.610   4.499 -31.915  1.00  0.00     0.004 A 
HETATM   19  C   UNL     1     -14.407   3.910 -31.512  1.00  0.00     0.029 A 
ENDBRANCH   9  13
ENDBRANCH   4   7
BRANCH   6  20
HETATM   20  C   UNL     1      -5.809   1.776 -32.444  1.00  0.00     0.260 C 
HETATM   21  N   UNL     1      -5.812   0.406 -32.320  1.00  0.00    -0.352 N 
HETATM   22  H   UNL     1      -6.571  -0.025 -31.804  1.00  0.00     0.163 HD
HETATM   23  O   UNL     1      -4.958   2.361 -33.106  1.00  0.00    -0.267 OA
BRANCH  21  24
HETATM   24  C   UNL     1      -4.705  -0.425 -32.724  1.00  0.00     0.161 C 
BRANCH  24  25
HETATM   25  C   UNL     1      -5.192  -1.626 -33.502  1.00  0.00    -0.040 A 
HETATM   26  C   UNL     1      -4.301  -2.647 -33.865  1.00  0.00     0.012 A 
HETATM   27  C   UNL     1      -4.751  -3.755 -34.589  1.00  0.00     0.043 A 
HETATM   28  C   UNL     1      -6.089  -3.844 -34.951  1.00  0.00     0.116 A 
HETATM   29  F   UNL     1      -6.514  -4.903 -35.654  1.00  0.00    -0.206 F 
HETATM   30  C   UNL     1      -6.993  -2.855 -34.591  1.00  0.00     0.043 A 
HETATM   31  C   UNL     1      -6.550  -1.754 -33.857  1.00  0.00     0.012 A 
ENDBRANCH  24  25
ENDBRANCH  21  24
ENDBRANCH   6  20
TORSDOF 5
ENDMDL
MODEL 9
REMARK VINA RESULT:      -8.2      4.559     10.088
REMARK  5 active torsions:
REMARK  status: ('A' for Active; 'I' for Inactive)
REMARK    1  A    between atoms: C_4  and  N_5 
REMARK       I    between atoms: N_5  and  C_6 
REMARK       I    between atoms: C_6  and  N_7 
REMARK    2  A    between atoms: N_7  and  C_8 
REMARK    3  A    between atoms: C_17  and  C_18 
REMARK       I    between atoms: C_18  and  N_19 
REMARK    4  A    between atoms: N_19  and  C_20 
REMARK    5  A    between atoms: C_20  and  C_21 
ROOT
HETATM    1  C   UNL     1      -7.394   6.207 -32.213  1.00  0.00     0.072 C 
HETATM    2  C   UNL     1      -6.309   5.194 -32.318  1.00  0.00     0.056 C 
HETATM    3  N   UNL     1      -6.658   3.843 -32.283  1.00  0.00    -0.228 NA
HETATM    4  C   UNL     1      -5.575   3.104 -32.306  1.00  0.00     0.175 C 
HETATM    5  S   UNL     1      -4.121   3.944 -32.540  1.00  0.00    -0.044 SA
HETATM    6  C   UNL     1      -4.946   5.439 -32.389  1.00  0.00     0.100 C 
ENDROOT
BRANCH   4   7
HETATM    7  N   UNL     1      -5.626   1.742 -32.131  1.00  0.00    -0.287 N 
HETATM    8  C   UNL     1      -5.814   0.806 -33.131  1.00  0.00     0.326 C 
HETATM    9  N   UNL     1      -5.640  -0.482 -32.645  1.00  0.00    -0.309 N 
HETATM   10  O   UNL     1      -6.075   1.063 -34.299  1.00  0.00    -0.247 OA
HETATM   11  H   UNL     1      -5.570  -0.584 -31.644  1.00  0.00     0.170 HD
HETATM   12  H   UNL     1      -5.295   1.453 -31.226  1.00  0.00     0.172 HD
BRANCH   9  13
HETATM   13  C   UNL     1      -5.599  -1.679 -33.397  1.00  0.00     0.037 A 
HETATM   14  C   UNL     1      -4.502  -2.547 -33.434  1.00  0.00     0.053 A 
HETATM   15  C   UNL     1      -4.559  -3.721 -34.187  1.00  0.00     0.036 A 
HETATM   16 CL   UNL     1      -3.201  -4.780 -34.222  1.00  0.00    -0.084 Cl
HETATM   17  C   UNL     1      -5.703  -4.050 -34.907  1.00  0.00     0.024 A 
HETATM   18  C   UNL     1      -6.802  -3.195 -34.876  1.00  0.00     0.004 A 
HETATM   19  C   UNL     1      -6.748  -2.016 -34.125  1.00  0.00     0.029 A 
ENDBRANCH   9  13
ENDBRANCH   4   7
BRANCH   6  20
HETATM   20  C   UNL     1      -4.224   6.696 -32.294  1.00  0.00     0.260 C 
HETATM   21  N   UNL     1      -3.029   6.722 -32.976  1.00  0.00    -0.352 N 
HETATM   22  H   UNL     1      -2.794   5.925 -33.556  1.00  0.00     0.163 HD
HETATM   23  O   UNL     1      -4.604   7.650 -31.622  1.00  0.00    -0.267 OA
BRANCH  21  24
HETATM   24  C   UNL     1      -2.022   7.732 -32.763  1.00  0.00     0.161 C 
BRANCH  24  25
HETATM   25  C   UNL     1      -1.183   7.405 -31.550  1.00  0.00    -0.040 A 
HETATM   26  C   UNL     1      -1.372   8.102 -30.346  1.00  0.00     0.012 A 
HETATM   27  C   UNL     1      -0.593   7.803 -29.225  1.00  0.00     0.043 A 
HETATM   28  C   UNL     1       0.376   6.810 -29.305  1.00  0.00     0.116 A 
HETATM   29  F   UNL     1       1.128   6.534 -28.231  1.00  0.00    -0.206 F 
HETATM   30  C   UNL     1       0.572   6.097 -30.479  1.00  0.00     0.043 A 
HETATM   31  C   UNL     1      -0.214   6.384 -31.596  1.00  0.00     0.012 A 
ENDBRANCH  24  25
ENDBRANCH  21  24
ENDBRANCH   6  20
TORSDOF 5
ENDMDL
MODEL 10
REMARK VINA RESULT:      -8.1      6.990      9.351
REMARK  5 active torsions:
REMARK  status: ('A' for Active; 'I' for Inactive)
REMARK    1  A    between atoms: C_4  and  N_5 
REMARK       I    between atoms: N_5  and  C_6 
REMARK       I    between atoms: C_6  and  N_7 
REMARK    2  A    between atoms: N_7  and  C_8 
REMARK    3  A    between atoms: C_17  and  C_18 
REMARK       I    between atoms: C_18  and  N_19 
REMARK    4  A    between atoms: N_19  and  C_20 
REMARK    5  A    between atoms: C_20  and  C_21 
ROOT
HETATM    1  C   UNL     1      -9.639   0.055 -32.726  1.00  0.00     0.072 C 
HETATM    2  C   UNL     1      -9.353   1.500 -32.523  1.00  0.00     0.056 C 
HETATM    3  N   UNL     1     -10.341   2.426 -32.863  1.00  0.00    -0.228 NA
HETATM    4  C   UNL     1      -9.886   3.644 -32.694  1.00  0.00     0.175 C 
HETATM    5  S   UNL     1      -8.357   3.759 -31.971  1.00  0.00    -0.044 SA
HETATM    6  C   UNL     1      -8.165   2.059 -32.076  1.00  0.00     0.100 C 
ENDROOT
BRANCH   4   7
HETATM    7  N   UNL     1     -10.602   4.745 -33.097  1.00  0.00    -0.287 N 
HETATM    8  C   UNL     1     -10.407   5.451 -34.269  1.00  0.00     0.326 C 
HETATM    9  N   UNL     1     -11.406   6.396 -34.453  1.00  0.00    -0.309 N 
HETATM   10  O   UNL     1      -9.493   5.264 -35.062  1.00  0.00    -0.247 OA
HETATM   11  H   UNL     1     -12.024   6.562 -33.673  1.00  0.00     0.170 HD
HETATM   12  H   UNL     1     -11.444   4.879 -32.562  1.00  0.00     0.172 HD
BRANCH   9  13
HETATM   13  C   UNL     1     -11.628   7.191 -35.602  1.00  0.00     0.037 A 
HETATM   14  C   UNL     1     -10.646   7.974 -36.217  1.00  0.00     0.053 A 
HETATM   15  C   UNL     1     -10.948   8.710 -37.364  1.00  0.00     0.036 A 
HETATM   16 CL   UNL     1      -9.728   9.669 -38.111  1.00  0.00    -0.084 Cl
HETATM   17  C   UNL     1     -12.226   8.675 -37.915  1.00  0.00     0.024 A 
HETATM   18  C   UNL     1     -13.211   7.897 -37.312  1.00  0.00     0.004 A 
HETATM   19  C   UNL     1     -12.912   7.161 -36.162  1.00  0.00     0.029 A 
ENDBRANCH   9  13
ENDBRANCH   4   7
BRANCH   6  20
HETATM   20  C   UNL     1      -6.893   1.421 -31.781  1.00  0.00     0.260 C 
HETATM   21  N   UNL     1      -6.143   1.101 -32.889  1.00  0.00    -0.352 N 
HETATM   22  H   UNL     1      -6.474   1.412 -33.795  1.00  0.00     0.163 HD
HETATM   23  O   UNL     1      -6.524   1.133 -30.647  1.00  0.00    -0.267 OA
BRANCH  21  24
HETATM   24  C   UNL     1      -5.019   0.199 -32.847  1.00  0.00     0.161 C 
BRANCH  24  25
HETATM   25  C   UNL     1      -5.345  -1.096 -33.555  1.00  0.00    -0.040 A 
HETATM   26  C   UNL     1      -6.656  -1.366 -33.976  1.00  0.00     0.012 A 
HETATM   27  C   UNL     1      -6.958  -2.566 -34.625  1.00  0.00     0.043 A 
HETATM   28  C   UNL     1      -5.952  -3.497 -34.856  1.00  0.00     0.116 A 
HETATM   29  F   UNL     1      -6.248  -4.650 -35.470  1.00  0.00    -0.206 F 
HETATM   30  C   UNL     1      -4.645  -3.246 -34.463  1.00  0.00     0.043 A 
HETATM   31  C   UNL     1      -4.338  -2.044 -33.825  1.00  0.00     0.012 A 
ENDBRANCH  24  25
ENDBRANCH  21  24
ENDBRANCH   6  20
TORSDOF 5
ENDMDL
