MODEL 1
REMARK VINA RESULT:      -8.3      0.000      0.000
REMARK  2 active torsions:
REMARK  status: ('A' for Active; 'I' for Inactive)
REMARK    1  A    between atoms: C_8  and  N_9 
REMARK       I    between atoms: N_9  and  C_10 
REMARK       I    between atoms: C_10  and  N_11 
REMARK    2  A    between atoms: N_11  and  C_12 
ROOT
HETATM    1  C   UNL     1      -5.764  -3.498 -34.812  1.00  0.00     0.044 A 
HETATM    2  C   UNL     1      -4.551  -3.162 -34.235  1.00  0.00     0.117 A 
HETATM    3  F   UNL     1      -3.485  -3.948 -34.432  1.00  0.00    -0.206 F 
HETATM    4  C   UNL     1      -4.432  -2.036 -33.432  1.00  0.00     0.067 A 
HETATM    5  C   UNL     1      -5.545  -1.210 -33.198  1.00  0.00     0.074 A 
HETATM    6  C   UNL     1      -5.374  -0.153 -32.244  1.00  0.00     0.102 C 
HETATM    7  N   UNL     1      -5.235   0.684 -31.450  1.00  0.00    -0.191 NA
HETATM    8  C   UNL     1      -6.781  -1.520 -33.806  1.00  0.00     0.057 A 
HETATM    9  C   UNL     1      -6.876  -2.684 -34.593  1.00  0.00     0.034 A 
ENDROOT
BRANCH   8  10
HETATM   10  N   UNL     1      -7.992  -0.797 -33.650  1.00  0.00    -0.308 N 
HETATM   11  C   UNL     1      -8.324   0.400 -34.229  1.00  0.00     0.321 C 
HETATM   12  N   UNL     1      -9.451   0.938 -33.654  1.00  0.00    -0.336 N 
HETATM   13  O   UNL     1      -7.739   0.966 -35.143  1.00  0.00    -0.247 OA
HETATM   14  H   UNL     1      -9.688   0.576 -32.738  1.00  0.00     0.164 HD
HETATM   15  H   UNL     1      -8.793  -1.342 -33.354  1.00  0.00     0.170 HD
BRANCH  12  16
HETATM   16  C   UNL     1     -10.043   2.224 -34.035  1.00  0.00     0.118 C 
HETATM   17  C   UNL     1     -11.582   2.280 -34.111  1.00  0.00     0.210 C 
HETATM   18  N   UNL     1     -11.976   2.636 -32.706  1.00  0.00    -0.065 N 
HETATM   19  C   UNL     1     -12.350   1.043 -34.547  1.00  0.00     0.035 C 
HETATM   20  H   UNL     1     -11.763   1.802 -32.110  1.00  0.00     0.280 HD
HETATM   21  C   UNL     1     -13.421   2.965 -32.549  1.00  0.00     0.235 C 
HETATM   22  C   UNL     1     -10.992   3.683 -32.282  1.00  0.00     0.237 C 
HETATM   23  C   UNL     1     -14.254   1.779 -33.024  1.00  0.00     0.028 C 
HETATM   24  C   UNL     1     -13.857   1.288 -34.419  1.00  0.00     0.004 C 
HETATM   25  C   UNL     1      -9.703   3.343 -33.036  1.00  0.00     0.055 C 
ENDBRANCH  12  16
ENDBRANCH   8  10
TORSDOF 2
ENDMDL
MODEL 2
REMARK VINA RESULT:      -8.0      1.609      2.696
REMARK  2 active torsions:
REMARK  status: ('A' for Active; 'I' for Inactive)
REMARK    1  A    between atoms: C_8  and  N_9 
REMARK       I    between atoms: N_9  and  C_10 
REMARK       I    between atoms: C_10  and  N_11 
REMARK    2  A    between atoms: N_11  and  C_12 
ROOT
HETATM    1  C   UNL     1      -5.938  -3.962 -34.843  1.00  0.00     0.044 A 
HETATM    2  C   UNL     1      -4.720  -3.825 -34.197  1.00  0.00     0.117 A 
HETATM    3  F   UNL     1      -3.944  -4.900 -34.017  1.00  0.00    -0.206 F 
HETATM    4  C   UNL     1      -4.307  -2.592 -33.709  1.00  0.00     0.067 A 
HETATM    5  C   UNL     1      -5.119  -1.457 -33.873  1.00  0.00     0.074 A 
HETATM    6  C   UNL     1      -4.687  -0.257 -33.215  1.00  0.00     0.102 C 
HETATM    7  N   UNL     1      -4.345   0.703 -32.657  1.00  0.00    -0.191 NA
HETATM    8  C   UNL     1      -6.347  -1.571 -34.558  1.00  0.00     0.057 A 
HETATM    9  C   UNL     1      -6.751  -2.840 -35.018  1.00  0.00     0.034 A 
ENDROOT
BRANCH   8  10
HETATM   10  N   UNL     1      -7.279  -0.525 -34.783  1.00  0.00    -0.308 N 
HETATM   11  C   UNL     1      -8.201  -0.031 -33.898  1.00  0.00     0.321 C 
HETATM   12  N   UNL     1      -9.111   0.786 -34.526  1.00  0.00    -0.336 N 
HETATM   13  O   UNL     1      -8.260  -0.248 -32.694  1.00  0.00    -0.247 OA
HETATM   14  H   UNL     1      -9.176   0.672 -35.531  1.00  0.00     0.164 HD
HETATM   15  H   UNL     1      -7.041   0.122 -35.526  1.00  0.00     0.170 HD
BRANCH  12  16
HETATM   16  C   UNL     1     -10.236   1.444 -33.857  1.00  0.00     0.118 C 
HETATM   17  C   UNL     1     -10.277   2.983 -33.926  1.00  0.00     0.210 C 
HETATM   18  N   UNL     1     -11.023   3.244 -35.203  1.00  0.00    -0.065 N 
HETATM   19  C   UNL     1      -8.970   3.760 -33.943  1.00  0.00     0.035 C 
HETATM   20  H   UNL     1     -10.394   2.952 -35.988  1.00  0.00     0.280 HD
HETATM   21  C   UNL     1     -11.390   4.674 -35.407  1.00  0.00     0.235 C 
HETATM   22  C   UNL     1     -12.143   2.248 -35.208  1.00  0.00     0.237 C 
HETATM   23  C   UNL     1     -10.123   5.520 -35.379  1.00  0.00     0.028 C 
HETATM   24  C   UNL     1      -9.250   5.253 -34.149  1.00  0.00     0.004 C 
HETATM   25  C   UNL     1     -11.594   1.033 -34.454  1.00  0.00     0.055 C 
ENDBRANCH  12  16
ENDBRANCH   8  10
TORSDOF 2
ENDMDL
MODEL 3
REMARK VINA RESULT:      -7.9      4.081      6.425
REMARK  2 active torsions:
REMARK  status: ('A' for Active; 'I' for Inactive)
REMARK    1  A    between atoms: C_8  and  N_9 
REMARK       I    between atoms: N_9  and  C_10 
REMARK       I    between atoms: C_10  and  N_11 
REMARK    2  A    between atoms: N_11  and  C_12 
ROOT
HETATM    1  C   UNL     1      -4.725  -3.943 -34.395  1.00  0.00     0.044 A 
HETATM    2  C   UNL     1      -6.034  -4.104 -34.817  1.00  0.00     0.117 A 
HETATM    3  F   UNL     1      -6.465  -5.317 -35.183  1.00  0.00    -0.206 F 
HETATM    4  C   UNL     1      -6.897  -3.019 -34.892  1.00  0.00     0.067 A 
HETATM    5  C   UNL     1      -6.454  -1.735 -34.530  1.00  0.00     0.074 A 
HETATM    6  C   UNL     1      -7.360  -0.649 -34.773  1.00  0.00     0.102 C 
HETATM    7  N   UNL     1      -8.088   0.227 -34.998  1.00  0.00    -0.191 NA
HETATM    8  C   UNL     1      -5.133  -1.558 -34.065  1.00  0.00     0.057 A 
HETATM    9  C   UNL     1      -4.274  -2.674 -34.027  1.00  0.00     0.034 A 
ENDROOT
BRANCH   8  10
HETATM   10  N   UNL     1      -4.539  -0.328 -33.685  1.00  0.00    -0.308 N 
HETATM   11  C   UNL     1      -4.383   0.160 -32.413  1.00  0.00     0.321 C 
HETATM   12  N   UNL     1      -4.017   1.485 -32.427  1.00  0.00    -0.336 N 
HETATM   13  O   UNL     1      -4.530  -0.453 -31.363  1.00  0.00    -0.247 OA
HETATM   14  H   UNL     1      -4.208   1.980 -33.290  1.00  0.00     0.164 HD
HETATM   15  H   UNL     1      -3.898   0.076 -34.357  1.00  0.00     0.170 HD
BRANCH  12  16
HETATM   16  C   UNL     1      -3.800   2.298 -31.227  1.00  0.00     0.118 C 
HETATM   17  C   UNL     1      -3.289   3.735 -31.449  1.00  0.00     0.210 C 
HETATM   18  N   UNL     1      -4.557   4.521 -31.622  1.00  0.00    -0.065 N 
HETATM   19  C   UNL     1      -2.361   4.020 -32.619  1.00  0.00     0.035 C 
HETATM   20  H   UNL     1      -4.970   4.234 -32.541  1.00  0.00     0.280 HD
HETATM   21  C   UNL     1      -4.354   5.998 -31.644  1.00  0.00     0.235 C 
HETATM   22  C   UNL     1      -5.493   3.980 -30.585  1.00  0.00     0.237 C 
HETATM   23  C   UNL     1      -3.384   6.348 -32.766  1.00  0.00     0.028 C 
HETATM   24  C   UNL     1      -2.093   5.526 -32.722  1.00  0.00     0.004 C 
HETATM   25  C   UNL     1      -5.094   2.510 -30.422  1.00  0.00     0.055 C 
ENDBRANCH  12  16
ENDBRANCH   8  10
TORSDOF 2
ENDMDL
MODEL 4
REMARK VINA RESULT:      -7.7      5.513      8.356
REMARK  2 active torsions:
REMARK  status: ('A' for Active; 'I' for Inactive)
REMARK    1  A    between atoms: C_8  and  N_9 
REMARK       I    between atoms: N_9  and  C_10 
REMARK       I    between atoms: C_10  and  N_11 
REMARK    2  A    between atoms: N_11  and  C_12 
ROOT
HETATM    1  C   UNL     1      -1.002   6.037 -32.267  1.00  0.00     0.044 A 
HETATM    2  C   UNL     1      -1.726   7.217 -32.246  1.00  0.00     0.117 A 
HETATM    3  F   UNL     1      -1.102   8.370 -31.979  1.00  0.00    -0.206 F 
HETATM    4  C   UNL     1      -3.096   7.215 -32.471  1.00  0.00     0.067 A 
HETATM    5  C   UNL     1      -3.771   6.011 -32.734  1.00  0.00     0.074 A 
HETATM    6  C   UNL     1      -5.202   6.078 -32.811  1.00  0.00     0.102 C 
HETATM    7  N   UNL     1      -6.361   6.136 -32.845  1.00  0.00    -0.191 NA
HETATM    8  C   UNL     1      -3.042   4.803 -32.792  1.00  0.00     0.057 A 
HETATM    9  C   UNL     1      -1.658   4.834 -32.533  1.00  0.00     0.034 A 
ENDROOT
BRANCH   8  10
HETATM   10  N   UNL     1      -3.583   3.512 -33.026  1.00  0.00    -0.308 N 
HETATM   11  C   UNL     1      -3.960   2.588 -32.087  1.00  0.00     0.321 C 
HETATM   12  N   UNL     1      -4.185   1.358 -32.658  1.00  0.00    -0.336 N 
HETATM   13  O   UNL     1      -4.098   2.771 -30.884  1.00  0.00    -0.247 OA
HETATM   14  H   UNL     1      -3.768   1.219 -33.571  1.00  0.00     0.164 HD
HETATM   15  H   UNL     1      -4.025   3.379 -33.928  1.00  0.00     0.170 HD
BRANCH  12  16
HETATM   16  C   UNL     1      -4.574   0.157 -31.914  1.00  0.00     0.118 C 
HETATM   17  C   UNL     1      -5.276  -0.957 -32.717  1.00  0.00     0.210 C 
HETATM   18  N   UNL     1      -4.128  -1.777 -33.230  1.00  0.00    -0.065 N 
HETATM   19  C   UNL     1      -6.178  -0.577 -33.880  1.00  0.00     0.035 C 
HETATM   20  H   UNL     1      -3.633  -1.194 -33.946  1.00  0.00     0.280 HD
HETATM   21  C   UNL     1      -4.539  -3.056 -33.874  1.00  0.00     0.235 C 
HETATM   22  C   UNL     1      -3.175  -1.872 -32.078  1.00  0.00     0.237 C 
HETATM   23  C   UNL     1      -5.495  -2.749 -35.021  1.00  0.00     0.028 C 
HETATM   24  C   UNL     1      -6.655  -1.838 -34.608  1.00  0.00     0.004 C 
HETATM   25  C   UNL     1      -3.364  -0.568 -31.298  1.00  0.00     0.055 C 
ENDBRANCH  12  16
ENDBRANCH   8  10
TORSDOF 2
ENDMDL
MODEL 5
REMARK VINA RESULT:      -7.6      3.556      6.270
REMARK  2 active torsions:
REMARK  status: ('A' for Active; 'I' for Inactive)
REMARK    1  A    between atoms: C_8  and  N_9 
REMARK       I    between atoms: N_9  and  C_10 
REMARK       I    between atoms: C_10  and  N_11 
REMARK    2  A    between atoms: N_11  and  C_12 
ROOT
HETATM    1  C   UNL     1      -4.444  -2.340 -34.255  1.00  0.00     0.044 A 
HETATM    2  C   UNL     1      -5.641  -2.827 -34.752  1.00  0.00     0.117 A 
HETATM    3  F   UNL     1      -5.634  -3.894 -35.561  1.00  0.00    -0.206 F 
HETATM    4  C   UNL     1      -6.845  -2.208 -34.446  1.00  0.00     0.067 A 
HETATM    5  C   UNL     1      -6.868  -1.076 -33.614  1.00  0.00     0.074 A 
HETATM    6  C   UNL     1      -8.131  -0.412 -33.465  1.00  0.00     0.102 C 
HETATM    7  N   UNL     1      -9.151   0.135 -33.371  1.00  0.00    -0.191 NA
HETATM    8  C   UNL     1      -5.661  -0.585 -33.070  1.00  0.00     0.057 A 
HETATM    9  C   UNL     1      -4.453  -1.219 -33.422  1.00  0.00     0.034 A 
ENDROOT
BRANCH   8  10
HETATM   10  N   UNL     1      -5.523   0.553 -32.235  1.00  0.00    -0.308 N 
HETATM   11  C   UNL     1      -5.616   1.870 -32.606  1.00  0.00     0.321 C 
HETATM   12  N   UNL     1      -5.167   2.703 -31.608  1.00  0.00    -0.336 N 
HETATM   13  O   UNL     1      -6.037   2.311 -33.667  1.00  0.00    -0.247 OA
HETATM   14  H   UNL     1      -4.573   2.267 -30.912  1.00  0.00     0.164 HD
HETATM   15  H   UNL     1      -5.688   0.396 -31.248  1.00  0.00     0.170 HD
BRANCH  12  16
HETATM   16  C   UNL     1      -5.112   4.164 -31.710  1.00  0.00     0.118 C 
HETATM   17  C   UNL     1      -3.923   4.759 -32.489  1.00  0.00     0.210 C 
HETATM   18  N   UNL     1      -4.427   4.787 -33.903  1.00  0.00    -0.065 N 
HETATM   19  C   UNL     1      -2.580   4.047 -32.452  1.00  0.00     0.035 C 
HETATM   20  H   UNL     1      -4.493   3.792 -34.223  1.00  0.00     0.280 HD
HETATM   21  C   UNL     1      -3.539   5.523 -34.847  1.00  0.00     0.235 C 
HETATM   22  C   UNL     1      -5.846   5.259 -33.799  1.00  0.00     0.237 C 
HETATM   23  C   UNL     1      -2.152   4.891 -34.817  1.00  0.00     0.028 C 
HETATM   24  C   UNL     1      -1.593   4.739 -33.399  1.00  0.00     0.004 C 
HETATM   25  C   UNL     1      -6.334   4.746 -32.441  1.00  0.00     0.055 C 
ENDBRANCH  12  16
ENDBRANCH   8  10
TORSDOF 2
ENDMDL
MODEL 6
REMARK VINA RESULT:      -7.4      8.862     11.154
REMARK  2 active torsions:
REMARK  status: ('A' for Active; 'I' for Inactive)
REMARK    1  A    between atoms: C_8  and  N_9 
REMARK       I    between atoms: N_9  and  C_10 
REMARK       I    between atoms: C_10  and  N_11 
REMARK    2  A    between atoms: N_11  and  C_12 
ROOT
HETATM    1  C   UNL     1       1.716   8.639 -27.893  1.00  0.00     0.044 A 
HETATM    2  C   UNL     1       1.731   8.462 -26.519  1.00  0.00     0.117 A 
HETATM    3  F   UNL     1       2.637   9.113 -25.780  1.00  0.00    -0.206 F 
HETATM    4  C   UNL     1       0.837   7.597 -25.903  1.00  0.00     0.067 A 
HETATM    5  C   UNL     1      -0.108   6.891 -26.666  1.00  0.00     0.074 A 
HETATM    6  C   UNL     1      -0.895   5.912 -25.972  1.00  0.00     0.102 C 
HETATM    7  N   UNL     1      -1.509   5.103 -25.409  1.00  0.00    -0.191 NA
HETATM    8  C   UNL     1      -0.160   7.085 -28.064  1.00  0.00     0.057 A 
HETATM    9  C   UNL     1       0.778   7.948 -28.663  1.00  0.00     0.034 A 
ENDROOT
BRANCH   8  10
HETATM   10  N   UNL     1      -1.040   6.432 -28.965  1.00  0.00    -0.308 N 
HETATM   11  C   UNL     1      -0.698   5.660 -30.045  1.00  0.00     0.321 C 
HETATM   12  N   UNL     1      -1.787   5.411 -30.847  1.00  0.00    -0.336 N 
HETATM   13  O   UNL     1       0.411   5.217 -30.316  1.00  0.00    -0.247 OA
HETATM   14  H   UNL     1      -2.570   6.042 -30.725  1.00  0.00     0.164 HD
HETATM   15  H   UNL     1      -1.972   6.249 -28.613  1.00  0.00     0.170 HD
BRANCH  12  16
HETATM   16  C   UNL     1      -1.742   4.638 -32.091  1.00  0.00     0.118 C 
HETATM   17  C   UNL     1      -3.083   4.081 -32.607  1.00  0.00     0.210 C 
HETATM   18  N   UNL     1      -3.613   5.205 -33.450  1.00  0.00    -0.065 N 
HETATM   19  C   UNL     1      -4.148   3.662 -31.606  1.00  0.00     0.035 C 
HETATM   20  H   UNL     1      -3.874   5.980 -32.795  1.00  0.00     0.280 HD
HETATM   21  C   UNL     1      -4.819   4.845 -34.249  1.00  0.00     0.235 C 
HETATM   22  C   UNL     1      -2.425   5.715 -34.207  1.00  0.00     0.237 C 
HETATM   23  C   UNL     1      -5.913   4.361 -33.305  1.00  0.00     0.028 C 
HETATM   24  C   UNL     1      -5.435   3.270 -32.341  1.00  0.00     0.004 C 
HETATM   25  C   UNL     1      -1.231   5.472 -33.279  1.00  0.00     0.055 C 
ENDBRANCH  12  16
ENDBRANCH   8  10
TORSDOF 2
ENDMDL
MODEL 7
REMARK VINA RESULT:      -7.4      6.139      9.151
REMARK  2 active torsions:
REMARK  status: ('A' for Active; 'I' for Inactive)
REMARK    1  A    between atoms: C_8  and  N_9 
REMARK       I    between atoms: N_9  and  C_10 
REMARK       I    between atoms: C_10  and  N_11 
REMARK    2  A    between atoms: N_11  and  C_12 
ROOT
HETATM    1  C   UNL     1      -4.927  -0.086 -33.018  1.00  0.00     0.044 A 
HETATM    2  C   UNL     1      -5.938   0.164 -33.932  1.00  0.00     0.117 A 
HETATM    3  F   UNL     1      -6.446  -0.847 -34.647  1.00  0.00    -0.206 F 
HETATM    4  C   UNL     1      -6.410   1.453 -34.136  1.00  0.00     0.067 A 
HETATM    5  C   UNL     1      -5.874   2.529 -33.407  1.00  0.00     0.074 A 
HETATM    6  C   UNL     1      -6.314   3.843 -33.780  1.00  0.00     0.102 C 
HETATM    7  N   UNL     1      -6.655   4.904 -34.106  1.00  0.00    -0.191 NA
HETATM    8  C   UNL     1      -4.867   2.287 -32.447  1.00  0.00     0.057 A 
HETATM    9  C   UNL     1      -4.390   0.972 -32.283  1.00  0.00     0.034 A 
ENDROOT
BRANCH   8  10
HETATM   10  N   UNL     1      -4.218   3.267 -31.653  1.00  0.00    -0.308 N 
HETATM   11  C   UNL     1      -3.185   4.087 -32.027  1.00  0.00     0.321 C 
HETATM   12  N   UNL     1      -2.628   4.718 -30.940  1.00  0.00    -0.336 N 
HETATM   13  O   UNL     1      -2.767   4.278 -33.162  1.00  0.00    -0.247 OA
HETATM   14  H   UNL     1      -2.821   4.289 -30.042  1.00  0.00     0.164 HD
HETATM   15  H   UNL     1      -4.752   3.619 -30.867  1.00  0.00     0.170 HD
BRANCH  12  16
HETATM   16  C   UNL     1      -1.489   5.637 -31.008  1.00  0.00     0.118 C 
HETATM   17  C   UNL     1      -1.269   6.556 -29.790  1.00  0.00     0.210 C 
HETATM   18  N   UNL     1      -0.405   5.721 -28.889  1.00  0.00    -0.065 N 
HETATM   19  C   UNL     1      -2.474   7.052 -29.007  1.00  0.00     0.035 C 
HETATM   20  H   UNL     1      -1.002   4.937 -28.535  1.00  0.00     0.280 HD
HETATM   21  C   UNL     1       0.137   6.462 -27.715  1.00  0.00     0.235 C 
HETATM   22  C   UNL     1       0.592   5.072 -29.801  1.00  0.00     0.237 C 
HETATM   23  C   UNL     1      -1.025   7.036 -26.912  1.00  0.00     0.028 C 
HETATM   24  C   UNL     1      -2.012   7.832 -27.771  1.00  0.00     0.004 C 
HETATM   25  C   UNL     1      -0.146   4.895 -31.131  1.00  0.00     0.055 C 
ENDBRANCH  12  16
ENDBRANCH   8  10
TORSDOF 2
ENDMDL
MODEL 8
REMARK VINA RESULT:      -7.4      5.328      7.498
REMARK  2 active torsions:
REMARK  status: ('A' for Active; 'I' for Inactive)
REMARK    1  A    between atoms: C_8  and  N_9 
REMARK       I    between atoms: N_9  and  C_10 
REMARK       I    between atoms: C_10  and  N_11 
REMARK    2  A    between atoms: N_11  and  C_12 
ROOT
HETATM    1  C   UNL     1      -0.609   5.547 -30.712  1.00  0.00     0.044 A 
HETATM    2  C   UNL     1      -0.221   6.299 -31.809  1.00  0.00     0.117 A 
HETATM    3  F   UNL     1       0.849   7.098 -31.717  1.00  0.00    -0.206 F 
HETATM    4  C   UNL     1      -0.943   6.255 -32.994  1.00  0.00     0.067 A 
HETATM    5  C   UNL     1      -2.080   5.436 -33.102  1.00  0.00     0.074 A 
HETATM    6  C   UNL     1      -2.850   5.558 -34.306  1.00  0.00     0.102 C 
HETATM    7  N   UNL     1      -3.483   5.683 -35.272  1.00  0.00    -0.191 NA
HETATM    8  C   UNL     1      -2.470   4.638 -32.004  1.00  0.00     0.057 A 
HETATM    9  C   UNL     1      -1.733   4.725 -30.808  1.00  0.00     0.034 A 
ENDROOT
BRANCH   8  10
HETATM   10  N   UNL     1      -3.599   3.780 -31.955  1.00  0.00    -0.308 N 
HETATM   11  C   UNL     1      -3.611   2.439 -31.673  1.00  0.00     0.321 C 
HETATM   12  N   UNL     1      -4.828   1.875 -31.974  1.00  0.00    -0.336 N 
HETATM   13  O   UNL     1      -2.694   1.773 -31.209  1.00  0.00    -0.247 OA
HETATM   14  H   UNL     1      -5.407   2.406 -32.614  1.00  0.00     0.164 HD
HETATM   15  H   UNL     1      -4.490   4.237 -31.798  1.00  0.00     0.170 HD
BRANCH  12  16
HETATM   16  C   UNL     1      -5.147   0.454 -31.811  1.00  0.00     0.118 C 
HETATM   17  C   UNL     1      -6.636   0.065 -31.907  1.00  0.00     0.210 C 
HETATM   18  N   UNL     1      -6.828  -0.171 -33.377  1.00  0.00    -0.065 N 
HETATM   19  C   UNL     1      -7.692   1.041 -31.415  1.00  0.00     0.035 C 
HETATM   20  H   UNL     1      -6.760   0.762 -33.847  1.00  0.00     0.280 HD
HETATM   21  C   UNL     1      -8.147  -0.773 -33.725  1.00  0.00     0.235 C 
HETATM   22  C   UNL     1      -5.605  -0.920 -33.813  1.00  0.00     0.237 C 
HETATM   23  C   UNL     1      -9.257   0.135 -33.208  1.00  0.00     0.028 C 
HETATM   24  C   UNL     1      -9.092   0.504 -31.730  1.00  0.00     0.004 C 
HETATM   25  C   UNL     1      -4.488  -0.422 -32.891  1.00  0.00     0.055 C 
ENDBRANCH  12  16
ENDBRANCH   8  10
TORSDOF 2
ENDMDL
MODEL 9
REMARK VINA RESULT:      -7.3      3.620      7.724
REMARK  2 active torsions:
REMARK  status: ('A' for Active; 'I' for Inactive)
REMARK    1  A    between atoms: C_8  and  N_9 
REMARK       I    between atoms: N_9  and  C_10 
REMARK       I    between atoms: C_10  and  N_11 
REMARK    2  A    between atoms: N_11  and  C_12 
ROOT
HETATM    1  C   UNL     1     -12.820   3.603 -35.434  1.00  0.00     0.044 A 
HETATM    2  C   UNL     1     -12.586   4.941 -35.164  1.00  0.00     0.117 A 
HETATM    3  F   UNL     1     -13.570   5.832 -35.343  1.00  0.00    -0.206 F 
HETATM    4  C   UNL     1     -11.338   5.375 -34.739  1.00  0.00     0.067 A 
HETATM    5  C   UNL     1     -10.289   4.455 -34.565  1.00  0.00     0.074 A 
HETATM    6  C   UNL     1      -8.997   5.002 -34.265  1.00  0.00     0.102 C 
HETATM    7  N   UNL     1      -7.950   5.453 -34.048  1.00  0.00    -0.191 NA
HETATM    8  C   UNL     1     -10.520   3.083 -34.803  1.00  0.00     0.057 A 
HETATM    9  C   UNL     1     -11.789   2.678 -35.259  1.00  0.00     0.034 A 
ENDROOT
BRANCH   8  10
HETATM   10  N   UNL     1      -9.560   2.044 -34.690  1.00  0.00    -0.308 N 
HETATM   11  C   UNL     1      -9.117   1.445 -33.539  1.00  0.00     0.321 C 
HETATM   12  N   UNL     1      -8.002   0.675 -33.774  1.00  0.00    -0.336 N 
HETATM   13  O   UNL     1      -9.605   1.541 -32.421  1.00  0.00    -0.247 OA
HETATM   14  H   UNL     1      -7.500   0.885 -34.629  1.00  0.00     0.164 HD
HETATM   15  H   UNL     1      -9.427   1.478 -35.520  1.00  0.00     0.170 HD
BRANCH  12  16
HETATM   16  C   UNL     1      -7.276  -0.070 -32.742  1.00  0.00     0.118 C 
HETATM   17  C   UNL     1      -6.577  -1.369 -33.190  1.00  0.00     0.210 C 
HETATM   18  N   UNL     1      -5.228  -0.888 -33.639  1.00  0.00    -0.065 N 
HETATM   19  C   UNL     1      -7.203  -2.206 -34.294  1.00  0.00     0.035 C 
HETATM   20  H   UNL     1      -5.378  -0.341 -34.520  1.00  0.00     0.280 HD
HETATM   21  C   UNL     1      -4.262  -1.985 -33.930  1.00  0.00     0.235 C 
HETATM   22  C   UNL     1      -4.817   0.125 -32.614  1.00  0.00     0.237 C 
HETATM   23  C   UNL     1      -4.854  -2.898 -34.997  1.00  0.00     0.028 C 
HETATM   24  C   UNL     1      -6.274  -3.368 -34.663  1.00  0.00     0.004 C 
HETATM   25  C   UNL     1      -6.128   0.749 -32.127  1.00  0.00     0.055 C 
ENDBRANCH  12  16
ENDBRANCH   8  10
TORSDOF 2
ENDMDL
MODEL 10
REMARK VINA RESULT:      -7.3      5.729      7.882
REMARK  2 active torsions:
REMARK  status: ('A' for Active; 'I' for Inactive)
REMARK    1  A    between atoms: C_8  and  N_9 
REMARK       I    between atoms: N_9  and  C_10 
REMARK       I    between atoms: C_10  and  N_11 
REMARK    2  A    between atoms: N_11  and  C_12 
ROOT
HETATM    1  C   UNL     1      -0.689   6.003 -30.069  1.00  0.00     0.044 A 
HETATM    2  C   UNL     1       0.015   6.729 -31.015  1.00  0.00     0.117 A 
HETATM    3  F   UNL     1       0.852   7.695 -30.617  1.00  0.00    -0.206 F 
HETATM    4  C   UNL     1      -0.158   6.488 -32.371  1.00  0.00     0.067 A 
HETATM    5  C   UNL     1      -1.048   5.491 -32.807  1.00  0.00     0.074 A 
HETATM    6  C   UNL     1      -1.276   5.405 -34.220  1.00  0.00     0.102 C 
HETATM    7  N   UNL     1      -1.475   5.359 -35.363  1.00  0.00    -0.191 NA
HETATM    8  C   UNL     1      -1.748   4.718 -31.855  1.00  0.00     0.057 A 
HETATM    9  C   UNL     1      -1.572   5.005 -30.488  1.00  0.00     0.034 A 
ENDROOT
BRANCH   8  10
HETATM   10  N   UNL     1      -2.689   3.696 -32.140  1.00  0.00    -0.308 N 
HETATM   11  C   UNL     1      -4.026   3.691 -31.834  1.00  0.00     0.321 C 
HETATM   12  N   UNL     1      -4.575   2.443 -32.013  1.00  0.00    -0.336 N 
HETATM   13  O   UNL     1      -4.700   4.638 -31.452  1.00  0.00    -0.247 OA
HETATM   14  H   UNL     1      -3.913   1.675 -32.033  1.00  0.00     0.164 HD
HETATM   15  H   UNL     1      -2.443   3.072 -32.899  1.00  0.00     0.170 HD
BRANCH  12  16
HETATM   16  C   UNL     1      -5.976   2.106 -31.744  1.00  0.00     0.118 C 
HETATM   17  C   UNL     1      -6.725   1.335 -32.849  1.00  0.00     0.210 C 
HETATM   18  N   UNL     1      -6.429  -0.099 -32.519  1.00  0.00    -0.065 N 
HETATM   19  C   UNL     1      -6.374   1.596 -34.305  1.00  0.00     0.035 C 
HETATM   20  H   UNL     1      -5.413  -0.254 -32.719  1.00  0.00     0.280 HD
HETATM   21  C   UNL     1      -7.217  -1.078 -33.320  1.00  0.00     0.235 C 
HETATM   22  C   UNL     1      -6.552  -0.187 -31.028  1.00  0.00     0.237 C 
HETATM   23  C   UNL     1      -6.952  -0.835 -34.801  1.00  0.00     0.028 C 
HETATM   24  C   UNL     1      -7.143   0.629 -35.212  1.00  0.00     0.004 C 
HETATM   25  C   UNL     1      -6.133   1.194 -30.515  1.00  0.00     0.055 C 
ENDBRANCH  12  16
ENDBRANCH   8  10
TORSDOF 2
ENDMDL
