MODEL 1
REMARK VINA RESULT:      -9.2      0.000      0.000
REMARK  6 active torsions:
REMARK  status: ('A' for Active; 'I' for Inactive)
REMARK    1  A    between atoms: C_5  and  N_6 
REMARK       I    between atoms: N_6  and  C_7 
REMARK    2  A    between atoms: C_7  and  C_8 
REMARK    3  A    between atoms: C_8  and  N_9 
REMARK    4  A    between atoms: C_8  and  C_17 
REMARK       I    between atoms: N_9  and  C_10 
REMARK    5  A    between atoms: C_10  and  C_11 
REMARK    6  A    between atoms: C_17  and  C_18 
ROOT
HETATM    1  C   UNL     1      -5.312   2.220 -30.906  1.00  0.00     0.181 C 
ENDROOT
BRANCH   1   2
HETATM    2  C   UNL     1      -5.197   0.745 -31.361  1.00  0.00     0.245 C 
HETATM    3  N   UNL     1      -5.350   0.555 -32.721  1.00  0.00    -0.325 N 
HETATM    4  H   UNL     1      -5.350   1.400 -33.293  1.00  0.00     0.169 HD
HETATM    5  O   UNL     1      -4.962  -0.133 -30.532  1.00  0.00    -0.271 OA
BRANCH   3   6
HETATM    6  C   UNL     1      -5.455  -0.663 -33.419  1.00  0.00     0.034 A 
HETATM    7  C   UNL     1      -4.383  -1.522 -33.659  1.00  0.00     0.030 A 
HETATM    8  C   UNL     1      -4.580  -2.732 -34.335  1.00  0.00     0.009 A 
HETATM    9  C   UNL     1      -5.852  -3.102 -34.784  1.00  0.00    -0.062 A 
HETATM   10  C   UNL     1      -6.069  -4.421 -35.463  1.00  0.00     0.048 C 
HETATM   11  C   UNL     1      -6.929  -2.247 -34.531  1.00  0.00     0.009 A 
HETATM   12  C   UNL     1      -6.729  -1.036 -33.861  1.00  0.00     0.030 A 
ENDBRANCH   3   6
ENDBRANCH   1   2
BRANCH   1  13
HETATM   13  N   UNL     1      -4.750   3.121 -31.920  1.00  0.00    -0.342 N 
HETATM   14  C   UNL     1      -3.413   3.412 -32.051  1.00  0.00     0.276 C 
HETATM   15  O   UNL     1      -2.580   3.016 -31.237  1.00  0.00    -0.265 OA
HETATM   16  H   UNL     1      -5.376   3.514 -32.616  1.00  0.00     0.163 HD
BRANCH  14  17
HETATM   17  C   UNL     1      -3.087   4.200 -33.220  1.00  0.00     0.142 A 
HETATM   18  O   UNL     1      -4.093   4.607 -34.060  1.00  0.00    -0.317 OA
HETATM   19  C   UNL     1      -3.511   5.298 -35.074  1.00  0.00     0.143 A 
HETATM   20  C   UNL     1      -2.148   5.349 -34.905  1.00  0.00     0.027 A 
HETATM   21  C   UNL     1      -1.872   4.643 -33.709  1.00  0.00     0.045 A 
ENDBRANCH  14  17
ENDBRANCH   1  13
BRANCH   1  22
HETATM   22  C   UNL     1      -6.726   2.630 -30.462  1.00  0.00     0.075 C 
BRANCH  22  23
HETATM   23  C   UNL     1      -7.720   2.927 -31.548  1.00  0.00    -0.028 A 
HETATM   24  C   UNL     1      -8.661   1.974 -32.068  1.00  0.00    -0.002 A 
HETATM   25  C   UNL     1      -9.437   2.624 -33.026  1.00  0.00     0.042 A 
HETATM   26  C   UNL     1      -8.927   0.617 -31.796  1.00  0.00     0.014 A 
HETATM   27  C   UNL     1     -10.468   1.985 -33.726  1.00  0.00     0.030 A 
HETATM   28  N   UNL     1      -8.987   3.919 -33.098  1.00  0.00    -0.365 N 
HETATM   29  C   UNL     1     -10.710   0.639 -33.438  1.00  0.00     0.002 A 
HETATM   30  C   UNL     1      -9.951  -0.039 -32.488  1.00  0.00     0.001 A 
HETATM   31  H   UNL     1      -9.373   4.629 -33.704  1.00  0.00     0.165 HD
HETATM   32  C   UNL     1      -7.951   4.111 -32.220  1.00  0.00     0.096 A 
ENDBRANCH  22  23
ENDBRANCH   1  22
TORSDOF 6
ENDMDL
MODEL 2
REMARK VINA RESULT:      -8.9      2.848      6.396
REMARK  6 active torsions:
REMARK  status: ('A' for Active; 'I' for Inactive)
REMARK    1  A    between atoms: C_5  and  N_6 
REMARK       I    between atoms: N_6  and  C_7 
REMARK    2  A    between atoms: C_7  and  C_8 
REMARK    3  A    between atoms: C_8  and  N_9 
REMARK    4  A    between atoms: C_8  and  C_17 
REMARK       I    between atoms: N_9  and  C_10 
REMARK    5  A    between atoms: C_10  and  C_11 
REMARK    6  A    between atoms: C_17  and  C_18 
ROOT
HETATM    1  C   UNL     1      -8.436   1.715 -34.209  1.00  0.00     0.181 C 
ENDROOT
BRANCH   1   2
HETATM    2  C   UNL     1      -7.559   0.548 -34.722  1.00  0.00     0.245 C 
HETATM    3  N   UNL     1      -7.293  -0.423 -33.776  1.00  0.00    -0.325 N 
HETATM    4  H   UNL     1      -7.830  -0.363 -32.910  1.00  0.00     0.169 HD
HETATM    5  O   UNL     1      -7.185   0.534 -35.894  1.00  0.00    -0.271 OA
BRANCH   3   6
HETATM    6  C   UNL     1      -6.410  -1.515 -33.880  1.00  0.00     0.034 A 
HETATM    7  C   UNL     1      -6.698  -2.692 -34.570  1.00  0.00     0.030 A 
HETATM    8  C   UNL     1      -5.750  -3.719 -34.651  1.00  0.00     0.009 A 
HETATM    9  C   UNL     1      -4.499  -3.586 -34.042  1.00  0.00    -0.062 A 
HETATM   10  C   UNL     1      -3.467  -4.666 -34.173  1.00  0.00     0.048 C 
HETATM   11  C   UNL     1      -4.204  -2.401 -33.362  1.00  0.00     0.009 A 
HETATM   12  C   UNL     1      -5.155  -1.379 -33.275  1.00  0.00     0.030 A 
ENDBRANCH   3   6
ENDBRANCH   1   2
BRANCH   1  13
HETATM   13  N   UNL     1      -9.827   1.280 -34.030  1.00  0.00    -0.342 N 
HETATM   14  C   UNL     1     -10.929   2.052 -34.312  1.00  0.00     0.276 C 
HETATM   15  O   UNL     1     -10.827   3.235 -34.636  1.00  0.00    -0.265 OA
HETATM   16  H   UNL     1      -9.999   0.323 -33.738  1.00  0.00     0.163 HD
BRANCH  14  17
HETATM   17  C   UNL     1     -12.190   1.352 -34.205  1.00  0.00     0.142 A 
HETATM   18  O   UNL     1     -12.245   0.164 -33.519  1.00  0.00    -0.317 OA
HETATM   19  C   UNL     1     -13.525  -0.282 -33.596  1.00  0.00     0.143 A 
HETATM   20  C   UNL     1     -14.301   0.594 -34.316  1.00  0.00     0.027 A 
HETATM   21  C   UNL     1     -13.442   1.650 -34.708  1.00  0.00     0.045 A 
ENDBRANCH  14  17
ENDBRANCH   1  13
BRANCH   1  22
HETATM   22  C   UNL     1      -7.870   2.425 -32.967  1.00  0.00     0.075 C 
BRANCH  22  23
HETATM   23  C   UNL     1      -6.846   3.497 -33.206  1.00  0.00    -0.028 A 
HETATM   24  C   UNL     1      -5.450   3.368 -32.893  1.00  0.00    -0.002 A 
HETATM   25  C   UNL     1      -4.815   4.543 -33.293  1.00  0.00     0.042 A 
HETATM   26  C   UNL     1      -4.669   2.347 -32.314  1.00  0.00     0.014 A 
HETATM   27  C   UNL     1      -3.438   4.748 -33.145  1.00  0.00     0.030 A 
HETATM   28  N   UNL     1      -5.782   5.362 -33.822  1.00  0.00    -0.365 N 
HETATM   29  C   UNL     1      -2.688   3.720 -32.567  1.00  0.00     0.002 A 
HETATM   30  C   UNL     1      -3.292   2.536 -32.155  1.00  0.00     0.001 A 
HETATM   31  H   UNL     1      -5.610   6.280 -34.205  1.00  0.00     0.165 HD
HETATM   32  C   UNL     1      -7.007   4.748 -33.769  1.00  0.00     0.096 A 
ENDBRANCH  22  23
ENDBRANCH   1  22
TORSDOF 6
ENDMDL
MODEL 3
REMARK VINA RESULT:      -8.8      2.522      7.360
REMARK  6 active torsions:
REMARK  status: ('A' for Active; 'I' for Inactive)
REMARK    1  A    between atoms: C_5  and  N_6 
REMARK       I    between atoms: N_6  and  C_7 
REMARK    2  A    between atoms: C_7  and  C_8 
REMARK    3  A    between atoms: C_8  and  N_9 
REMARK    4  A    between atoms: C_8  and  C_17 
REMARK       I    between atoms: N_9  and  C_10 
REMARK    5  A    between atoms: C_10  and  C_11 
REMARK    6  A    between atoms: C_17  and  C_18 
ROOT
HETATM    1  C   UNL     1      -7.597   0.602 -33.394  1.00  0.00     0.181 C 
ENDROOT
BRANCH   1   2
HETATM    2  C   UNL     1      -6.960   1.717 -32.530  1.00  0.00     0.245 C 
HETATM    3  N   UNL     1      -5.985   2.451 -33.177  1.00  0.00    -0.325 N 
HETATM    4  H   UNL     1      -5.908   2.303 -34.183  1.00  0.00     0.169 HD
HETATM    5  O   UNL     1      -7.355   1.899 -31.379  1.00  0.00    -0.271 OA
BRANCH   3   6
HETATM    6  C   UNL     1      -5.120   3.416 -32.627  1.00  0.00     0.034 A 
HETATM    7  C   UNL     1      -5.482   4.739 -32.375  1.00  0.00     0.030 A 
HETATM    8  C   UNL     1      -4.568   5.628 -31.795  1.00  0.00     0.009 A 
HETATM    9  C   UNL     1      -3.277   5.208 -31.461  1.00  0.00    -0.062 A 
HETATM   10  C   UNL     1      -2.318   6.148 -30.795  1.00  0.00     0.048 C 
HETATM   11  C   UNL     1      -2.918   3.879 -31.701  1.00  0.00     0.009 A 
HETATM   12  C   UNL     1      -3.830   2.994 -32.286  1.00  0.00     0.030 A 
ENDBRANCH   3   6
ENDBRANCH   1   2
BRANCH   1  13
HETATM   13  N   UNL     1      -8.913   1.019 -33.893  1.00  0.00    -0.342 N 
HETATM   14  C   UNL     1     -10.115   0.564 -33.403  1.00  0.00     0.276 C 
HETATM   15  O   UNL     1     -10.175  -0.335 -32.564  1.00  0.00    -0.265 OA
HETATM   16  H   UNL     1      -8.952   1.739 -34.606  1.00  0.00     0.163 HD
BRANCH  14  17
HETATM   17  C   UNL     1     -11.273   1.237 -33.947  1.00  0.00     0.142 A 
HETATM   18  O   UNL     1     -11.101   2.369 -34.704  1.00  0.00    -0.317 OA
HETATM   19  C   UNL     1     -12.338   2.803 -35.060  1.00  0.00     0.143 A 
HETATM   20  C   UNL     1     -13.307   1.972 -34.551  1.00  0.00     0.027 A 
HETATM   21  C   UNL     1     -12.623   0.960 -33.834  1.00  0.00     0.045 A 
ENDBRANCH  14  17
ENDBRANCH   1  13
BRANCH   1  22
HETATM   22  C   UNL     1      -6.679   0.070 -34.507  1.00  0.00     0.075 C 
BRANCH  22  23
HETATM   23  C   UNL     1      -5.614  -0.908 -34.101  1.00  0.00    -0.028 A 
HETATM   24  C   UNL     1      -5.675  -2.321 -34.351  1.00  0.00    -0.002 A 
HETATM   25  C   UNL     1      -4.496  -2.888 -33.870  1.00  0.00     0.042 A 
HETATM   26  C   UNL     1      -6.628  -3.166 -34.956  1.00  0.00     0.014 A 
HETATM   27  C   UNL     1      -4.220  -4.258 -33.965  1.00  0.00     0.030 A 
HETATM   28  N   UNL     1      -3.746  -1.868 -33.340  1.00  0.00    -0.365 N 
HETATM   29  C   UNL     1      -5.183  -5.073 -34.568  1.00  0.00     0.002 A 
HETATM   30  C   UNL     1      -6.372  -4.538 -35.056  1.00  0.00     0.001 A 
HETATM   31  H   UNL     1      -2.831  -1.981 -32.927  1.00  0.00     0.165 HD
HETATM   32  C   UNL     1      -4.410  -0.674 -33.467  1.00  0.00     0.096 A 
ENDBRANCH  22  23
ENDBRANCH   1  22
TORSDOF 6
ENDMDL
MODEL 4
REMARK VINA RESULT:      -8.8      2.297      6.008
REMARK  6 active torsions:
REMARK  status: ('A' for Active; 'I' for Inactive)
REMARK    1  A    between atoms: C_5  and  N_6 
REMARK       I    between atoms: N_6  and  C_7 
REMARK    2  A    between atoms: C_7  and  C_8 
REMARK    3  A    between atoms: C_8  and  N_9 
REMARK    4  A    between atoms: C_8  and  C_17 
REMARK       I    between atoms: N_9  and  C_10 
REMARK    5  A    between atoms: C_10  and  C_11 
REMARK    6  A    between atoms: C_17  and  C_18 
ROOT
HETATM    1  C   UNL     1      -7.427   2.509 -33.047  1.00  0.00     0.181 C 
ENDROOT
BRANCH   1   2
HETATM    2  C   UNL     1      -6.949   1.056 -32.815  1.00  0.00     0.245 C 
HETATM    3  N   UNL     1      -6.302   0.490 -33.896  1.00  0.00    -0.325 N 
HETATM    4  H   UNL     1      -6.057   1.127 -34.654  1.00  0.00     0.169 HD
HETATM    5  O   UNL     1      -7.139   0.516 -31.725  1.00  0.00    -0.271 OA
BRANCH   3   6
HETATM    6  C   UNL     1      -5.892  -0.847 -34.058  1.00  0.00     0.034 A 
HETATM    7  C   UNL     1      -4.625  -1.324 -33.723  1.00  0.00     0.030 A 
HETATM    8  C   UNL     1      -4.308  -2.678 -33.886  1.00  0.00     0.009 A 
HETATM    9  C   UNL     1      -5.254  -3.577 -34.390  1.00  0.00    -0.062 A 
HETATM   10  C   UNL     1      -4.928  -5.035 -34.516  1.00  0.00     0.048 C 
HETATM   11  C   UNL     1      -6.528  -3.102 -34.713  1.00  0.00     0.009 A 
HETATM   12  C   UNL     1      -6.840  -1.748 -34.556  1.00  0.00     0.030 A 
ENDBRANCH   3   6
ENDBRANCH   1   2
BRANCH   1  13
HETATM   13  N   UNL     1      -8.893   2.572 -33.095  1.00  0.00    -0.342 N 
HETATM   14  C   UNL     1      -9.682   1.789 -33.904  1.00  0.00     0.276 C 
HETATM   15  O   UNL     1      -9.200   1.039 -34.751  1.00  0.00    -0.265 OA
HETATM   16  H   UNL     1      -9.371   3.188 -32.445  1.00  0.00     0.163 HD
BRANCH  14  17
HETATM   17  C   UNL     1     -11.102   1.922 -33.660  1.00  0.00     0.142 A 
HETATM   18  O   UNL     1     -11.575   3.047 -33.032  1.00  0.00    -0.317 OA
HETATM   19  C   UNL     1     -12.919   2.901 -32.910  1.00  0.00     0.143 A 
HETATM   20  C   UNL     1     -13.326   1.704 -33.449  1.00  0.00     0.027 A 
HETATM   21  C   UNL     1     -12.156   1.072 -33.936  1.00  0.00     0.045 A 
ENDBRANCH  14  17
ENDBRANCH   1  13
BRANCH   1  22
HETATM   22  C   UNL     1      -6.819   3.531 -32.072  1.00  0.00     0.075 C 
BRANCH  22  23
HETATM   23  C   UNL     1      -5.320   3.625 -32.034  1.00  0.00    -0.028 A 
HETATM   24  C   UNL     1      -4.517   4.188 -33.084  1.00  0.00    -0.002 A 
HETATM   25  C   UNL     1      -3.186   4.138 -32.673  1.00  0.00     0.042 A 
HETATM   26  C   UNL     1      -4.810   4.746 -34.345  1.00  0.00     0.014 A 
HETATM   27  C   UNL     1      -2.132   4.620 -33.458  1.00  0.00     0.030 A 
HETATM   28  N   UNL     1      -3.172   3.562 -31.426  1.00  0.00    -0.365 N 
HETATM   29  C   UNL     1      -2.450   5.168 -34.704  1.00  0.00     0.002 A 
HETATM   30  C   UNL     1      -3.769   5.230 -35.145  1.00  0.00     0.001 A 
HETATM   31  H   UNL     1      -2.340   3.408 -30.875  1.00  0.00     0.165 HD
HETATM   32  C   UNL     1      -4.447   3.244 -31.035  1.00  0.00     0.096 A 
ENDBRANCH  22  23
ENDBRANCH   1  22
TORSDOF 6
ENDMDL
MODEL 5
REMARK VINA RESULT:      -8.6      3.107      8.099
REMARK  6 active torsions:
REMARK  status: ('A' for Active; 'I' for Inactive)
REMARK    1  A    between atoms: C_5  and  N_6 
REMARK       I    between atoms: N_6  and  C_7 
REMARK    2  A    between atoms: C_7  and  C_8 
REMARK    3  A    between atoms: C_8  and  N_9 
REMARK    4  A    between atoms: C_8  and  C_17 
REMARK       I    between atoms: N_9  and  C_10 
REMARK    5  A    between atoms: C_10  and  C_11 
REMARK    6  A    between atoms: C_17  and  C_18 
ROOT
HETATM    1  C   UNL     1      -8.421   0.335 -32.831  1.00  0.00     0.181 C 
ENDROOT
BRANCH   1   2
HETATM    2  C   UNL     1      -7.991   1.731 -32.320  1.00  0.00     0.245 C 
HETATM    3  N   UNL     1      -8.517   2.075 -31.090  1.00  0.00    -0.325 N 
HETATM    4  H   UNL     1      -8.982   1.324 -30.577  1.00  0.00     0.169 HD
HETATM    5  O   UNL     1      -7.221   2.417 -32.992  1.00  0.00    -0.271 OA
BRANCH   3   6
HETATM    6  C   UNL     1      -8.445   3.318 -30.433  1.00  0.00     0.034 A 
HETATM    7  C   UNL     1      -9.420   4.311 -30.528  1.00  0.00     0.030 A 
HETATM    8  C   UNL     1      -9.286   5.509 -29.816  1.00  0.00     0.009 A 
HETATM    9  C   UNL     1      -8.174   5.733 -28.999  1.00  0.00    -0.062 A 
HETATM   10  C   UNL     1      -8.058   6.996 -28.198  1.00  0.00     0.048 C 
HETATM   11  C   UNL     1      -7.204   4.733 -28.892  1.00  0.00     0.009 A 
HETATM   12  C   UNL     1      -7.336   3.540 -29.610  1.00  0.00     0.030 A 
ENDBRANCH   3   6
ENDBRANCH   1   2
BRANCH   1  13
HETATM   13  N   UNL     1      -9.882   0.250 -32.941  1.00  0.00    -0.342 N 
HETATM   14  C   UNL     1     -10.652   1.050 -33.753  1.00  0.00     0.276 C 
HETATM   15  O   UNL     1     -10.171   1.995 -34.376  1.00  0.00    -0.265 OA
HETATM   16  H   UNL     1     -10.362  -0.488 -32.436  1.00  0.00     0.163 HD
BRANCH  14  17
HETATM   17  C   UNL     1     -12.047   0.674 -33.810  1.00  0.00     0.142 A 
HETATM   18  O   UNL     1     -12.438  -0.541 -33.305  1.00  0.00    -0.317 OA
HETATM   19  C   UNL     1     -13.777  -0.646 -33.508  1.00  0.00     0.143 A 
HETATM   20  C   UNL     1     -14.260   0.478 -34.133  1.00  0.00     0.027 A 
HETATM   21  C   UNL     1     -13.147   1.332 -34.327  1.00  0.00     0.045 A 
ENDBRANCH  14  17
ENDBRANCH   1  13
BRANCH   1  22
HETATM   22  C   UNL     1      -7.700  -0.112 -34.114  1.00  0.00     0.075 C 
BRANCH  22  23
HETATM   23  C   UNL     1      -6.380  -0.808 -33.944  1.00  0.00    -0.028 A 
HETATM   24  C   UNL     1      -6.154  -2.197 -34.230  1.00  0.00    -0.002 A 
HETATM   25  C   UNL     1      -4.806  -2.466 -33.992  1.00  0.00     0.042 A 
HETATM   26  C   UNL     1      -6.978  -3.248 -34.682  1.00  0.00     0.014 A 
HETATM   27  C   UNL     1      -4.241  -3.732 -34.186  1.00  0.00     0.030 A 
HETATM   28  N   UNL     1      -4.231  -1.293 -33.571  1.00  0.00    -0.365 N 
HETATM   29  C   UNL     1      -5.080  -4.756 -34.633  1.00  0.00     0.002 A 
HETATM   30  C   UNL     1      -6.431  -4.521 -34.877  1.00  0.00     0.001 A 
HETATM   31  H   UNL     1      -3.255  -1.183 -33.336  1.00  0.00     0.165 HD
HETATM   32  C   UNL     1      -5.167  -0.291 -33.531  1.00  0.00     0.096 A 
ENDBRANCH  22  23
ENDBRANCH   1  22
TORSDOF 6
ENDMDL
MODEL 6
REMARK VINA RESULT:      -8.6      1.990      6.825
REMARK  6 active torsions:
REMARK  status: ('A' for Active; 'I' for Inactive)
REMARK    1  A    between atoms: C_5  and  N_6 
REMARK       I    between atoms: N_6  and  C_7 
REMARK    2  A    between atoms: C_7  and  C_8 
REMARK    3  A    between atoms: C_8  and  N_9 
REMARK    4  A    between atoms: C_8  and  C_17 
REMARK       I    between atoms: N_9  and  C_10 
REMARK    5  A    between atoms: C_10  and  C_11 
REMARK    6  A    between atoms: C_17  and  C_18 
ROOT
HETATM    1  C   UNL     1      -6.870   1.821 -32.731  1.00  0.00     0.181 C 
ENDROOT
BRANCH   1   2
HETATM    2  C   UNL     1      -8.402   2.036 -32.701  1.00  0.00     0.245 C 
HETATM    3  N   UNL     1      -9.126   1.073 -33.378  1.00  0.00    -0.325 N 
HETATM    4  H   UNL     1      -8.604   0.246 -33.671  1.00  0.00     0.169 HD
HETATM    5  O   UNL     1      -8.874   2.992 -32.086  1.00  0.00    -0.271 OA
BRANCH   3   6
HETATM    6  C   UNL     1     -10.504   1.067 -33.666  1.00  0.00     0.034 A 
HETATM    7  C   UNL     1     -11.146   2.035 -34.437  1.00  0.00     0.030 A 
HETATM    8  C   UNL     1     -12.517   1.937 -34.703  1.00  0.00     0.009 A 
HETATM    9  C   UNL     1     -13.269   0.871 -34.198  1.00  0.00    -0.062 A 
HETATM   10  C   UNL     1     -14.726   0.742 -34.526  1.00  0.00     0.048 C 
HETATM   11  C   UNL     1     -12.623  -0.106 -33.437  1.00  0.00     0.009 A 
HETATM   12  C   UNL     1     -11.254  -0.003 -33.167  1.00  0.00     0.030 A 
ENDBRANCH   3   6
ENDBRANCH   1   2
BRANCH   1  13
HETATM   13  N   UNL     1      -6.534   0.570 -33.421  1.00  0.00    -0.342 N 
HETATM   14  C   UNL     1      -5.809  -0.458 -32.866  1.00  0.00     0.276 C 
HETATM   15  O   UNL     1      -5.279  -0.355 -31.760  1.00  0.00    -0.265 OA
HETATM   16  H   UNL     1      -6.910   0.417 -34.351  1.00  0.00     0.163 HD
BRANCH  14  17
HETATM   17  C   UNL     1      -5.742  -1.649 -33.684  1.00  0.00     0.142 A 
HETATM   18  O   UNL     1      -4.582  -2.382 -33.711  1.00  0.00    -0.317 OA
HETATM   19  C   UNL     1      -4.785  -3.417 -34.567  1.00  0.00     0.143 A 
HETATM   20  C   UNL     1      -6.054  -3.370 -35.092  1.00  0.00     0.027 A 
HETATM   21  C   UNL     1      -6.674  -2.231 -34.522  1.00  0.00     0.045 A 
ENDBRANCH  14  17
ENDBRANCH   1  13
BRANCH   1  22
HETATM   22  C   UNL     1      -6.078   3.027 -33.264  1.00  0.00     0.075 C 
BRANCH  22  23
HETATM   23  C   UNL     1      -4.759   3.317 -32.609  1.00  0.00    -0.028 A 
HETATM   24  C   UNL     1      -3.738   4.153 -33.177  1.00  0.00    -0.002 A 
HETATM   25  C   UNL     1      -2.686   4.218 -32.265  1.00  0.00     0.042 A 
HETATM   26  C   UNL     1      -3.624   4.871 -34.386  1.00  0.00     0.014 A 
HETATM   27  C   UNL     1      -1.525   4.965 -32.499  1.00  0.00     0.030 A 
HETATM   28  N   UNL     1      -3.042   3.448 -31.186  1.00  0.00    -0.365 N 
HETATM   29  C   UNL     1      -1.438   5.666 -33.706  1.00  0.00     0.002 A 
HETATM   30  C   UNL     1      -2.470   5.620 -34.639  1.00  0.00     0.001 A 
HETATM   31  H   UNL     1      -2.474   3.318 -30.361  1.00  0.00     0.165 HD
HETATM   32  C   UNL     1      -4.282   2.896 -31.383  1.00  0.00     0.096 A 
ENDBRANCH  22  23
ENDBRANCH   1  22
TORSDOF 6
ENDMDL
MODEL 7
REMARK VINA RESULT:      -8.5      2.056      2.475
REMARK  6 active torsions:
REMARK  status: ('A' for Active; 'I' for Inactive)
REMARK    1  A    between atoms: C_5  and  N_6 
REMARK       I    between atoms: N_6  and  C_7 
REMARK    2  A    between atoms: C_7  and  C_8 
REMARK    3  A    between atoms: C_8  and  N_9 
REMARK    4  A    between atoms: C_8  and  C_17 
REMARK       I    between atoms: N_9  and  C_10 
REMARK    5  A    between atoms: C_10  and  C_11 
REMARK    6  A    between atoms: C_17  and  C_18 
ROOT
HETATM    1  C   UNL     1      -4.052   2.651 -31.119  1.00  0.00     0.181 C 
ENDROOT
BRANCH   1   2
HETATM    2  C   UNL     1      -3.488   1.236 -31.390  1.00  0.00     0.245 C 
HETATM    3  N   UNL     1      -4.224   0.494 -32.295  1.00  0.00    -0.325 N 
HETATM    4  H   UNL     1      -4.943   1.002 -32.809  1.00  0.00     0.169 HD
HETATM    5  O   UNL     1      -2.453   0.873 -30.834  1.00  0.00    -0.271 OA
BRANCH   3   6
HETATM    6  C   UNL     1      -4.067  -0.864 -32.632  1.00  0.00     0.034 A 
HETATM    7  C   UNL     1      -3.314  -1.773 -31.889  1.00  0.00     0.030 A 
HETATM    8  C   UNL     1      -3.235  -3.116 -32.277  1.00  0.00     0.009 A 
HETATM    9  C   UNL     1      -3.907  -3.571 -33.416  1.00  0.00    -0.062 A 
HETATM   10  C   UNL     1      -3.862  -5.019 -33.801  1.00  0.00     0.048 C 
HETATM   11  C   UNL     1      -4.673  -2.664 -34.153  1.00  0.00     0.009 A 
HETATM   12  C   UNL     1      -4.745  -1.321 -33.767  1.00  0.00     0.030 A 
ENDBRANCH   3   6
ENDBRANCH   1   2
BRANCH   1  13
HETATM   13  N   UNL     1      -2.968   3.640 -31.064  1.00  0.00    -0.342 N 
HETATM   14  C   UNL     1      -2.314   4.144 -32.163  1.00  0.00     0.276 C 
HETATM   15  O   UNL     1      -2.518   3.708 -33.296  1.00  0.00    -0.265 OA
HETATM   16  H   UNL     1      -2.719   4.032 -30.162  1.00  0.00     0.163 HD
BRANCH  14  17
HETATM   17  C   UNL     1      -1.394   5.220 -31.867  1.00  0.00     0.142 A 
HETATM   18  O   UNL     1      -1.540   6.426 -32.505  1.00  0.00    -0.317 OA
HETATM   19  C   UNL     1      -0.542   7.234 -32.065  1.00  0.00     0.143 A 
HETATM   20  C   UNL     1       0.248   6.575 -31.154  1.00  0.00     0.027 A 
HETATM   21  C   UNL     1      -0.301   5.276 -31.023  1.00  0.00     0.045 A 
ENDBRANCH  14  17
ENDBRANCH   1  13
BRANCH   1  22
HETATM   22  C   UNL     1      -5.188   3.066 -32.069  1.00  0.00     0.075 C 
BRANCH  22  23
HETATM   23  C   UNL     1      -6.574   2.611 -31.710  1.00  0.00    -0.028 A 
HETATM   24  C   UNL     1      -7.444   1.887 -32.596  1.00  0.00    -0.002 A 
HETATM   25  C   UNL     1      -8.618   1.606 -31.900  1.00  0.00     0.042 A 
HETATM   26  C   UNL     1      -7.328   1.438 -33.927  1.00  0.00     0.014 A 
HETATM   27  C   UNL     1      -9.683   0.895 -32.467  1.00  0.00     0.030 A 
HETATM   28  N   UNL     1      -8.478   2.140 -30.643  1.00  0.00    -0.365 N 
HETATM   29  C   UNL     1      -9.542   0.462 -33.789  1.00  0.00     0.002 A 
HETATM   30  C   UNL     1      -8.384   0.730 -34.512  1.00  0.00     0.001 A 
HETATM   31  H   UNL     1      -9.173   2.079 -29.912  1.00  0.00     0.165 HD
HETATM   32  C   UNL     1      -7.258   2.752 -30.519  1.00  0.00     0.096 A 
ENDBRANCH  22  23
ENDBRANCH   1  22
TORSDOF 6
ENDMDL
MODEL 8
REMARK VINA RESULT:      -8.5      2.262      6.859
REMARK  6 active torsions:
REMARK  status: ('A' for Active; 'I' for Inactive)
REMARK    1  A    between atoms: C_5  and  N_6 
REMARK       I    between atoms: N_6  and  C_7 
REMARK    2  A    between atoms: C_7  and  C_8 
REMARK    3  A    between atoms: C_8  and  N_9 
REMARK    4  A    between atoms: C_8  and  C_17 
REMARK       I    between atoms: N_9  and  C_10 
REMARK    5  A    between atoms: C_10  and  C_11 
REMARK    6  A    between atoms: C_17  and  C_18 
ROOT
HETATM    1  C   UNL     1      -6.877   1.827 -31.241  1.00  0.00     0.181 C 
ENDROOT
BRANCH   1   2
HETATM    2  C   UNL     1      -5.863   2.591 -32.126  1.00  0.00     0.245 C 
HETATM    3  N   UNL     1      -4.881   3.260 -31.421  1.00  0.00    -0.325 N 
HETATM    4  H   UNL     1      -4.823   3.047 -30.425  1.00  0.00     0.169 HD
HETATM    5  O   UNL     1      -5.964   2.543 -33.352  1.00  0.00    -0.271 OA
BRANCH   3   6
HETATM    6  C   UNL     1      -3.919   4.160 -31.916  1.00  0.00     0.034 A 
HETATM    7  C   UNL     1      -2.737   3.774 -32.547  1.00  0.00     0.030 A 
HETATM    8  C   UNL     1      -1.847   4.736 -33.040  1.00  0.00     0.009 A 
HETATM    9  C   UNL     1      -2.124   6.100 -32.909  1.00  0.00    -0.062 A 
HETATM   10  C   UNL     1      -1.194   7.126 -33.482  1.00  0.00     0.048 C 
HETATM   11  C   UNL     1      -3.315   6.487 -32.289  1.00  0.00     0.009 A 
HETATM   12  C   UNL     1      -4.200   5.525 -31.791  1.00  0.00     0.030 A 
ENDBRANCH   3   6
ENDBRANCH   1   2
BRANCH   1  13
HETATM   13  N   UNL     1      -8.138   1.614 -31.961  1.00  0.00    -0.342 N 
HETATM   14  C   UNL     1      -9.315   2.270 -31.685  1.00  0.00     0.276 C 
HETATM   15  O   UNL     1      -9.428   3.020 -30.716  1.00  0.00    -0.265 OA
HETATM   16  H   UNL     1      -8.137   0.989 -32.760  1.00  0.00     0.163 HD
BRANCH  14  17
HETATM   17  C   UNL     1     -10.378   2.008 -32.630  1.00  0.00     0.142 A 
HETATM   18  O   UNL     1     -11.356   2.952 -32.823  1.00  0.00    -0.317 OA
HETATM   19  C   UNL     1     -12.229   2.443 -33.730  1.00  0.00     0.143 A 
HETATM   20  C   UNL     1     -11.834   1.189 -34.130  1.00  0.00     0.027 A 
HETATM   21  C   UNL     1     -10.640   0.907 -33.423  1.00  0.00     0.045 A 
ENDBRANCH  14  17
ENDBRANCH   1  13
BRANCH   1  22
HETATM   22  C   UNL     1      -6.319   0.534 -30.622  1.00  0.00     0.075 C 
BRANCH  22  23
HETATM   23  C   UNL     1      -5.325  -0.237 -31.443  1.00  0.00    -0.028 A 
HETATM   24  C   UNL     1      -5.659  -0.994 -32.617  1.00  0.00    -0.002 A 
HETATM   25  C   UNL     1      -4.477  -1.531 -33.126  1.00  0.00     0.042 A 
HETATM   26  C   UNL     1      -6.865  -1.260 -33.298  1.00  0.00     0.014 A 
HETATM   27  C   UNL     1      -4.440  -2.319 -34.283  1.00  0.00     0.030 A 
HETATM   28  N   UNL     1      -3.462  -1.127 -32.295  1.00  0.00    -0.365 N 
HETATM   29  C   UNL     1      -5.650  -2.567 -34.938  1.00  0.00     0.002 A 
HETATM   30  C   UNL     1      -6.847  -2.048 -34.454  1.00  0.00     0.001 A 
HETATM   31  H   UNL     1      -2.487  -1.358 -32.425  1.00  0.00     0.165 HD
HETATM   32  C   UNL     1      -3.960  -0.355 -31.277  1.00  0.00     0.096 A 
ENDBRANCH  22  23
ENDBRANCH   1  22
TORSDOF 6
ENDMDL
MODEL 9
REMARK VINA RESULT:      -8.4      2.280      6.182
REMARK  6 active torsions:
REMARK  status: ('A' for Active; 'I' for Inactive)
REMARK    1  A    between atoms: C_5  and  N_6 
REMARK       I    between atoms: N_6  and  C_7 
REMARK    2  A    between atoms: C_7  and  C_8 
REMARK    3  A    between atoms: C_8  and  N_9 
REMARK    4  A    between atoms: C_8  and  C_17 
REMARK       I    between atoms: N_9  and  C_10 
REMARK    5  A    between atoms: C_10  and  C_11 
REMARK    6  A    between atoms: C_17  and  C_18 
ROOT
HETATM    1  C   UNL     1      -6.809   2.539 -33.806  1.00  0.00     0.181 C 
ENDROOT
BRANCH   1   2
HETATM    2  C   UNL     1      -5.717   3.636 -33.792  1.00  0.00     0.245 C 
HETATM    3  N   UNL     1      -4.598   3.317 -33.047  1.00  0.00    -0.325 N 
HETATM    4  H   UNL     1      -4.531   2.348 -32.734  1.00  0.00     0.169 HD
HETATM    5  O   UNL     1      -5.884   4.673 -34.434  1.00  0.00    -0.271 OA
BRANCH   3   6
HETATM    6  C   UNL     1      -3.514   4.150 -32.712  1.00  0.00     0.034 A 
HETATM    7  C   UNL     1      -2.386   4.328 -33.513  1.00  0.00     0.030 A 
HETATM    8  C   UNL     1      -1.365   5.201 -33.120  1.00  0.00     0.009 A 
HETATM    9  C   UNL     1      -1.455   5.909 -31.917  1.00  0.00    -0.062 A 
HETATM   10  C   UNL     1      -0.383   6.881 -31.523  1.00  0.00     0.048 C 
HETATM   11  C   UNL     1      -2.590   5.741 -31.121  1.00  0.00     0.009 A 
HETATM   12  C   UNL     1      -3.606   4.863 -31.512  1.00  0.00     0.030 A 
ENDBRANCH   3   6
ENDBRANCH   1   2
BRANCH   1  13
HETATM   13  N   UNL     1      -6.208   1.207 -33.670  1.00  0.00    -0.342 N 
HETATM   14  C   UNL     1      -6.454   0.149 -34.514  1.00  0.00     0.276 C 
HETATM   15  O   UNL     1      -7.304   0.212 -35.401  1.00  0.00    -0.265 OA
HETATM   16  H   UNL     1      -5.514   1.063 -32.944  1.00  0.00     0.163 HD
BRANCH  14  17
HETATM   17  C   UNL     1      -5.627  -1.012 -34.270  1.00  0.00     0.142 A 
HETATM   18  O   UNL     1      -5.816  -2.143 -35.024  1.00  0.00    -0.317 OA
HETATM   19  C   UNL     1      -4.936  -3.075 -34.574  1.00  0.00     0.143 A 
HETATM   20  C   UNL     1      -4.180  -2.567 -33.544  1.00  0.00     0.027 A 
HETATM   21  C   UNL     1      -4.622  -1.237 -33.348  1.00  0.00     0.045 A 
ENDBRANCH  14  17
ENDBRANCH   1  13
BRANCH   1  22
HETATM   22  C   UNL     1      -7.953   2.782 -32.807  1.00  0.00     0.075 C 
BRANCH  22  23
HETATM   23  C   UNL     1      -9.235   2.037 -33.048  1.00  0.00    -0.028 A 
HETATM   24  C   UNL     1     -10.262   2.467 -33.955  1.00  0.00    -0.002 A 
HETATM   25  C   UNL     1     -11.270   1.504 -33.941  1.00  0.00     0.042 A 
HETATM   26  C   UNL     1     -10.416   3.588 -34.796  1.00  0.00     0.014 A 
HETATM   27  C   UNL     1     -12.424   1.604 -34.728  1.00  0.00     0.030 A 
HETATM   28  N   UNL     1     -10.881   0.528 -33.058  1.00  0.00    -0.365 N 
HETATM   29  C   UNL     1     -12.552   2.726 -35.551  1.00  0.00     0.002 A 
HETATM   30  C   UNL     1     -11.565   3.707 -35.586  1.00  0.00     0.001 A 
HETATM   31  H   UNL     1     -11.413  -0.305 -32.852  1.00  0.00     0.165 HD
HETATM   32  C   UNL     1      -9.664   0.840 -32.510  1.00  0.00     0.096 A 
ENDBRANCH  22  23
ENDBRANCH   1  22
TORSDOF 6
ENDMDL
MODEL 10
REMARK VINA RESULT:      -8.4      1.706      2.359
REMARK  6 active torsions:
REMARK  status: ('A' for Active; 'I' for Inactive)
REMARK    1  A    between atoms: C_5  and  N_6 
REMARK       I    between atoms: N_6  and  C_7 
REMARK    2  A    between atoms: C_7  and  C_8 
REMARK    3  A    between atoms: C_8  and  N_9 
REMARK    4  A    between atoms: C_8  and  C_17 
REMARK       I    between atoms: N_9  and  C_10 
REMARK    5  A    between atoms: C_10  and  C_11 
REMARK    6  A    between atoms: C_17  and  C_18 
ROOT
HETATM    1  C   UNL     1      -5.935   3.333 -31.882  1.00  0.00     0.181 C 
ENDROOT
BRANCH   1   2
HETATM    2  C   UNL     1      -6.051   2.218 -32.949  1.00  0.00     0.245 C 
HETATM    3  N   UNL     1      -6.008   0.935 -32.439  1.00  0.00    -0.325 N 
HETATM    4  H   UNL     1      -6.077   0.855 -31.425  1.00  0.00     0.169 HD
HETATM    5  O   UNL     1      -6.195   2.519 -34.134  1.00  0.00    -0.271 OA
BRANCH   3   6
HETATM    6  C   UNL     1      -5.932  -0.278 -33.150  1.00  0.00     0.034 A 
HETATM    7  C   UNL     1      -4.744  -0.958 -33.414  1.00  0.00     0.030 A 
HETATM    8  C   UNL     1      -4.761  -2.177 -34.102  1.00  0.00     0.009 A 
HETATM    9  C   UNL     1      -5.966  -2.735 -34.540  1.00  0.00    -0.062 A 
HETATM   10  C   UNL     1      -5.986  -4.065 -35.232  1.00  0.00     0.048 C 
HETATM   11  C   UNL     1      -7.158  -2.060 -34.263  1.00  0.00     0.009 A 
HETATM   12  C   UNL     1      -7.140  -0.839 -33.582  1.00  0.00     0.030 A 
ENDBRANCH   3   6
ENDBRANCH   1   2
BRANCH   1  13
HETATM   13  N   UNL     1      -4.632   4.004 -31.972  1.00  0.00    -0.342 N 
HETATM   14  C   UNL     1      -3.427   3.413 -31.676  1.00  0.00     0.276 C 
HETATM   15  O   UNL     1      -3.360   2.283 -31.192  1.00  0.00    -0.265 OA
HETATM   16  H   UNL     1      -4.602   4.950 -32.337  1.00  0.00     0.163 HD
BRANCH  14  17
HETATM   17  C   UNL     1      -2.272   4.224 -31.991  1.00  0.00     0.142 A 
HETATM   18  O   UNL     1      -1.309   4.426 -31.034  1.00  0.00    -0.317 OA
HETATM   19  C   UNL     1      -0.365   5.234 -31.581  1.00  0.00     0.143 A 
HETATM   20  C   UNL     1      -0.697   5.557 -32.875  1.00  0.00     0.027 A 
HETATM   21  C   UNL     1      -1.925   4.906 -33.142  1.00  0.00     0.045 A 
ENDBRANCH  14  17
ENDBRANCH   1  13
BRANCH   1  22
HETATM   22  C   UNL     1      -7.115   4.320 -31.877  1.00  0.00     0.075 C 
BRANCH  22  23
HETATM   23  C   UNL     1      -8.493   3.731 -31.780  1.00  0.00    -0.028 A 
HETATM   24  C   UNL     1      -9.451   3.731 -32.850  1.00  0.00    -0.002 A 
HETATM   25  C   UNL     1     -10.589   3.063 -32.401  1.00  0.00     0.042 A 
HETATM   26  C   UNL     1      -9.444   4.234 -34.167  1.00  0.00     0.014 A 
HETATM   27  C   UNL     1     -11.720   2.869 -33.203  1.00  0.00     0.030 A 
HETATM   28  N   UNL     1     -10.342   2.675 -31.107  1.00  0.00    -0.365 N 
HETATM   29  C   UNL     1     -11.687   3.378 -34.504  1.00  0.00     0.002 A 
HETATM   30  C   UNL     1     -10.567   4.053 -34.982  1.00  0.00     0.001 A 
HETATM   31  H   UNL     1     -10.990   2.157 -30.529  1.00  0.00     0.165 HD
HETATM   32  C   UNL     1      -9.090   3.076 -30.720  1.00  0.00     0.096 A 
ENDBRANCH  22  23
ENDBRANCH   1  22
TORSDOF 6
ENDMDL
