MODEL 1
REMARK VINA RESULT:      -9.0      0.000      0.000
REMARK  4 active torsions:
REMARK  status: ('A' for Active; 'I' for Inactive)
REMARK    1  A    between atoms: C_6  and  O_7 
REMARK    2  A    between atoms: C_6  and  C_8 
REMARK    3  A    between atoms: N_15  and  C_17 
REMARK    4  A    between atoms: C_17  and  C_18 
ROOT
HETATM    1  C   UNL     1      -5.433   3.844 -32.156  1.00  0.00    -0.023 A 
HETATM    2  C   UNL     1      -5.697   2.486 -31.856  1.00  0.00     0.022 A 
HETATM    3  C   UNL     1      -6.727   1.764 -32.487  1.00  0.00     0.002 A 
HETATM    4  C   UNL     1      -7.482   2.409 -33.464  1.00  0.00     0.076 A 
HETATM    5  O   UNL     1      -8.488   1.759 -34.120  1.00  0.00    -0.349 OA
HETATM    6  C   UNL     1      -7.971   0.756 -35.007  1.00  0.00     0.203 C 
HETATM    7  C   UNL     1      -7.880  -0.603 -34.307  1.00  0.00     0.262 C 
HETATM    8  N   UNL     1      -6.805  -0.665 -33.232  1.00  0.00    -0.061 N 
HETATM    9  H   UNL     1      -6.931  -1.581 -32.780  1.00  0.00     0.280 HD
HETATM   10  C   UNL     1      -7.021   0.336 -32.122  1.00  0.00     0.276 C 
HETATM   11  C   UNL     1      -7.254   3.743 -33.778  1.00  0.00     0.038 A 
HETATM   12  C   UNL     1      -6.229   4.449 -33.142  1.00  0.00     0.013 A 
ENDROOT
BRANCH   1  13
HETATM   13  C   UNL     1      -4.257   4.561 -31.480  1.00  0.00     0.088 C 
HETATM   14  C   UNL     1      -4.079   6.025 -31.937  1.00  0.00     0.070 C 
HETATM   15  C   UNL     1      -3.472   6.127 -33.325  1.00  0.00     0.237 C 
HETATM   16  N   UNL     1      -2.134   5.437 -33.335  1.00  0.00    -0.075 N 
HETATM   17  C   UNL     1      -1.435   5.605 -34.661  1.00  0.00     0.269 C 
HETATM   18  H   UNL     1      -1.531   5.914 -32.646  1.00  0.00     0.279 HD
HETATM   19  C   UNL     1      -2.229   3.989 -32.933  1.00  0.00     0.237 C 
HETATM   20  C   UNL     1      -2.878   3.874 -31.558  1.00  0.00     0.070 C 
BRANCH  13  21
HETATM   21  O   UNL     1      -4.617   4.622 -30.093  1.00  0.00    -0.385 OA
HETATM   22  H   UNL     1      -5.542   4.921 -30.023  1.00  0.00     0.211 HD
ENDBRANCH  13  21
ENDBRANCH   1  13
BRANCH   8  23
HETATM   23  C   UNL     1      -5.378  -0.676 -33.742  1.00  0.00     0.278 C 
BRANCH  23  24
HETATM   24  C   UNL     1      -4.591  -1.897 -33.369  1.00  0.00     0.028 A 
HETATM   25  C   UNL     1      -3.752  -1.951 -32.249  1.00  0.00     0.045 A 
HETATM   26 CL   UNL     1      -3.625  -0.606 -31.172  1.00  0.00    -0.084 Cl
HETATM   27  C   UNL     1      -3.014  -3.102 -31.962  1.00  0.00     0.024 A 
HETATM   28  C   UNL     1      -3.106  -4.218 -32.796  1.00  0.00     0.005 A 
HETATM   29  C   UNL     1      -3.940  -4.182 -33.910  1.00  0.00     0.043 A 
HETATM   30  C   UNL     1      -4.670  -3.030 -34.183  1.00  0.00     0.126 A 
HETATM   31  F   UNL     1      -5.485  -3.014 -35.247  1.00  0.00    -0.205 F 
ENDBRANCH  23  24
ENDBRANCH   8  23
TORSDOF 4
ENDMDL
MODEL 2
REMARK VINA RESULT:      -9.0      2.385      3.400
REMARK  4 active torsions:
REMARK  status: ('A' for Active; 'I' for Inactive)
REMARK    1  A    between atoms: C_6  and  O_7 
REMARK    2  A    between atoms: C_6  and  C_8 
REMARK    3  A    between atoms: N_15  and  C_17 
REMARK    4  A    between atoms: C_17  and  C_18 
ROOT
HETATM    1  C   UNL     1      -3.892   5.452 -32.901  1.00  0.00    -0.023 A 
HETATM    2  C   UNL     1      -3.846   4.121 -32.421  1.00  0.00     0.022 A 
HETATM    3  C   UNL     1      -4.929   3.528 -31.746  1.00  0.00     0.002 A 
HETATM    4  C   UNL     1      -6.093   4.275 -31.582  1.00  0.00     0.076 A 
HETATM    5  O   UNL     1      -7.182   3.753 -30.945  1.00  0.00    -0.349 OA
HETATM    6  C   UNL     1      -7.805   2.727 -31.731  1.00  0.00     0.203 C 
HETATM    7  C   UNL     1      -7.243   1.346 -31.381  1.00  0.00     0.262 C 
HETATM    8  N   UNL     1      -5.803   1.143 -31.829  1.00  0.00    -0.061 N 
HETATM    9  H   UNL     1      -5.527   0.232 -31.437  1.00  0.00     0.280 HD
HETATM   10  C   UNL     1      -4.844   2.128 -31.205  1.00  0.00     0.276 C 
HETATM   11  C   UNL     1      -6.170   5.587 -32.033  1.00  0.00     0.038 A 
HETATM   12  C   UNL     1      -5.086   6.164 -32.701  1.00  0.00     0.013 A 
ENDROOT
BRANCH   1  13
HETATM   13  C   UNL     1      -2.703   6.024 -33.684  1.00  0.00     0.088 C 
HETATM   14  C   UNL     1      -1.437   5.143 -33.617  1.00  0.00     0.070 C 
HETATM   15  C   UNL     1      -0.732   5.245 -32.277  1.00  0.00     0.237 C 
HETATM   16  N   UNL     1      -0.352   6.679 -32.022  1.00  0.00    -0.075 N 
HETATM   17  C   UNL     1       0.452   6.822 -30.753  1.00  0.00     0.269 C 
HETATM   18  H   UNL     1       0.281   6.975 -32.781  1.00  0.00     0.279 HD
HETATM   19  C   UNL     1      -1.543   7.601 -32.035  1.00  0.00     0.237 C 
HETATM   20  C   UNL     1      -2.283   7.473 -33.362  1.00  0.00     0.070 C 
BRANCH  13  21
HETATM   21  O   UNL     1      -3.125   6.004 -35.054  1.00  0.00    -0.385 OA
HETATM   22  H   UNL     1      -4.081   5.815 -35.084  1.00  0.00     0.211 HD
ENDBRANCH  13  21
ENDBRANCH   1  13
BRANCH   8  23
HETATM   23  C   UNL     1      -5.604   0.998 -33.324  1.00  0.00     0.278 C 
BRANCH  23  24
HETATM   24  C   UNL     1      -5.613  -0.416 -33.822  1.00  0.00     0.028 A 
HETATM   25  C   UNL     1      -6.703  -0.983 -34.494  1.00  0.00     0.045 A 
HETATM   26 CL   UNL     1      -8.106  -0.040 -34.854  1.00  0.00    -0.084 Cl
HETATM   27  C   UNL     1      -6.675  -2.316 -34.910  1.00  0.00     0.024 A 
HETATM   28  C   UNL     1      -5.551  -3.103 -34.657  1.00  0.00     0.005 A 
HETATM   29  C   UNL     1      -4.456  -2.555 -33.995  1.00  0.00     0.043 A 
HETATM   30  C   UNL     1      -4.497  -1.226 -33.588  1.00  0.00     0.126 A 
HETATM   31  F   UNL     1      -3.429  -0.701 -32.970  1.00  0.00    -0.205 F 
ENDBRANCH  23  24
ENDBRANCH   8  23
TORSDOF 4
ENDMDL
MODEL 3
REMARK VINA RESULT:      -8.7      3.297      5.916
REMARK  4 active torsions:
REMARK  status: ('A' for Active; 'I' for Inactive)
REMARK    1  A    between atoms: C_6  and  O_7 
REMARK    2  A    between atoms: C_6  and  C_8 
REMARK    3  A    between atoms: N_15  and  C_17 
REMARK    4  A    between atoms: C_17  and  C_18 
ROOT
HETATM    1  C   UNL     1     -10.103   2.630 -32.749  1.00  0.00    -0.023 A 
HETATM    2  C   UNL     1      -8.844   2.237 -33.266  1.00  0.00     0.022 A 
HETATM    3  C   UNL     1      -7.632   2.644 -32.678  1.00  0.00     0.002 A 
HETATM    4  C   UNL     1      -7.686   3.429 -31.529  1.00  0.00     0.076 A 
HETATM    5  O   UNL     1      -6.545   3.846 -30.906  1.00  0.00    -0.349 OA
HETATM    6  C   UNL     1      -5.864   2.752 -30.275  1.00  0.00     0.203 C 
HETATM    7  C   UNL     1      -4.830   2.129 -31.217  1.00  0.00     0.262 C 
HETATM    8  N   UNL     1      -5.448   1.377 -32.387  1.00  0.00    -0.061 N 
HETATM    9  H   UNL     1      -4.652   1.113 -32.985  1.00  0.00     0.280 HD
HETATM   10  C   UNL     1      -6.305   2.254 -33.268  1.00  0.00     0.276 C 
HETATM   11  C   UNL     1      -8.904   3.838 -30.999  1.00  0.00     0.038 A 
HETATM   12  C   UNL     1     -10.101   3.428 -31.594  1.00  0.00     0.013 A 
ENDROOT
BRANCH   1  13
HETATM   13  C   UNL     1     -11.391   2.105 -33.396  1.00  0.00     0.088 C 
HETATM   14  C   UNL     1     -11.378   2.166 -34.939  1.00  0.00     0.070 C 
HETATM   15  C   UNL     1     -11.571   3.577 -35.463  1.00  0.00     0.237 C 
HETATM   16  N   UNL     1     -12.880   4.122 -34.956  1.00  0.00    -0.075 N 
HETATM   17  C   UNL     1     -13.175   5.482 -35.538  1.00  0.00     0.269 C 
HETATM   18  H   UNL     1     -13.631   3.506 -35.305  1.00  0.00     0.279 HD
HETATM   19  C   UNL     1     -12.956   4.130 -33.452  1.00  0.00     0.237 C 
HETATM   20  C   UNL     1     -12.720   2.723 -32.914  1.00  0.00     0.070 C 
BRANCH  13  21
HETATM   21  O   UNL     1     -11.429   0.712 -33.056  1.00  0.00    -0.385 OA
HETATM   22  H   UNL     1     -11.443   0.628 -32.085  1.00  0.00     0.211 HD
ENDBRANCH  13  21
ENDBRANCH   1  13
BRANCH   8  23
HETATM   23  C   UNL     1      -6.120   0.066 -32.033  1.00  0.00     0.278 C 
BRANCH  23  24
HETATM   24  C   UNL     1      -5.886  -1.042 -33.017  1.00  0.00     0.028 A 
HETATM   25  C   UNL     1      -4.636  -1.644 -33.206  1.00  0.00     0.045 A 
HETATM   26 CL   UNL     1      -3.276  -1.178 -32.247  1.00  0.00    -0.084 Cl
HETATM   27  C   UNL     1      -4.462  -2.651 -34.158  1.00  0.00     0.024 A 
HETATM   28  C   UNL     1      -5.543  -3.070 -34.936  1.00  0.00     0.005 A 
HETATM   29  C   UNL     1      -6.794  -2.487 -34.757  1.00  0.00     0.043 A 
HETATM   30  C   UNL     1      -6.952  -1.486 -33.805  1.00  0.00     0.126 A 
HETATM   31  F   UNL     1      -8.166  -0.945 -33.626  1.00  0.00    -0.205 F 
ENDBRANCH  23  24
ENDBRANCH   8  23
TORSDOF 4
ENDMDL
MODEL 4
REMARK VINA RESULT:      -8.2      4.597      6.896
REMARK  4 active torsions:
REMARK  status: ('A' for Active; 'I' for Inactive)
REMARK    1  A    between atoms: C_6  and  O_7 
REMARK    2  A    between atoms: C_6  and  C_8 
REMARK    3  A    between atoms: N_15  and  C_17 
REMARK    4  A    between atoms: C_17  and  C_18 
ROOT
HETATM    1  C   UNL     1      -0.422   6.841 -29.118  1.00  0.00    -0.023 A 
HETATM    2  C   UNL     1      -1.727   6.569 -29.596  1.00  0.00     0.022 A 
HETATM    3  C   UNL     1      -2.010   6.433 -30.968  1.00  0.00     0.002 A 
HETATM    4  C   UNL     1      -0.956   6.536 -31.873  1.00  0.00     0.076 A 
HETATM    5  O   UNL     1      -1.165   6.403 -33.216  1.00  0.00    -0.349 OA
HETATM    6  C   UNL     1      -1.491   5.050 -33.562  1.00  0.00     0.203 C 
HETATM    7  C   UNL     1      -3.006   4.828 -33.552  1.00  0.00     0.262 C 
HETATM    8  N   UNL     1      -3.619   4.868 -32.160  1.00  0.00    -0.061 N 
HETATM    9  H   UNL     1      -4.635   4.817 -32.314  1.00  0.00     0.280 HD
HETATM   10  C   UNL     1      -3.410   6.188 -31.459  1.00  0.00     0.276 C 
HETATM   11  C   UNL     1       0.335   6.811 -31.439  1.00  0.00     0.038 A 
HETATM   12  C   UNL     1       0.602   6.945 -30.073  1.00  0.00     0.013 A 
ENDROOT
BRANCH   1  13
HETATM   13  C   UNL     1      -0.163   6.918 -27.608  1.00  0.00     0.088 C 
HETATM   14  C   UNL     1      -1.181   7.797 -26.849  1.00  0.00     0.070 C 
HETATM   15  C   UNL     1      -0.940   9.279 -27.067  1.00  0.00     0.237 C 
HETATM   16  N   UNL     1       0.452   9.629 -26.613  1.00  0.00    -0.075 N 
HETATM   17  C   UNL     1       0.706  11.114 -26.703  1.00  0.00     0.269 C 
HETATM   18  H   UNL     1       0.521   9.400 -25.609  1.00  0.00     0.279 HD
HETATM   19  C   UNL     1       1.509   8.837 -27.336  1.00  0.00     0.237 C 
HETATM   20  C   UNL     1       1.250   7.345 -27.160  1.00  0.00     0.070 C 
BRANCH  13  21
HETATM   21  O   UNL     1      -0.366   5.580 -27.134  1.00  0.00    -0.385 OA
HETATM   22  H   UNL     1       0.043   5.495 -26.253  1.00  0.00     0.211 HD
ENDBRANCH  13  21
ENDBRANCH   1  13
BRANCH   8  23
HETATM   23  C   UNL     1      -3.300   3.678 -31.277  1.00  0.00     0.278 C 
BRANCH  23  24
HETATM   24  C   UNL     1      -4.419   2.691 -31.130  1.00  0.00     0.028 A 
HETATM   25  C   UNL     1      -5.502   2.889 -30.264  1.00  0.00     0.045 A 
HETATM   26 CL   UNL     1      -5.646   4.346 -29.346  1.00  0.00    -0.084 Cl
HETATM   27  C   UNL     1      -6.504   1.924 -30.138  1.00  0.00     0.024 A 
HETATM   28  C   UNL     1      -6.435   0.744 -30.880  1.00  0.00     0.005 A 
HETATM   29  C   UNL     1      -5.368   0.534 -31.750  1.00  0.00     0.043 A 
HETATM   30  C   UNL     1      -4.378   1.503 -31.866  1.00  0.00     0.126 A 
HETATM   31  F   UNL     1      -3.366   1.300 -32.721  1.00  0.00    -0.205 F 
ENDBRANCH  23  24
ENDBRANCH   8  23
TORSDOF 4
ENDMDL
MODEL 5
REMARK VINA RESULT:      -8.2      4.431      8.466
REMARK  4 active torsions:
REMARK  status: ('A' for Active; 'I' for Inactive)
REMARK    1  A    between atoms: C_6  and  O_7 
REMARK    2  A    between atoms: C_6  and  C_8 
REMARK    3  A    between atoms: N_15  and  C_17 
REMARK    4  A    between atoms: C_17  and  C_18 
ROOT
HETATM    1  C   UNL     1      -4.195   3.024 -32.110  1.00  0.00    -0.023 A 
HETATM    2  C   UNL     1      -2.873   3.441 -31.819  1.00  0.00     0.022 A 
HETATM    3  C   UNL     1      -2.278   4.548 -32.453  1.00  0.00     0.002 A 
HETATM    4  C   UNL     1      -3.038   5.270 -33.370  1.00  0.00     0.076 A 
HETATM    5  O   UNL     1      -2.521   6.360 -34.010  1.00  0.00    -0.349 OA
HETATM    6  C   UNL     1      -2.340   7.460 -33.106  1.00  0.00     0.203 C 
HETATM    7  C   UNL     1      -0.933   7.451 -32.503  1.00  0.00     0.262 C 
HETATM    8  N   UNL     1      -0.695   6.307 -31.529  1.00  0.00    -0.061 N 
HETATM    9  H   UNL     1       0.306   6.361 -31.293  1.00  0.00     0.280 HD
HETATM   10  C   UNL     1      -0.858   4.947 -32.163  1.00  0.00     0.276 C 
HETATM   11  C   UNL     1      -4.335   4.885 -33.685  1.00  0.00     0.038 A 
HETATM   12  C   UNL     1      -4.914   3.782 -33.049  1.00  0.00     0.013 A 
ENDROOT
BRANCH   1  13
HETATM   13  C   UNL     1      -4.812   1.848 -31.343  1.00  0.00     0.088 C 
HETATM   14  C   UNL     1      -3.798   0.737 -30.994  1.00  0.00     0.070 C 
HETATM   15  C   UNL     1      -3.433  -0.111 -32.199  1.00  0.00     0.237 C 
HETATM   16  N   UNL     1      -4.681  -0.737 -32.763  1.00  0.00    -0.075 N 
HETATM   17  C   UNL     1      -4.363  -1.681 -33.896  1.00  0.00     0.269 C 
HETATM   18  H   UNL     1      -5.097  -1.326 -32.025  1.00  0.00     0.279 HD
HETATM   19  C   UNL     1      -5.709   0.288 -33.163  1.00  0.00     0.237 C 
HETATM   20  C   UNL     1      -6.049   1.173 -31.970  1.00  0.00     0.070 C 
BRANCH  13  21
HETATM   21  O   UNL     1      -5.229   2.408 -30.090  1.00  0.00    -0.385 OA
HETATM   22  H   UNL     1      -4.484   2.906 -29.707  1.00  0.00     0.211 HD
ENDBRANCH  13  21
ENDBRANCH   1  13
BRANCH   8  23
HETATM   23  C   UNL     1      -1.414   6.425 -30.200  1.00  0.00     0.278 C 
BRANCH  23  24
HETATM   24  C   UNL     1      -0.634   7.123 -29.127  1.00  0.00     0.028 A 
HETATM   25  C   UNL     1      -0.840   8.465 -28.783  1.00  0.00     0.045 A 
HETATM   26 CL   UNL     1      -2.081   9.393 -29.548  1.00  0.00    -0.084 Cl
HETATM   27  C   UNL     1      -0.065   9.079 -27.797  1.00  0.00     0.024 A 
HETATM   28  C   UNL     1       0.932   8.356 -27.140  1.00  0.00     0.005 A 
HETATM   29  C   UNL     1       1.147   7.020 -27.466  1.00  0.00     0.043 A 
HETATM   30  C   UNL     1       0.367   6.420 -28.449  1.00  0.00     0.126 A 
HETATM   31  F   UNL     1       0.568   5.128 -28.741  1.00  0.00    -0.205 F 
ENDBRANCH  23  24
ENDBRANCH   8  23
TORSDOF 4
ENDMDL
MODEL 6
REMARK VINA RESULT:      -8.2      3.672      6.553
REMARK  4 active torsions:
REMARK  status: ('A' for Active; 'I' for Inactive)
REMARK    1  A    between atoms: C_6  and  O_7 
REMARK    2  A    between atoms: C_6  and  C_8 
REMARK    3  A    between atoms: N_15  and  C_17 
REMARK    4  A    between atoms: C_17  and  C_18 
ROOT
HETATM    1  C   UNL     1     -10.487   3.536 -33.496  1.00  0.00    -0.023 A 
HETATM    2  C   UNL     1      -9.138   3.111 -33.558  1.00  0.00     0.022 A 
HETATM    3  C   UNL     1      -8.212   3.399 -32.538  1.00  0.00     0.002 A 
HETATM    4  C   UNL     1      -8.660   4.095 -31.418  1.00  0.00     0.076 A 
HETATM    5  O   UNL     1      -7.812   4.396 -30.390  1.00  0.00    -0.349 OA
HETATM    6  C   UNL     1      -7.438   3.218 -29.661  1.00  0.00     0.203 C 
HETATM    7  C   UNL     1      -6.149   2.609 -30.221  1.00  0.00     0.262 C 
HETATM    8  N   UNL     1      -6.319   1.987 -31.600  1.00  0.00    -0.061 N 
HETATM    9  H   UNL     1      -5.367   1.724 -31.892  1.00  0.00     0.280 HD
HETATM   10  C   UNL     1      -6.773   2.978 -32.644  1.00  0.00     0.276 C 
HETATM   11  C   UNL     1      -9.975   4.534 -31.327  1.00  0.00     0.038 A 
HETATM   12  C   UNL     1     -10.884   4.242 -32.349  1.00  0.00     0.013 A 
ENDROOT
BRANCH   1  13
HETATM   13  C   UNL     1     -11.465   3.139 -34.609  1.00  0.00     0.088 C 
HETATM   14  C   UNL     1     -12.740   4.009 -34.652  1.00  0.00     0.070 C 
HETATM   15  C   UNL     1     -13.712   3.663 -33.539  1.00  0.00     0.237 C 
HETATM   16  N   UNL     1     -14.097   2.212 -33.647  1.00  0.00    -0.075 N 
HETATM   17  C   UNL     1     -15.150   1.841 -32.631  1.00  0.00     0.269 C 
HETATM   18  H   UNL     1     -14.545   2.074 -34.566  1.00  0.00     0.279 HD
HETATM   19  C   UNL     1     -12.906   1.293 -33.577  1.00  0.00     0.237 C 
HETATM   20  C   UNL     1     -11.903   1.661 -34.664  1.00  0.00     0.070 C 
BRANCH  13  21
HETATM   21  O   UNL     1     -10.760   3.413 -35.828  1.00  0.00    -0.385 OA
HETATM   22  H   UNL     1     -10.923   2.684 -36.454  1.00  0.00     0.211 HD
ENDBRANCH  13  21
ENDBRANCH   1  13
BRANCH   8  23
HETATM   23  C   UNL     1      -7.108   0.695 -31.635  1.00  0.00     0.278 C 
BRANCH  23  24
HETATM   24  C   UNL     1      -6.629  -0.304 -32.646  1.00  0.00     0.028 A 
HETATM   25  C   UNL     1      -5.351  -0.877 -32.606  1.00  0.00     0.045 A 
HETATM   26 CL   UNL     1      -4.255  -0.507 -31.323  1.00  0.00    -0.084 Cl
HETATM   27  C   UNL     1      -4.940  -1.779 -33.590  1.00  0.00     0.024 A 
HETATM   28  C   UNL     1      -5.805  -2.120 -34.631  1.00  0.00     0.005 A 
HETATM   29  C   UNL     1      -7.080  -1.564 -34.683  1.00  0.00     0.043 A 
HETATM   30  C   UNL     1      -7.477  -0.668 -33.696  1.00  0.00     0.126 A 
HETATM   31  F   UNL     1      -8.714  -0.154 -33.743  1.00  0.00    -0.205 F 
ENDBRANCH  23  24
ENDBRANCH   8  23
TORSDOF 4
ENDMDL
MODEL 7
REMARK VINA RESULT:      -8.1      3.930      7.613
REMARK  4 active torsions:
REMARK  status: ('A' for Active; 'I' for Inactive)
REMARK    1  A    between atoms: C_6  and  O_7 
REMARK    2  A    between atoms: C_6  and  C_8 
REMARK    3  A    between atoms: N_15  and  C_17 
REMARK    4  A    between atoms: C_17  and  C_18 
ROOT
HETATM    1  C   UNL     1     -10.385   1.889 -33.420  1.00  0.00    -0.023 A 
HETATM    2  C   UNL     1      -9.496   2.662 -32.635  1.00  0.00     0.022 A 
HETATM    3  C   UNL     1      -8.551   2.074 -31.773  1.00  0.00     0.002 A 
HETATM    4  C   UNL     1      -8.475   0.684 -31.726  1.00  0.00     0.076 A 
HETATM    5  O   UNL     1      -7.573   0.054 -30.918  1.00  0.00    -0.349 OA
HETATM    6  C   UNL     1      -6.231   0.234 -31.393  1.00  0.00     0.203 C 
HETATM    7  C   UNL     1      -5.579   1.463 -30.752  1.00  0.00     0.262 C 
HETATM    8  N   UNL     1      -6.173   2.783 -31.222  1.00  0.00    -0.061 N 
HETATM    9  H   UNL     1      -5.724   3.501 -30.637  1.00  0.00     0.280 HD
HETATM   10  C   UNL     1      -7.646   2.912 -30.914  1.00  0.00     0.276 C 
HETATM   11  C   UNL     1      -9.338  -0.104 -32.478  1.00  0.00     0.038 A 
HETATM   12  C   UNL     1     -10.273   0.493 -33.329  1.00  0.00     0.013 A 
ENDROOT
BRANCH   1  13
HETATM   13  C   UNL     1     -11.352   2.586 -34.387  1.00  0.00     0.088 C 
HETATM   14  C   UNL     1     -12.150   3.739 -33.741  1.00  0.00     0.070 C 
HETATM   15  C   UNL     1     -13.259   3.237 -32.836  1.00  0.00     0.237 C 
HETATM   16  N   UNL     1     -14.198   2.370 -33.632  1.00  0.00    -0.075 N 
HETATM   17  C   UNL     1     -15.383   1.934 -32.807  1.00  0.00     0.269 C 
HETATM   18  H   UNL     1     -14.591   2.948 -34.391  1.00  0.00     0.279 HD
HETATM   19  C   UNL     1     -13.498   1.197 -34.266  1.00  0.00     0.237 C 
HETATM   20  C   UNL     1     -12.353   1.689 -35.144  1.00  0.00     0.070 C 
BRANCH  13  21
HETATM   21  O   UNL     1     -10.506   3.194 -35.372  1.00  0.00    -0.385 OA
HETATM   22  H   UNL     1      -9.676   2.686 -35.429  1.00  0.00     0.211 HD
ENDBRANCH  13  21
ENDBRANCH   1  13
BRANCH   8  23
HETATM   23  C   UNL     1      -5.836   3.175 -32.646  1.00  0.00     0.278 C 
BRANCH  23  24
HETATM   24  C   UNL     1      -4.669   4.108 -32.778  1.00  0.00     0.028 A 
HETATM   25  C   UNL     1      -4.811   5.498 -32.878  1.00  0.00     0.045 A 
HETATM   26 CL   UNL     1      -6.370   6.237 -32.786  1.00  0.00    -0.084 Cl
HETATM   27  C   UNL     1      -3.694   6.323 -33.031  1.00  0.00     0.024 A 
HETATM   28  C   UNL     1      -2.416   5.765 -33.087  1.00  0.00     0.005 A 
HETATM   29  C   UNL     1      -2.257   4.386 -32.983  1.00  0.00     0.043 A 
HETATM   30  C   UNL     1      -3.377   3.577 -32.830  1.00  0.00     0.126 A 
HETATM   31  F   UNL     1      -3.212   2.252 -32.710  1.00  0.00    -0.205 F 
ENDBRANCH  23  24
ENDBRANCH   8  23
TORSDOF 4
ENDMDL
MODEL 8
REMARK VINA RESULT:      -7.8      2.994      5.089
REMARK  4 active torsions:
REMARK  status: ('A' for Active; 'I' for Inactive)
REMARK    1  A    between atoms: C_6  and  O_7 
REMARK    2  A    between atoms: C_6  and  C_8 
REMARK    3  A    between atoms: N_15  and  C_17 
REMARK    4  A    between atoms: C_17  and  C_18 
ROOT
HETATM    1  C   UNL     1      -4.680   3.486 -32.164  1.00  0.00    -0.023 A 
HETATM    2  C   UNL     1      -5.620   3.062 -33.135  1.00  0.00     0.022 A 
HETATM    3  C   UNL     1      -5.758   1.712 -33.507  1.00  0.00     0.002 A 
HETATM    4  C   UNL     1      -4.962   0.766 -32.866  1.00  0.00     0.076 A 
HETATM    5  O   UNL     1      -5.056  -0.560 -33.176  1.00  0.00    -0.349 OA
HETATM    6  C   UNL     1      -6.297  -1.116 -32.720  1.00  0.00     0.203 C 
HETATM    7  C   UNL     1      -7.370  -1.037 -33.809  1.00  0.00     0.262 C 
HETATM    8  N   UNL     1      -7.841   0.381 -34.098  1.00  0.00    -0.061 N 
HETATM    9  H   UNL     1      -8.466   0.294 -34.912  1.00  0.00     0.280 HD
HETATM   10  C   UNL     1      -6.731   1.288 -34.572  1.00  0.00     0.276 C 
HETATM   11  C   UNL     1      -4.024   1.148 -31.915  1.00  0.00     0.038 A 
HETATM   12  C   UNL     1      -3.896   2.493 -31.555  1.00  0.00     0.013 A 
ENDROOT
BRANCH   1  13
HETATM   13  C   UNL     1      -4.619   4.963 -31.754  1.00  0.00     0.088 C 
HETATM   14  C   UNL     1      -4.789   5.941 -32.937  1.00  0.00     0.070 C 
HETATM   15  C   UNL     1      -3.544   6.025 -33.801  1.00  0.00     0.237 C 
HETATM   16  N   UNL     1      -2.380   6.468 -32.955  1.00  0.00    -0.075 N 
HETATM   17  C   UNL     1      -1.139   6.676 -33.787  1.00  0.00     0.269 C 
HETATM   18  H   UNL     1      -2.609   7.397 -32.569  1.00  0.00     0.279 HD
HETATM   19  C   UNL     1      -2.126   5.541 -31.796  1.00  0.00     0.237 C 
HETATM   20  C   UNL     1      -3.385   5.415 -30.946  1.00  0.00     0.070 C 
BRANCH  13  21
HETATM   21  O   UNL     1      -5.764   5.157 -30.914  1.00  0.00    -0.385 OA
HETATM   22  H   UNL     1      -5.599   5.922 -30.332  1.00  0.00     0.211 HD
ENDBRANCH  13  21
ENDBRANCH   1  13
BRANCH   8  23
HETATM   23  C   UNL     1      -8.694   1.014 -33.018  1.00  0.00     0.278 C 
BRANCH  23  24
HETATM   24  C   UNL     1     -10.086   1.369 -33.448  1.00  0.00     0.028 A 
HETATM   25  C   UNL     1     -10.426   2.621 -33.976  1.00  0.00     0.045 A 
HETATM   26 CL   UNL     1      -9.220   3.832 -34.228  1.00  0.00    -0.084 Cl
HETATM   27  C   UNL     1     -11.745   2.914 -34.333  1.00  0.00     0.024 A 
HETATM   28  C   UNL     1     -12.744   1.953 -34.165  1.00  0.00     0.005 A 
HETATM   29  C   UNL     1     -12.422   0.702 -33.648  1.00  0.00     0.043 A 
HETATM   30  C   UNL     1     -11.105   0.424 -33.298  1.00  0.00     0.126 A 
HETATM   31  F   UNL     1     -10.802  -0.792 -32.820  1.00  0.00    -0.205 F 
ENDBRANCH  23  24
ENDBRANCH   8  23
TORSDOF 4
ENDMDL
MODEL 9
REMARK VINA RESULT:      -7.7      2.425      2.919
REMARK  4 active torsions:
REMARK  status: ('A' for Active; 'I' for Inactive)
REMARK    1  A    between atoms: C_6  and  O_7 
REMARK    2  A    between atoms: C_6  and  C_8 
REMARK    3  A    between atoms: N_15  and  C_17 
REMARK    4  A    between atoms: C_17  and  C_18 
ROOT
HETATM    1  C   UNL     1      -7.831   4.388 -30.294  1.00  0.00    -0.023 A 
HETATM    2  C   UNL     1      -7.900   2.997 -30.552  1.00  0.00     0.022 A 
HETATM    3  C   UNL     1      -8.928   2.428 -31.327  1.00  0.00     0.002 A 
HETATM    4  C   UNL     1      -9.883   3.277 -31.881  1.00  0.00     0.076 A 
HETATM    5  O   UNL     1     -10.899   2.787 -32.651  1.00  0.00    -0.349 OA
HETATM    6  C   UNL     1     -10.414   2.307 -33.913  1.00  0.00     0.203 C 
HETATM    7  C   UNL     1     -10.075   0.816 -33.842  1.00  0.00     0.262 C 
HETATM    8  N   UNL     1      -8.853   0.508 -32.990  1.00  0.00    -0.061 N 
HETATM    9  H   UNL     1      -8.812  -0.520 -32.943  1.00  0.00     0.280 HD
HETATM   10  C   UNL     1      -9.009   0.944 -31.553  1.00  0.00     0.276 C 
HETATM   11  C   UNL     1      -9.850   4.645 -31.641  1.00  0.00     0.038 A 
HETATM   12  C   UNL     1      -8.824   5.197 -30.869  1.00  0.00     0.013 A 
ENDROOT
BRANCH   1  13
HETATM   13  C   UNL     1      -6.652   4.958 -29.493  1.00  0.00     0.088 C 
HETATM   14  C   UNL     1      -6.447   6.475 -29.690  1.00  0.00     0.070 C 
HETATM   15  C   UNL     1      -5.823   6.804 -31.033  1.00  0.00     0.237 C 
HETATM   16  N   UNL     1      -4.495   6.105 -31.151  1.00  0.00    -0.075 N 
HETATM   17  C   UNL     1      -3.778   6.487 -32.422  1.00  0.00     0.269 C 
HETATM   18  H   UNL     1      -3.893   6.446 -30.385  1.00  0.00     0.279 HD
HETATM   19  C   UNL     1      -4.617   4.611 -31.005  1.00  0.00     0.237 C 
HETATM   20  C   UNL     1      -5.283   4.272 -29.677  1.00  0.00     0.070 C 
BRANCH  13  21
HETATM   21  O   UNL     1      -7.026   4.785 -28.120  1.00  0.00    -0.385 OA
HETATM   22  H   UNL     1      -6.373   5.241 -27.558  1.00  0.00     0.211 HD
ENDBRANCH  13  21
ENDBRANCH   1  13
BRANCH   8  23
HETATM   23  C   UNL     1      -7.524   0.923 -33.588  1.00  0.00     0.278 C 
BRANCH  23  24
HETATM   24  C   UNL     1      -6.509  -0.177 -33.680  1.00  0.00     0.028 A 
HETATM   25  C   UNL     1      -5.393  -0.259 -32.838  1.00  0.00     0.045 A 
HETATM   26 CL   UNL     1      -5.153   0.893 -31.573  1.00  0.00    -0.084 Cl
HETATM   27  C   UNL     1      -4.458  -1.286 -32.986  1.00  0.00     0.024 A 
HETATM   28  C   UNL     1      -4.629  -2.249 -33.982  1.00  0.00     0.005 A 
HETATM   29  C   UNL     1      -5.736  -2.186 -34.824  1.00  0.00     0.043 A 
HETATM   30  C   UNL     1      -6.659  -1.158 -34.665  1.00  0.00     0.126 A 
HETATM   31  F   UNL     1      -7.732  -1.118 -35.468  1.00  0.00    -0.205 F 
ENDBRANCH  23  24
ENDBRANCH   8  23
TORSDOF 4
ENDMDL
MODEL 10
REMARK VINA RESULT:      -7.7      3.645      7.704
REMARK  4 active torsions:
REMARK  status: ('A' for Active; 'I' for Inactive)
REMARK    1  A    between atoms: C_6  and  O_7 
REMARK    2  A    between atoms: C_6  and  C_8 
REMARK    3  A    between atoms: N_15  and  C_17 
REMARK    4  A    between atoms: C_17  and  C_18 
ROOT
HETATM    1  C   UNL     1      -5.645   2.198 -32.099  1.00  0.00    -0.023 A 
HETATM    2  C   UNL     1      -4.292   2.535 -32.346  1.00  0.00     0.022 A 
HETATM    3  C   UNL     1      -3.918   3.760 -32.930  1.00  0.00     0.002 A 
HETATM    4  C   UNL     1      -4.920   4.677 -33.238  1.00  0.00     0.076 A 
HETATM    5  O   UNL     1      -4.620   5.886 -33.797  1.00  0.00    -0.349 OA
HETATM    6  C   UNL     1      -3.953   6.744 -32.859  1.00  0.00     0.203 C 
HETATM    7  C   UNL     1      -2.433   6.595 -32.961  1.00  0.00     0.262 C 
HETATM    8  N   UNL     1      -1.917   5.254 -32.460  1.00  0.00    -0.061 N 
HETATM    9  H   UNL     1      -0.913   5.252 -32.688  1.00  0.00     0.280 HD
HETATM   10  C   UNL     1      -2.479   4.080 -33.225  1.00  0.00     0.276 C 
HETATM   11  C   UNL     1      -6.258   4.375 -33.017  1.00  0.00     0.038 A 
HETATM   12  C   UNL     1      -6.616   3.155 -32.437  1.00  0.00     0.013 A 
ENDROOT
BRANCH   1  13
HETATM   13  C   UNL     1      -5.988   0.874 -31.404  1.00  0.00     0.088 C 
HETATM   14  C   UNL     1      -4.763  -0.036 -31.166  1.00  0.00     0.070 C 
HETATM   15  C   UNL     1      -4.290  -0.712 -32.440  1.00  0.00     0.237 C 
HETATM   16  N   UNL     1      -5.414  -1.533 -33.015  1.00  0.00    -0.075 N 
HETATM   17  C   UNL     1      -4.965  -2.317 -34.223  1.00  0.00     0.269 C 
HETATM   18  H   UNL     1      -5.676  -2.241 -32.311  1.00  0.00     0.279 HD
HETATM   19  C   UNL     1      -6.638  -0.707 -33.309  1.00  0.00     0.237 C 
HETATM   20  C   UNL     1      -7.095   0.012 -32.045  1.00  0.00     0.070 C 
BRANCH  13  21
HETATM   21  O   UNL     1      -6.454   1.255 -30.102  1.00  0.00    -0.385 OA
HETATM   22  H   UNL     1      -5.702   1.609 -29.592  1.00  0.00     0.211 HD
ENDBRANCH  13  21
ENDBRANCH   1  13
BRANCH   8  23
HETATM   23  C   UNL     1      -1.974   5.057 -30.959  1.00  0.00     0.278 C 
BRANCH  23  24
HETATM   24  C   UNL     1      -1.256   6.105 -30.163  1.00  0.00     0.028 A 
HETATM   25  C   UNL     1       0.138   6.140 -30.028  1.00  0.00     0.045 A 
HETATM   26 CL   UNL     1       1.134   4.989 -30.846  1.00  0.00    -0.084 Cl
HETATM   27  C   UNL     1       0.759   7.118 -29.249  1.00  0.00     0.024 A 
HETATM   28  C   UNL     1      -0.011   8.079 -28.591  1.00  0.00     0.005 A 
HETATM   29  C   UNL     1      -1.397   8.063 -28.719  1.00  0.00     0.043 A 
HETATM   30  C   UNL     1      -2.001   7.083 -29.498  1.00  0.00     0.126 A 
HETATM   31  F   UNL     1      -3.335   7.089 -29.631  1.00  0.00    -0.205 F 
ENDBRANCH  23  24
ENDBRANCH   8  23
TORSDOF 4
ENDMDL
