MODEL 1
REMARK VINA RESULT:      -8.2      0.000      0.000
REMARK  5 active torsions:
REMARK  status: ('A' for Active; 'I' for Inactive)
REMARK    1  A    between atoms: C_2  and  N_3 
REMARK    2  A    between atoms: C_2  and  C_21 
REMARK       I    between atoms: N_3  and  C_5 
REMARK       I    between atoms: C_5  and  N_6 
REMARK    3  A    between atoms: N_6  and  C_7 
REMARK    4  A    between atoms: C_7  and  C_8 
REMARK    5  A    between atoms: C_10  and  C_11 
ROOT
HETATM    1  N   UNL     1      -2.864   3.324 -32.404  1.00  0.00    -0.218 N 
HETATM    2  H   UNL     1      -2.052   2.875 -32.007  1.00  0.00     0.178 HD
HETATM    3  C   UNL     1      -3.982   2.563 -32.469  1.00  0.00     0.670 C 
HETATM    4  N   UNL     1      -5.066   2.988 -33.161  1.00  0.00    -0.221 N 
HETATM    5  N   UNL     1      -4.001   1.370 -31.831  1.00  0.00    -0.231 N 
HETATM    6  C   UNL     1      -2.992   0.867 -30.908  1.00  0.00     0.165 C 
HETATM    7  H   UNL     1      -4.918   3.735 -33.824  1.00  0.00     0.178 HD
HETATM    8  H   UNL     1      -4.700   0.712 -32.180  1.00  0.00     0.177 HD
ENDROOT
BRANCH   4   9
HETATM    9  C   UNL     1      -6.418   2.416 -33.070  1.00  0.00     0.199 C 
BRANCH   9  10
HETATM   10  C   UNL     1      -6.516   1.164 -33.857  1.00  0.00     0.077 A 
HETATM   11  N   UNL     1      -6.015  -0.028 -33.367  1.00  0.00    -0.225 NA
HETATM   12  C   UNL     1      -6.256  -0.900 -34.333  1.00  0.00     0.179 A 
HETATM   13  O   UNL     1      -6.939  -0.372 -35.396  1.00  0.00    -0.301 OA
HETATM   14  C   UNL     1      -7.097   0.944 -35.083  1.00  0.00     0.173 A 
BRANCH  12  15
HETATM   15  C   UNL     1      -5.868  -2.303 -34.428  1.00  0.00     0.017 A 
HETATM   16  C   UNL     1      -6.809  -3.256 -34.849  1.00  0.00     0.016 A 
HETATM   17  C   UNL     1      -6.468  -4.607 -34.932  1.00  0.00     0.001 A 
HETATM   18  C   UNL     1      -5.179  -5.021 -34.605  1.00  0.00     0.000 A 
HETATM   19  C   UNL     1      -4.231  -4.086 -34.192  1.00  0.00     0.001 A 
HETATM   20  C   UNL     1      -4.575  -2.735 -34.100  1.00  0.00     0.016 A 
ENDBRANCH  12  15
ENDBRANCH   9  10
ENDBRANCH   4   9
BRANCH   1  21
HETATM   21  C   UNL     1      -2.656   4.717 -32.849  1.00  0.00     0.135 C 
HETATM   22  C   UNL     1      -2.142   4.814 -34.284  1.00  0.00     0.038 C 
BRANCH  21  23
HETATM   23  C   UNL     1      -1.815   5.503 -31.871  1.00  0.00     0.005 A 
HETATM   24  S   UNL     1      -2.493   6.464 -30.618  1.00  0.00    -0.104 SA
HETATM   25  C   UNL     1      -0.961   6.974 -30.068  1.00  0.00     0.050 A 
HETATM   26  C   UNL     1       0.059   6.439 -30.820  1.00  0.00     0.008 A 
HETATM   27  C   UNL     1      -0.433   5.598 -31.860  1.00  0.00     0.017 A 
ENDBRANCH  21  23
ENDBRANCH   1  21
TORSDOF 5
ENDMDL
MODEL 2
REMARK VINA RESULT:      -8.1      4.353      7.003
REMARK  5 active torsions:
REMARK  status: ('A' for Active; 'I' for Inactive)
REMARK    1  A    between atoms: C_2  and  N_3 
REMARK    2  A    between atoms: C_2  and  C_21 
REMARK       I    between atoms: N_3  and  C_5 
REMARK       I    between atoms: C_5  and  N_6 
REMARK    3  A    between atoms: N_6  and  C_7 
REMARK    4  A    between atoms: C_7  and  C_8 
REMARK    5  A    between atoms: C_10  and  C_11 
ROOT
HETATM    1  N   UNL     1      -9.885   3.207 -33.160  1.00  0.00    -0.218 N 
HETATM    2  H   UNL     1     -10.534   3.502 -32.445  1.00  0.00     0.178 HD
HETATM    3  C   UNL     1      -8.577   3.224 -32.808  1.00  0.00     0.670 C 
HETATM    4  N   UNL     1      -7.610   3.046 -33.739  1.00  0.00    -0.221 N 
HETATM    5  N   UNL     1      -8.250   3.423 -31.511  1.00  0.00    -0.231 N 
HETATM    6  C   UNL     1      -9.171   3.449 -30.381  1.00  0.00     0.165 C 
HETATM    7  H   UNL     1      -7.881   3.167 -34.705  1.00  0.00     0.178 HD
HETATM    8  H   UNL     1      -7.298   3.759 -31.359  1.00  0.00     0.177 HD
ENDROOT
BRANCH   4   9
HETATM    9  C   UNL     1      -6.196   2.750 -33.459  1.00  0.00     0.199 C 
BRANCH   9  10
HETATM   10  C   UNL     1      -6.014   1.317 -33.127  1.00  0.00     0.077 A 
HETATM   11  N   UNL     1      -5.892   0.364 -34.122  1.00  0.00    -0.225 NA
HETATM   12  C   UNL     1      -5.771  -0.777 -33.461  1.00  0.00     0.179 A 
HETATM   13  O   UNL     1      -5.741  -0.626 -32.100  1.00  0.00    -0.301 OA
HETATM   14  C   UNL     1      -5.899   0.710 -31.899  1.00  0.00     0.173 A 
BRANCH  12  15
HETATM   15  C   UNL     1      -5.704  -2.139 -33.977  1.00  0.00     0.017 A 
HETATM   16  C   UNL     1      -6.858  -2.738 -34.508  1.00  0.00     0.016 A 
HETATM   17  C   UNL     1      -6.824  -4.046 -34.995  1.00  0.00     0.001 A 
HETATM   18  C   UNL     1      -5.634  -4.769 -34.965  1.00  0.00     0.000 A 
HETATM   19  C   UNL     1      -4.478  -4.187 -34.447  1.00  0.00     0.001 A 
HETATM   20  C   UNL     1      -4.514  -2.880 -33.953  1.00  0.00     0.016 A 
ENDBRANCH  12  15
ENDBRANCH   9  10
ENDBRANCH   4   9
BRANCH   1  21
HETATM   21  C   UNL     1     -10.499   2.833 -34.450  1.00  0.00     0.135 C 
HETATM   22  C   UNL     1     -10.901   4.042 -35.291  1.00  0.00     0.038 C 
BRANCH  21  23
HETATM   23  C   UNL     1     -11.624   1.841 -34.274  1.00  0.00     0.005 A 
HETATM   24  S   UNL     1     -13.205   2.100 -34.898  1.00  0.00    -0.104 SA
HETATM   25  C   UNL     1     -13.785   0.627 -34.263  1.00  0.00     0.050 A 
HETATM   26  C   UNL     1     -12.808  -0.057 -33.578  1.00  0.00     0.008 A 
HETATM   27  C   UNL     1     -11.568   0.644 -33.580  1.00  0.00     0.017 A 
ENDBRANCH  21  23
ENDBRANCH   1  21
TORSDOF 5
ENDMDL
MODEL 3
REMARK VINA RESULT:      -8.0      3.083      5.309
REMARK  5 active torsions:
REMARK  status: ('A' for Active; 'I' for Inactive)
REMARK    1  A    between atoms: C_2  and  N_3 
REMARK    2  A    between atoms: C_2  and  C_21 
REMARK       I    between atoms: N_3  and  C_5 
REMARK       I    between atoms: C_5  and  N_6 
REMARK    3  A    between atoms: N_6  and  C_7 
REMARK    4  A    between atoms: C_7  and  C_8 
REMARK    5  A    between atoms: C_10  and  C_11 
ROOT
HETATM    1  N   UNL     1      -6.613   4.052 -31.968  1.00  0.00    -0.218 N 
HETATM    2  H   UNL     1      -7.123   4.716 -31.403  1.00  0.00     0.178 HD
HETATM    3  C   UNL     1      -5.405   3.676 -31.483  1.00  0.00     0.670 C 
HETATM    4  N   UNL     1      -4.550   2.954 -32.246  1.00  0.00    -0.221 N 
HETATM    5  N   UNL     1      -5.064   4.034 -30.224  1.00  0.00    -0.231 N 
HETATM    6  C   UNL     1      -5.939   4.646 -29.232  1.00  0.00     0.165 C 
HETATM    7  H   UNL     1      -4.728   2.942 -33.240  1.00  0.00     0.178 HD
HETATM    8  H   UNL     1      -4.060   4.029 -30.037  1.00  0.00     0.177 HD
ENDROOT
BRANCH   4   9
HETATM    9  C   UNL     1      -3.361   2.240 -31.757  1.00  0.00     0.199 C 
BRANCH   9  10
HETATM   10  C   UNL     1      -3.494   0.780 -31.977  1.00  0.00     0.077 A 
HETATM   11  N   UNL     1      -4.303   0.282 -32.983  1.00  0.00    -0.225 NA
HETATM   12  C   UNL     1      -4.193  -1.032 -32.862  1.00  0.00     0.179 A 
HETATM   13  O   UNL     1      -3.316  -1.425 -31.886  1.00  0.00    -0.301 OA
HETATM   14  C   UNL     1      -2.880  -0.263 -31.327  1.00  0.00     0.173 A 
BRANCH  12  15
HETATM   15  C   UNL     1      -4.891  -2.086 -33.588  1.00  0.00     0.017 A 
HETATM   16  C   UNL     1      -4.238  -3.302 -33.843  1.00  0.00     0.016 A 
HETATM   17  C   UNL     1      -4.878  -4.322 -34.550  1.00  0.00     0.001 A 
HETATM   18  C   UNL     1      -6.183  -4.141 -35.003  1.00  0.00     0.000 A 
HETATM   19  C   UNL     1      -6.848  -2.942 -34.752  1.00  0.00     0.001 A 
HETATM   20  C   UNL     1      -6.204  -1.919 -34.052  1.00  0.00     0.016 A 
ENDBRANCH  12  15
ENDBRANCH   9  10
ENDBRANCH   4   9
BRANCH   1  21
HETATM   21  C   UNL     1      -7.286   3.642 -33.217  1.00  0.00     0.135 C 
HETATM   22  C   UNL     1      -8.116   4.761 -33.842  1.00  0.00     0.038 C 
BRANCH  21  23
HETATM   23  C   UNL     1      -8.065   2.360 -33.045  1.00  0.00     0.005 A 
HETATM   24  S   UNL     1      -8.711   1.855 -31.534  1.00  0.00    -0.104 SA
HETATM   25  C   UNL     1      -9.347   0.417 -32.194  1.00  0.00     0.050 A 
HETATM   26  C   UNL     1      -9.074   0.303 -33.537  1.00  0.00     0.008 A 
HETATM   27  C   UNL     1      -8.331   1.417 -34.024  1.00  0.00     0.017 A 
ENDBRANCH  21  23
ENDBRANCH   1  21
TORSDOF 5
ENDMDL
MODEL 4
REMARK VINA RESULT:      -8.0      5.389      8.241
REMARK  5 active torsions:
REMARK  status: ('A' for Active; 'I' for Inactive)
REMARK    1  A    between atoms: C_2  and  N_3 
REMARK    2  A    between atoms: C_2  and  C_21 
REMARK       I    between atoms: N_3  and  C_5 
REMARK       I    between atoms: C_5  and  N_6 
REMARK    3  A    between atoms: N_6  and  C_7 
REMARK    4  A    between atoms: C_7  and  C_8 
REMARK    5  A    between atoms: C_10  and  C_11 
ROOT
HETATM    1  N   UNL     1     -11.841   2.441 -33.890  1.00  0.00    -0.218 N 
HETATM    2  H   UNL     1     -12.032   2.964 -34.732  1.00  0.00     0.178 HD
HETATM    3  C   UNL     1     -10.600   2.596 -33.372  1.00  0.00     0.670 C 
HETATM    4  N   UNL     1     -10.167   1.795 -32.368  1.00  0.00    -0.221 N 
HETATM    5  N   UNL     1      -9.797   3.562 -33.871  1.00  0.00    -0.231 N 
HETATM    6  C   UNL     1     -10.183   4.606 -34.814  1.00  0.00     0.165 C 
HETATM    7  H   UNL     1     -10.682   0.940 -32.215  1.00  0.00     0.178 HD
HETATM    8  H   UNL     1      -8.801   3.420 -33.698  1.00  0.00     0.177 HD
ENDROOT
BRANCH   4   9
HETATM    9  C   UNL     1      -8.984   2.039 -31.528  1.00  0.00     0.199 C 
BRANCH   9  10
HETATM   10  C   UNL     1      -7.805   1.308 -32.052  1.00  0.00     0.077 A 
HETATM   11  N   UNL     1      -7.955   0.138 -32.773  1.00  0.00    -0.225 NA
HETATM   12  C   UNL     1      -6.714  -0.232 -33.046  1.00  0.00     0.179 A 
HETATM   13  O   UNL     1      -5.765   0.652 -32.606  1.00  0.00    -0.301 OA
HETATM   14  C   UNL     1      -6.471   1.627 -31.972  1.00  0.00     0.173 A 
BRANCH  12  15
HETATM   15  C   UNL     1      -6.236  -1.443 -33.704  1.00  0.00     0.017 A 
HETATM   16  C   UNL     1      -7.161  -2.357 -34.232  1.00  0.00     0.016 A 
HETATM   17  C   UNL     1      -6.731  -3.531 -34.853  1.00  0.00     0.001 A 
HETATM   18  C   UNL     1      -5.368  -3.801 -34.962  1.00  0.00     0.000 A 
HETATM   19  C   UNL     1      -4.437  -2.901 -34.448  1.00  0.00     0.001 A 
HETATM   20  C   UNL     1      -4.868  -1.730 -33.819  1.00  0.00     0.016 A 
ENDBRANCH  12  15
ENDBRANCH   9  10
ENDBRANCH   4   9
BRANCH   1  21
HETATM   21  C   UNL     1     -12.956   1.600 -33.408  1.00  0.00     0.135 C 
HETATM   22  C   UNL     1     -13.415   0.570 -34.438  1.00  0.00     0.038 C 
BRANCH  21  23
HETATM   23  C   UNL     1     -14.093   2.428 -32.860  1.00  0.00     0.005 A 
HETATM   24  S   UNL     1     -13.962   4.117 -32.564  1.00  0.00    -0.104 SA
HETATM   25  C   UNL     1     -15.559   4.221 -31.974  1.00  0.00     0.050 A 
HETATM   26  C   UNL     1     -16.192   3.000 -31.987  1.00  0.00     0.008 A 
HETATM   27  C   UNL     1     -15.347   1.969 -32.490  1.00  0.00     0.017 A 
ENDBRANCH  21  23
ENDBRANCH   1  21
TORSDOF 5
ENDMDL
MODEL 5
REMARK VINA RESULT:      -8.0      2.058      2.738
REMARK  5 active torsions:
REMARK  status: ('A' for Active; 'I' for Inactive)
REMARK    1  A    between atoms: C_2  and  N_3 
REMARK    2  A    between atoms: C_2  and  C_21 
REMARK       I    between atoms: N_3  and  C_5 
REMARK       I    between atoms: C_5  and  N_6 
REMARK    3  A    between atoms: N_6  and  C_7 
REMARK    4  A    between atoms: C_7  and  C_8 
REMARK    5  A    between atoms: C_10  and  C_11 
ROOT
HETATM    1  N   UNL     1      -5.023   5.618 -31.520  1.00  0.00    -0.218 N 
HETATM    2  H   UNL     1      -5.242   6.376 -30.890  1.00  0.00     0.178 HD
HETATM    3  C   UNL     1      -4.791   4.419 -30.936  1.00  0.00     0.670 C 
HETATM    4  N   UNL     1      -4.292   3.386 -31.657  1.00  0.00    -0.221 N 
HETATM    5  N   UNL     1      -5.064   4.266 -29.620  1.00  0.00    -0.231 N 
HETATM    6  C   UNL     1      -5.764   5.218 -28.766  1.00  0.00     0.165 C 
HETATM    7  H   UNL     1      -3.864   3.615 -32.542  1.00  0.00     0.178 HD
HETATM    8  H   UNL     1      -4.572   3.493 -29.170  1.00  0.00     0.177 HD
ENDROOT
BRANCH   4   9
HETATM    9  C   UNL     1      -4.274   1.977 -31.234  1.00  0.00     0.199 C 
BRANCH   9  10
HETATM   10  C   UNL     1      -4.900   1.110 -32.260  1.00  0.00     0.077 A 
HETATM   11  N   UNL     1      -4.715  -0.260 -32.245  1.00  0.00    -0.225 NA
HETATM   12  C   UNL     1      -5.389  -0.688 -33.302  1.00  0.00     0.179 A 
HETATM   13  O   UNL     1      -6.055   0.305 -33.969  1.00  0.00    -0.301 OA
HETATM   14  C   UNL     1      -5.734   1.445 -33.299  1.00  0.00     0.173 A 
BRANCH  12  15
HETATM   15  C   UNL     1      -5.483  -2.035 -33.853  1.00  0.00     0.017 A 
HETATM   16  C   UNL     1      -6.703  -2.484 -34.383  1.00  0.00     0.016 A 
HETATM   17  C   UNL     1      -6.824  -3.774 -34.902  1.00  0.00     0.001 A 
HETATM   18  C   UNL     1      -5.723  -4.628 -34.906  1.00  0.00     0.000 A 
HETATM   19  C   UNL     1      -4.503  -4.195 -34.390  1.00  0.00     0.001 A 
HETATM   20  C   UNL     1      -4.384  -2.907 -33.862  1.00  0.00     0.016 A 
ENDBRANCH  12  15
ENDBRANCH   9  10
ENDBRANCH   4   9
BRANCH   1  21
HETATM   21  C   UNL     1      -4.983   5.984 -32.950  1.00  0.00     0.135 C 
HETATM   22  C   UNL     1      -5.961   5.175 -33.799  1.00  0.00     0.038 C 
BRANCH  21  23
HETATM   23  C   UNL     1      -3.577   5.966 -33.499  1.00  0.00     0.005 A 
HETATM   24  S   UNL     1      -2.326   6.983 -32.901  1.00  0.00    -0.104 SA
HETATM   25  C   UNL     1      -1.187   6.377 -34.016  1.00  0.00     0.050 A 
HETATM   26  C   UNL     1      -1.734   5.424 -34.843  1.00  0.00     0.008 A 
HETATM   27  C   UNL     1      -3.110   5.192 -34.550  1.00  0.00     0.017 A 
ENDBRANCH  21  23
ENDBRANCH   1  21
TORSDOF 5
ENDMDL
MODEL 6
REMARK VINA RESULT:      -7.9      2.142      3.109
REMARK  5 active torsions:
REMARK  status: ('A' for Active; 'I' for Inactive)
REMARK    1  A    between atoms: C_2  and  N_3 
REMARK    2  A    between atoms: C_2  and  C_21 
REMARK       I    between atoms: N_3  and  C_5 
REMARK       I    between atoms: C_5  and  N_6 
REMARK    3  A    between atoms: N_6  and  C_7 
REMARK    4  A    between atoms: C_7  and  C_8 
REMARK    5  A    between atoms: C_10  and  C_11 
ROOT
HETATM    1  N   UNL     1      -3.911   5.258 -30.589  1.00  0.00    -0.218 N 
HETATM    2  H   UNL     1      -4.197   6.170 -30.263  1.00  0.00     0.178 HD
HETATM    3  C   UNL     1      -4.805   4.260 -30.395  1.00  0.00     0.670 C 
HETATM    4  N   UNL     1      -4.454   2.969 -30.605  1.00  0.00    -0.221 N 
HETATM    5  N   UNL     1      -6.057   4.571 -29.987  1.00  0.00    -0.231 N 
HETATM    6  C   UNL     1      -6.630   5.908 -29.896  1.00  0.00     0.165 C 
HETATM    7  H   UNL     1      -3.465   2.768 -30.646  1.00  0.00     0.178 HD
HETATM    8  H   UNL     1      -6.563   3.803 -29.542  1.00  0.00     0.177 HD
ENDROOT
BRANCH   4   9
HETATM    9  C   UNL     1      -5.384   1.836 -30.720  1.00  0.00     0.199 C 
BRANCH   9  10
HETATM   10  C   UNL     1      -4.896   0.850 -31.713  1.00  0.00     0.077 A 
HETATM   11  N   UNL     1      -5.695  -0.199 -32.129  1.00  0.00    -0.225 NA
HETATM   12  C   UNL     1      -4.931  -0.867 -32.980  1.00  0.00     0.179 A 
HETATM   13  O   UNL     1      -3.709  -0.288 -33.197  1.00  0.00    -0.301 OA
HETATM   14  C   UNL     1      -3.697   0.803 -32.383  1.00  0.00     0.173 A 
BRANCH  12  15
HETATM   15  C   UNL     1      -5.200  -2.123 -33.670  1.00  0.00     0.017 A 
HETATM   16  C   UNL     1      -6.451  -2.330 -34.272  1.00  0.00     0.016 A 
HETATM   17  C   UNL     1      -6.740  -3.530 -34.926  1.00  0.00     0.001 A 
HETATM   18  C   UNL     1      -5.777  -4.534 -34.993  1.00  0.00     0.000 A 
HETATM   19  C   UNL     1      -4.528  -4.342 -34.405  1.00  0.00     0.001 A 
HETATM   20  C   UNL     1      -4.242  -3.145 -33.744  1.00  0.00     0.016 A 
ENDBRANCH  12  15
ENDBRANCH   9  10
ENDBRANCH   4   9
BRANCH   1  21
HETATM   21  C   UNL     1      -2.566   5.202 -31.195  1.00  0.00     0.135 C 
HETATM   22  C   UNL     1      -1.606   6.238 -30.616  1.00  0.00     0.038 C 
BRANCH  21  23
HETATM   23  C   UNL     1      -2.624   5.235 -32.704  1.00  0.00     0.005 A 
HETATM   24  S   UNL     1      -4.071   5.553 -33.576  1.00  0.00    -0.104 SA
HETATM   25  C   UNL     1      -3.296   5.378 -35.086  1.00  0.00     0.050 A 
HETATM   26  C   UNL     1      -1.962   5.074 -34.946  1.00  0.00     0.008 A 
HETATM   27  C   UNL     1      -1.577   4.986 -33.577  1.00  0.00     0.017 A 
ENDBRANCH  21  23
ENDBRANCH   1  21
TORSDOF 5
ENDMDL
MODEL 7
REMARK VINA RESULT:      -7.9      2.715      8.131
REMARK  5 active torsions:
REMARK  status: ('A' for Active; 'I' for Inactive)
REMARK    1  A    between atoms: C_2  and  N_3 
REMARK    2  A    between atoms: C_2  and  C_21 
REMARK       I    between atoms: N_3  and  C_5 
REMARK       I    between atoms: C_5  and  N_6 
REMARK    3  A    between atoms: N_6  and  C_7 
REMARK    4  A    between atoms: C_7  and  C_8 
REMARK    5  A    between atoms: C_10  and  C_11 
ROOT
HETATM    1  N   UNL     1      -6.509   1.089 -33.181  1.00  0.00    -0.218 N 
HETATM    2  H   UNL     1      -6.574   0.517 -32.352  1.00  0.00     0.178 HD
HETATM    3  C   UNL     1      -6.505   2.427 -32.971  1.00  0.00     0.670 C 
HETATM    4  N   UNL     1      -6.626   3.288 -34.010  1.00  0.00    -0.221 N 
HETATM    5  N   UNL     1      -6.380   2.892 -31.707  1.00  0.00    -0.231 N 
HETATM    6  C   UNL     1      -6.064   2.103 -30.523  1.00  0.00     0.165 C 
HETATM    7  H   UNL     1      -6.976   2.908 -34.877  1.00  0.00     0.178 HD
HETATM    8  H   UNL     1      -6.716   3.846 -31.570  1.00  0.00     0.177 HD
ENDROOT
BRANCH   4   9
HETATM    9  C   UNL     1      -6.344   4.731 -33.962  1.00  0.00     0.199 C 
BRANCH   9  10
HETATM   10  C   UNL     1      -4.883   4.983 -33.945  1.00  0.00     0.077 A 
HETATM   11  N   UNL     1      -4.189   5.075 -32.752  1.00  0.00    -0.225 NA
HETATM   12  C   UNL     1      -2.943   5.323 -33.123  1.00  0.00     0.179 A 
HETATM   13  O   UNL     1      -2.763   5.336 -34.481  1.00  0.00    -0.301 OA
HETATM   14  C   UNL     1      -4.006   5.121 -34.994  1.00  0.00     0.173 A 
BRANCH  12  15
HETATM   15  C   UNL     1      -1.775   5.613 -32.299  1.00  0.00     0.017 A 
HETATM   16  C   UNL     1      -0.995   6.747 -32.574  1.00  0.00     0.016 A 
HETATM   17  C   UNL     1       0.137   7.038 -31.810  1.00  0.00     0.001 A 
HETATM   18  C   UNL     1       0.497   6.203 -30.755  1.00  0.00     0.000 A 
HETATM   19  C   UNL     1      -0.271   5.077 -30.464  1.00  0.00     0.001 A 
HETATM   20  C   UNL     1      -1.399   4.781 -31.234  1.00  0.00     0.016 A 
ENDBRANCH  12  15
ENDBRANCH   9  10
ENDBRANCH   4   9
BRANCH   1  21
HETATM   21  C   UNL     1      -6.448   0.344 -34.455  1.00  0.00     0.135 C 
HETATM   22  C   UNL     1      -7.806   0.232 -35.146  1.00  0.00     0.038 C 
BRANCH  21  23
HETATM   23  C   UNL     1      -5.760  -0.990 -34.297  1.00  0.00     0.005 A 
HETATM   24  S   UNL     1      -4.290  -1.187 -33.426  1.00  0.00    -0.104 SA
HETATM   25  C   UNL     1      -4.222  -2.858 -33.758  1.00  0.00     0.050 A 
HETATM   26  C   UNL     1      -5.285  -3.274 -34.525  1.00  0.00     0.008 A 
HETATM   27  C   UNL     1      -6.166  -2.199 -34.840  1.00  0.00     0.017 A 
ENDBRANCH  21  23
ENDBRANCH   1  21
TORSDOF 5
ENDMDL
MODEL 8
REMARK VINA RESULT:      -7.7      2.386      2.828
REMARK  5 active torsions:
REMARK  status: ('A' for Active; 'I' for Inactive)
REMARK    1  A    between atoms: C_2  and  N_3 
REMARK    2  A    between atoms: C_2  and  C_21 
REMARK       I    between atoms: N_3  and  C_5 
REMARK       I    between atoms: C_5  and  N_6 
REMARK    3  A    between atoms: N_6  and  C_7 
REMARK    4  A    between atoms: C_7  and  C_8 
REMARK    5  A    between atoms: C_10  and  C_11 
ROOT
HETATM    1  N   UNL     1      -4.328   4.685 -30.254  1.00  0.00    -0.218 N 
HETATM    2  H   UNL     1      -3.920   5.279 -29.547  1.00  0.00     0.178 HD
HETATM    3  C   UNL     1      -5.506   4.106 -29.924  1.00  0.00     0.670 C 
HETATM    4  N   UNL     1      -6.042   3.137 -30.705  1.00  0.00    -0.221 N 
HETATM    5  N   UNL     1      -6.143   4.508 -28.800  1.00  0.00    -0.231 N 
HETATM    6  C   UNL     1      -5.788   5.650 -27.967  1.00  0.00     0.165 C 
HETATM    7  H   UNL     1      -5.421   2.693 -31.367  1.00  0.00     0.178 HD
HETATM    8  H   UNL     1      -6.815   3.836 -28.428  1.00  0.00     0.177 HD
ENDROOT
BRANCH   4   9
HETATM    9  C   UNL     1      -7.425   2.645 -30.631  1.00  0.00     0.199 C 
BRANCH   9  10
HETATM   10  C   UNL     1      -7.615   1.469 -31.515  1.00  0.00     0.077 A 
HETATM   11  N   UNL     1      -6.549   0.660 -31.863  1.00  0.00    -0.225 NA
HETATM   12  C   UNL     1      -7.084  -0.250 -32.662  1.00  0.00     0.179 A 
HETATM   13  O   UNL     1      -8.440  -0.127 -32.808  1.00  0.00    -0.301 OA
HETATM   14  C   UNL     1      -8.767   0.973 -32.076  1.00  0.00     0.173 A 
BRANCH  12  15
HETATM   15  C   UNL     1      -6.431  -1.315 -33.414  1.00  0.00     0.017 A 
HETATM   16  C   UNL     1      -5.034  -1.439 -33.370  1.00  0.00     0.016 A 
HETATM   17  C   UNL     1      -4.383  -2.440 -34.094  1.00  0.00     0.001 A 
HETATM   18  C   UNL     1      -5.122  -3.335 -34.863  1.00  0.00     0.000 A 
HETATM   19  C   UNL     1      -6.511  -3.229 -34.913  1.00  0.00     0.001 A 
HETATM   20  C   UNL     1      -7.162  -2.222 -34.195  1.00  0.00     0.016 A 
ENDBRANCH  12  15
ENDBRANCH   9  10
ENDBRANCH   4   9
BRANCH   1  21
HETATM   21  C   UNL     1      -3.541   4.559 -31.497  1.00  0.00     0.135 C 
HETATM   22  C   UNL     1      -2.914   3.177 -31.668  1.00  0.00     0.038 C 
BRANCH  21  23
HETATM   23  C   UNL     1      -2.540   5.679 -31.650  1.00  0.00     0.005 A 
HETATM   24  S   UNL     1      -2.974   7.253 -32.189  1.00  0.00    -0.104 SA
HETATM   25  C   UNL     1      -1.366   7.814 -32.103  1.00  0.00     0.050 A 
HETATM   26  C   UNL     1      -0.500   6.832 -31.682  1.00  0.00     0.008 A 
HETATM   27  C   UNL     1      -1.175   5.603 -31.428  1.00  0.00     0.017 A 
ENDBRANCH  21  23
ENDBRANCH   1  21
TORSDOF 5
ENDMDL
MODEL 9
REMARK VINA RESULT:      -7.6      1.930      2.446
REMARK  5 active torsions:
REMARK  status: ('A' for Active; 'I' for Inactive)
REMARK    1  A    between atoms: C_2  and  N_3 
REMARK    2  A    between atoms: C_2  and  C_21 
REMARK       I    between atoms: N_3  and  C_5 
REMARK       I    between atoms: C_5  and  N_6 
REMARK    3  A    between atoms: N_6  and  C_7 
REMARK    4  A    between atoms: C_7  and  C_8 
REMARK    5  A    between atoms: C_10  and  C_11 
ROOT
HETATM    1  N   UNL     1      -5.175   3.298 -30.801  1.00  0.00    -0.218 N 
HETATM    2  H   UNL     1      -4.589   2.950 -30.056  1.00  0.00     0.178 HD
HETATM    3  C   UNL     1      -6.027   2.398 -31.345  1.00  0.00     0.670 C 
HETATM    4  N   UNL     1      -6.713   2.692 -32.476  1.00  0.00    -0.221 N 
HETATM    5  N   UNL     1      -6.185   1.196 -30.743  1.00  0.00    -0.231 N 
HETATM    6  C   UNL     1      -5.661   0.808 -29.439  1.00  0.00     0.165 C 
HETATM    7  H   UNL     1      -6.373   3.470 -33.023  1.00  0.00     0.178 HD
HETATM    8  H   UNL     1      -6.551   0.461 -31.350  1.00  0.00     0.177 HD
ENDROOT
BRANCH   4   9
HETATM    9  C   UNL     1      -7.867   1.944 -32.997  1.00  0.00     0.199 C 
BRANCH   9  10
HETATM   10  C   UNL     1      -7.422   0.821 -33.857  1.00  0.00     0.077 A 
HETATM   11  N   UNL     1      -6.957  -0.359 -33.304  1.00  0.00    -0.225 NA
HETATM   12  C   UNL     1      -6.637  -1.100 -34.353  1.00  0.00     0.179 A 
HETATM   13  O   UNL     1      -6.922  -0.509 -35.555  1.00  0.00    -0.301 OA
HETATM   14  C   UNL     1      -7.419   0.715 -35.227  1.00  0.00     0.173 A 
BRANCH  12  15
HETATM   15  C   UNL     1      -6.005  -2.414 -34.396  1.00  0.00     0.017 A 
HETATM   16  C   UNL     1      -6.747  -3.528 -34.821  1.00  0.00     0.016 A 
HETATM   17  C   UNL     1      -6.171  -4.799 -34.855  1.00  0.00     0.001 A 
HETATM   18  C   UNL     1      -4.842  -4.971 -34.474  1.00  0.00     0.000 A 
HETATM   19  C   UNL     1      -4.090  -3.874 -34.056  1.00  0.00     0.001 A 
HETATM   20  C   UNL     1      -4.669  -2.604 -34.013  1.00  0.00     0.016 A 
ENDBRANCH  12  15
ENDBRANCH   9  10
ENDBRANCH   4   9
BRANCH   1  21
HETATM   21  C   UNL     1      -4.968   4.718 -31.152  1.00  0.00     0.135 C 
HETATM   22  C   UNL     1      -6.275   5.494 -31.295  1.00  0.00     0.038 C 
BRANCH  21  23
HETATM   23  C   UNL     1      -4.058   4.876 -32.347  1.00  0.00     0.005 A 
HETATM   24  S   UNL     1      -4.626   5.351 -33.899  1.00  0.00    -0.104 SA
HETATM   25  C   UNL     1      -3.070   5.252 -34.589  1.00  0.00     0.050 A 
HETATM   26  C   UNL     1      -2.125   4.856 -33.672  1.00  0.00     0.008 A 
HETATM   27  C   UNL     1      -2.694   4.635 -32.385  1.00  0.00     0.017 A 
ENDBRANCH  21  23
ENDBRANCH   1  21
TORSDOF 5
ENDMDL
MODEL 10
REMARK VINA RESULT:      -7.5     15.356     17.009
REMARK  5 active torsions:
REMARK  status: ('A' for Active; 'I' for Inactive)
REMARK    1  A    between atoms: C_2  and  N_3 
REMARK    2  A    between atoms: C_2  and  C_21 
REMARK       I    between atoms: N_3  and  C_5 
REMARK       I    between atoms: C_5  and  N_6 
REMARK    3  A    between atoms: N_6  and  C_7 
REMARK    4  A    between atoms: C_7  and  C_8 
REMARK    5  A    between atoms: C_10  and  C_11 
ROOT
HETATM    1  N   UNL     1      -4.161 -13.784 -35.237  1.00  0.00    -0.218 N 
HETATM    2  H   UNL     1      -3.542 -14.282 -34.616  1.00  0.00     0.178 HD
HETATM    3  C   UNL     1      -3.606 -13.349 -36.394  1.00  0.00     0.670 C 
HETATM    4  N   UNL     1      -4.281 -12.501 -37.206  1.00  0.00    -0.221 N 
HETATM    5  N   UNL     1      -2.366 -13.774 -36.726  1.00  0.00    -0.231 N 
HETATM    6  C   UNL     1      -1.599 -14.815 -36.053  1.00  0.00     0.165 C 
HETATM    7  H   UNL     1      -5.067 -12.013 -36.801  1.00  0.00     0.178 HD
HETATM    8  H   UNL     1      -1.877 -13.178 -37.396  1.00  0.00     0.177 HD
ENDROOT
BRANCH   4   9
HETATM    9  C   UNL     1      -3.931 -12.192 -38.601  1.00  0.00     0.199 C 
BRANCH   9  10
HETATM   10  C   UNL     1      -5.038 -12.560 -39.517  1.00  0.00     0.077 A 
HETATM   11  N   UNL     1      -6.357 -12.461 -39.115  1.00  0.00    -0.225 NA
HETATM   12  C   UNL     1      -7.044 -12.889 -40.163  1.00  0.00     0.179 A 
HETATM   13  O   UNL     1      -6.265 -13.201 -41.245  1.00  0.00    -0.301 OA
HETATM   14  C   UNL     1      -4.989 -12.991 -40.820  1.00  0.00     0.173 A 
BRANCH  12  15
HETATM   15  C   UNL     1      -8.481 -13.100 -40.300  1.00  0.00     0.017 A 
HETATM   16  C   UNL     1      -9.363 -12.029 -40.086  1.00  0.00     0.016 A 
HETATM   17  C   UNL     1     -10.744 -12.209 -40.195  1.00  0.00     0.001 A 
HETATM   18  C   UNL     1     -11.258 -13.459 -40.530  1.00  0.00     0.000 A 
HETATM   19  C   UNL     1     -10.396 -14.530 -40.753  1.00  0.00     0.001 A 
HETATM   20  C   UNL     1      -9.015 -14.353 -40.635  1.00  0.00     0.016 A 
ENDBRANCH  12  15
ENDBRANCH   9  10
ENDBRANCH   4   9
BRANCH   1  21
HETATM   21  C   UNL     1      -5.544 -13.618 -34.746  1.00  0.00     0.135 C 
HETATM   22  C   UNL     1      -5.610 -13.022 -33.342  1.00  0.00     0.038 C 
BRANCH  21  23
HETATM   23  C   UNL     1      -6.348 -14.889 -34.881  1.00  0.00     0.005 A 
HETATM   24  S   UNL     1      -6.808 -15.547 -36.401  1.00  0.00    -0.104 SA
HETATM   25  C   UNL     1      -7.642 -16.847 -35.678  1.00  0.00     0.050 A 
HETATM   26  C   UNL     1      -7.590 -16.792 -34.306  1.00  0.00     0.008 A 
HETATM   27  C   UNL     1      -6.851 -15.662 -33.847  1.00  0.00     0.017 A 
ENDBRANCH  21  23
ENDBRANCH   1  21
TORSDOF 5
ENDMDL
