MODEL 1
REMARK VINA RESULT:      -8.7      0.000      0.000
REMARK  3 active torsions:
REMARK  status: ('A' for Active; 'I' for Inactive)
REMARK    1  A    between atoms: C_7  and  C_8 
REMARK       I    between atoms: C_8  and  N_9 
REMARK    2  A    between atoms: N_9  and  C_10 
REMARK    3  A    between atoms: C_11  and  O_12 
ROOT
HETATM    1  C   UNL     1      -3.613   1.317 -32.003  1.00  0.00     0.252 C 
HETATM    2  N   UNL     1      -3.752   2.648 -32.322  1.00  0.00    -0.346 N 
HETATM    3  O   UNL     1      -2.818   0.923 -31.155  1.00  0.00    -0.268 OA
HETATM    4  H   UNL     1      -4.287   2.932 -33.129  1.00  0.00     0.163 HD
ENDROOT
BRANCH   1   5
HETATM    5  C   UNL     1      -4.473   0.341 -32.737  1.00  0.00     0.033 A 
HETATM    6  C   UNL     1      -5.693   0.801 -33.246  1.00  0.00     0.019 A 
HETATM    7  C   UNL     1      -6.538  -0.035 -33.984  1.00  0.00     0.031 A 
HETATM    8  C   UNL     1      -6.117  -1.351 -34.200  1.00  0.00     0.043 A 
HETATM    9  C   UNL     1      -4.912  -1.851 -33.711  1.00  0.00    -0.001 A 
HETATM   10  N   UNL     1      -6.727  -2.369 -34.893  1.00  0.00    -0.359 N 
HETATM   11  C   UNL     1      -4.817  -3.221 -34.123  1.00  0.00    -0.027 A 
HETATM   12  C   UNL     1      -4.073  -0.986 -32.972  1.00  0.00     0.031 A 
HETATM   13  C   UNL     1      -3.712  -4.172 -33.824  1.00  0.00     0.051 C 
HETATM   14  C   UNL     1      -5.956  -3.504 -34.861  1.00  0.00     0.012 A 
HETATM   15  C   UNL     1      -6.378  -4.752 -35.547  1.00  0.00     0.068 C 
HETATM   16  H   UNL     1      -7.615  -2.281 -35.366  1.00  0.00     0.166 HD
ENDBRANCH   1   5
BRANCH   2  17
HETATM   17  C   UNL     1      -2.995   3.669 -31.624  1.00  0.00     0.147 C 
HETATM   18  C   UNL     1      -1.947   4.392 -32.522  1.00  0.00     0.149 C 
HETATM   19  C   UNL     1      -2.656   5.616 -33.135  1.00  0.00     0.073 C 
HETATM   20  C   UNL     1      -3.706   5.910 -32.103  1.00  0.00    -0.047 A 
HETATM   21  C   UNL     1      -3.901   4.813 -31.255  1.00  0.00    -0.027 A 
HETATM   22  C   UNL     1      -4.464   7.060 -31.965  1.00  0.00     0.008 A 
HETATM   23  C   UNL     1      -4.856   4.846 -30.251  1.00  0.00     0.010 A 
HETATM   24  C   UNL     1      -5.616   6.006 -30.098  1.00  0.00     0.001 A 
HETATM   25  C   UNL     1      -5.422   7.105 -30.948  1.00  0.00     0.001 A 
BRANCH  18  26
HETATM   26  O   UNL     1      -0.822   4.842 -31.746  1.00  0.00    -0.393 OA
HETATM   27  H   UNL     1      -0.803   5.814 -31.792  1.00  0.00     0.210 HD
ENDBRANCH  18  26
ENDBRANCH   2  17
TORSDOF 3
ENDMDL
MODEL 2
REMARK VINA RESULT:      -8.5      2.086      3.064
REMARK  3 active torsions:
REMARK  status: ('A' for Active; 'I' for Inactive)
REMARK    1  A    between atoms: C_7  and  C_8 
REMARK       I    between atoms: C_8  and  N_9 
REMARK    2  A    between atoms: N_9  and  C_10 
REMARK    3  A    between atoms: C_11  and  O_12 
ROOT
HETATM    1  C   UNL     1      -6.139   2.261 -33.467  1.00  0.00     0.252 C 
HETATM    2  N   UNL     1      -4.998   2.955 -33.135  1.00  0.00    -0.346 N 
HETATM    3  O   UNL     1      -7.239   2.799 -33.536  1.00  0.00    -0.268 OA
HETATM    4  H   UNL     1      -4.140   2.469 -32.925  1.00  0.00     0.163 HD
ENDROOT
BRANCH   1   5
HETATM    5  C   UNL     1      -5.997   0.800 -33.743  1.00  0.00     0.033 A 
HETATM    6  C   UNL     1      -6.838   0.233 -34.708  1.00  0.00     0.019 A 
HETATM    7  C   UNL     1      -6.741  -1.118 -35.058  1.00  0.00     0.031 A 
HETATM    8  C   UNL     1      -5.768  -1.884 -34.410  1.00  0.00     0.043 A 
HETATM    9  C   UNL     1      -4.911  -1.363 -33.443  1.00  0.00    -0.001 A 
HETATM   10  N   UNL     1      -5.443  -3.211 -34.566  1.00  0.00    -0.359 N 
HETATM   11  C   UNL     1      -4.058  -2.429 -33.005  1.00  0.00    -0.027 A 
HETATM   12  C   UNL     1      -5.025   0.006 -33.109  1.00  0.00     0.031 A 
HETATM   13  C   UNL     1      -2.991  -2.354 -31.971  1.00  0.00     0.051 C 
HETATM   14  C   UNL     1      -4.411  -3.556 -33.730  1.00  0.00     0.012 A 
HETATM   15  C   UNL     1      -3.853  -4.933 -33.707  1.00  0.00     0.068 C 
HETATM   16  H   UNL     1      -5.899  -3.835 -35.217  1.00  0.00     0.166 HD
ENDBRANCH   1   5
BRANCH   2  17
HETATM   17  C   UNL     1      -5.033   4.386 -32.902  1.00  0.00     0.147 C 
HETATM   18  C   UNL     1      -5.163   4.770 -31.397  1.00  0.00     0.149 C 
HETATM   19  C   UNL     1      -3.728   4.915 -30.851  1.00  0.00     0.073 C 
HETATM   20  C   UNL     1      -2.966   5.293 -32.087  1.00  0.00    -0.047 A 
HETATM   21  C   UNL     1      -3.698   4.992 -33.242  1.00  0.00    -0.027 A 
HETATM   22  C   UNL     1      -1.691   5.825 -32.171  1.00  0.00     0.008 A 
HETATM   23  C   UNL     1      -3.168   5.218 -34.504  1.00  0.00     0.010 A 
HETATM   24  C   UNL     1      -1.888   5.765 -34.596  1.00  0.00     0.001 A 
HETATM   25  C   UNL     1      -1.154   6.066 -33.439  1.00  0.00     0.001 A 
BRANCH  18  26
HETATM   26  O   UNL     1      -5.854   6.022 -31.239  1.00  0.00    -0.393 OA
HETATM   27  H   UNL     1      -6.790   5.871 -31.458  1.00  0.00     0.210 HD
ENDBRANCH  18  26
ENDBRANCH   2  17
TORSDOF 3
ENDMDL
MODEL 3
REMARK VINA RESULT:      -8.4      6.471      8.970
REMARK  3 active torsions:
REMARK  status: ('A' for Active; 'I' for Inactive)
REMARK    1  A    between atoms: C_7  and  C_8 
REMARK       I    between atoms: C_8  and  N_9 
REMARK    2  A    between atoms: N_9  and  C_10 
REMARK    3  A    between atoms: C_11  and  O_12 
ROOT
HETATM    1  C   UNL     1     -10.334   2.643 -33.380  1.00  0.00     0.252 C 
HETATM    2  N   UNL     1      -9.526   1.847 -32.601  1.00  0.00    -0.346 N 
HETATM    3  O   UNL     1      -9.887   3.533 -34.096  1.00  0.00    -0.268 OA
HETATM    4  H   UNL     1      -9.921   1.237 -31.902  1.00  0.00     0.163 HD
ENDROOT
BRANCH   1   5
HETATM    5  C   UNL     1     -11.805   2.390 -33.325  1.00  0.00     0.033 A 
HETATM    6  C   UNL     1     -12.286   1.209 -33.902  1.00  0.00     0.019 A 
HETATM    7  C   UNL     1     -13.644   0.874 -33.854  1.00  0.00     0.031 A 
HETATM    8  C   UNL     1     -14.506   1.762 -33.205  1.00  0.00     0.043 A 
HETATM    9  C   UNL     1     -14.071   2.949 -32.619  1.00  0.00    -0.001 A 
HETATM   10  N   UNL     1     -15.862   1.680 -32.996  1.00  0.00    -0.359 N 
HETATM   11  C   UNL     1     -15.220   3.595 -32.055  1.00  0.00    -0.027 A 
HETATM   12  C   UNL     1     -12.694   3.264 -32.675  1.00  0.00     0.031 A 
HETATM   13  C   UNL     1     -15.252   4.899 -31.337  1.00  0.00     0.051 C 
HETATM   14  C   UNL     1     -16.310   2.775 -32.300  1.00  0.00     0.012 A 
HETATM   15  C   UNL     1     -17.739   2.930 -31.928  1.00  0.00     0.068 C 
HETATM   16  H   UNL     1     -16.439   0.911 -33.306  1.00  0.00     0.166 HD
ENDBRANCH   1   5
BRANCH   2  17
HETATM   17  C   UNL     1      -8.083   1.988 -32.630  1.00  0.00     0.147 C 
HETATM   18  C   UNL     1      -7.403   1.748 -31.249  1.00  0.00     0.149 C 
HETATM   19  C   UNL     1      -7.058   0.247 -31.178  1.00  0.00     0.073 C 
HETATM   20  C   UNL     1      -6.898  -0.099 -32.629  1.00  0.00    -0.047 A 
HETATM   21  C   UNL     1      -7.478   0.878 -33.448  1.00  0.00    -0.027 A 
HETATM   22  C   UNL     1      -6.316  -1.230 -33.175  1.00  0.00     0.008 A 
HETATM   23  C   UNL     1      -7.486   0.743 -34.828  1.00  0.00     0.010 A 
HETATM   24  C   UNL     1      -6.891  -0.389 -35.386  1.00  0.00     0.001 A 
HETATM   25  C   UNL     1      -6.310  -1.369 -34.566  1.00  0.00     0.001 A 
BRANCH  18  26
HETATM   26  O   UNL     1      -6.192   2.515 -31.126  1.00  0.00    -0.393 OA
HETATM   27  H   UNL     1      -6.288   3.308 -31.683  1.00  0.00     0.210 HD
ENDBRANCH  18  26
ENDBRANCH   2  17
TORSDOF 3
ENDMDL
MODEL 4
REMARK VINA RESULT:      -8.4      3.123      3.780
REMARK  3 active torsions:
REMARK  status: ('A' for Active; 'I' for Inactive)
REMARK    1  A    between atoms: C_7  and  C_8 
REMARK       I    between atoms: C_8  and  N_9 
REMARK    2  A    between atoms: N_9  and  C_10 
REMARK    3  A    between atoms: C_11  and  O_12 
ROOT
HETATM    1  C   UNL     1      -3.526   2.815 -32.268  1.00  0.00     0.252 C 
HETATM    2  N   UNL     1      -3.391   3.909 -33.092  1.00  0.00    -0.346 N 
HETATM    3  O   UNL     1      -2.562   2.249 -31.764  1.00  0.00    -0.268 OA
HETATM    4  H   UNL     1      -4.176   4.256 -33.623  1.00  0.00     0.163 HD
ENDROOT
BRANCH   1   5
HETATM    5  C   UNL     1      -4.911   2.323 -32.002  1.00  0.00     0.033 A 
HETATM    6  C   UNL     1      -5.469   2.590 -30.746  1.00  0.00     0.019 A 
HETATM    7  C   UNL     1      -6.776   2.203 -30.431  1.00  0.00     0.031 A 
HETATM    8  C   UNL     1      -7.510   1.542 -31.420  1.00  0.00     0.043 A 
HETATM    9  C   UNL     1      -6.995   1.255 -32.682  1.00  0.00    -0.001 A 
HETATM   10  N   UNL     1      -8.802   1.072 -31.392  1.00  0.00    -0.359 N 
HETATM   11  C   UNL     1      -8.021   0.578 -33.420  1.00  0.00    -0.027 A 
HETATM   12  C   UNL     1      -5.674   1.659 -32.979  1.00  0.00     0.031 A 
HETATM   13  C   UNL     1      -7.930   0.062 -34.813  1.00  0.00     0.051 C 
HETATM   14  C   UNL     1      -9.128   0.490 -32.592  1.00  0.00     0.012 A 
HETATM   15  C   UNL     1     -10.474  -0.089 -32.836  1.00  0.00     0.068 C 
HETATM   16  H   UNL     1      -9.420   1.156 -30.598  1.00  0.00     0.166 HD
ENDBRANCH   1   5
BRANCH   2  17
HETATM   17  C   UNL     1      -2.089   4.486 -33.364  1.00  0.00     0.147 C 
HETATM   18  C   UNL     1      -2.040   5.327 -34.675  1.00  0.00     0.149 C 
HETATM   19  C   UNL     1      -2.383   6.779 -34.283  1.00  0.00     0.073 C 
HETATM   20  C   UNL     1      -1.931   6.824 -32.853  1.00  0.00    -0.047 A 
HETATM   21  C   UNL     1      -1.770   5.535 -32.333  1.00  0.00    -0.027 A 
HETATM   22  C   UNL     1      -1.725   7.941 -32.061  1.00  0.00     0.008 A 
HETATM   23  C   UNL     1      -1.398   5.337 -31.012  1.00  0.00     0.010 A 
HETATM   24  C   UNL     1      -1.177   6.457 -30.211  1.00  0.00     0.001 A 
HETATM   25  C   UNL     1      -1.340   7.750 -30.731  1.00  0.00     0.001 A 
BRANCH  18  26
HETATM   26  O   UNL     1      -0.727   5.297 -35.262  1.00  0.00    -0.393 OA
HETATM   27  H   UNL     1      -0.525   4.371 -35.482  1.00  0.00     0.210 HD
ENDBRANCH  18  26
ENDBRANCH   2  17
TORSDOF 3
ENDMDL
MODEL 5
REMARK VINA RESULT:      -8.4      2.100      3.225
REMARK  3 active torsions:
REMARK  status: ('A' for Active; 'I' for Inactive)
REMARK    1  A    between atoms: C_7  and  C_8 
REMARK       I    between atoms: C_8  and  N_9 
REMARK    2  A    between atoms: N_9  and  C_10 
REMARK    3  A    between atoms: C_11  and  O_12 
ROOT
HETATM    1  C   UNL     1      -5.118   2.461 -32.535  1.00  0.00     0.252 C 
HETATM    2  N   UNL     1      -4.273   3.507 -32.238  1.00  0.00    -0.346 N 
HETATM    3  O   UNL     1      -6.293   2.632 -32.839  1.00  0.00    -0.268 OA
HETATM    4  H   UNL     1      -3.364   3.338 -31.835  1.00  0.00     0.163 HD
ENDROOT
BRANCH   1   5
HETATM    5  C   UNL     1      -4.550   1.081 -32.471  1.00  0.00     0.033 A 
HETATM    6  C   UNL     1      -3.592   0.815 -31.485  1.00  0.00     0.019 A 
HETATM    7  C   UNL     1      -3.042  -0.462 -31.327  1.00  0.00     0.031 A 
HETATM    8  C   UNL     1      -3.489  -1.468 -32.190  1.00  0.00     0.043 A 
HETATM    9  C   UNL     1      -4.439  -1.248 -33.184  1.00  0.00    -0.001 A 
HETATM   10  N   UNL     1      -3.141  -2.797 -32.249  1.00  0.00    -0.359 N 
HETATM   11  C   UNL     1      -4.647  -2.494 -33.863  1.00  0.00    -0.027 A 
HETATM   12  C   UNL     1      -4.984   0.049 -33.322  1.00  0.00     0.031 A 
HETATM   13  C   UNL     1      -5.562  -2.748 -35.008  1.00  0.00     0.051 C 
HETATM   14  C   UNL     1      -3.832  -3.432 -33.249  1.00  0.00     0.012 A 
HETATM   15  C   UNL     1      -3.654  -4.881 -33.521  1.00  0.00     0.068 C 
HETATM   16  H   UNL     1      -2.475  -3.237 -31.630  1.00  0.00     0.166 HD
ENDBRANCH   1   5
BRANCH   2  17
HETATM   17  C   UNL     1      -4.724   4.882 -32.325  1.00  0.00     0.147 C 
HETATM   18  C   UNL     1      -5.087   5.509 -30.945  1.00  0.00     0.149 C 
HETATM   19  C   UNL     1      -3.802   6.171 -30.408  1.00  0.00     0.073 C 
HETATM   20  C   UNL     1      -3.071   6.495 -31.678  1.00  0.00    -0.047 A 
HETATM   21  C   UNL     1      -3.586   5.767 -32.757  1.00  0.00    -0.027 A 
HETATM   22  C   UNL     1      -1.991   7.345 -31.844  1.00  0.00     0.008 A 
HETATM   23  C   UNL     1      -3.033   5.876 -34.024  1.00  0.00     0.010 A 
HETATM   24  C   UNL     1      -1.952   6.740 -34.201  1.00  0.00     0.001 A 
HETATM   25  C   UNL     1      -1.434   7.470 -33.120  1.00  0.00     0.001 A 
BRANCH  18  26
HETATM   26  O   UNL     1      -6.109   6.511 -31.083  1.00  0.00    -0.393 OA
HETATM   27  H   UNL     1      -6.498   6.658 -30.202  1.00  0.00     0.210 HD
ENDBRANCH  18  26
ENDBRANCH   2  17
TORSDOF 3
ENDMDL
MODEL 6
REMARK VINA RESULT:      -8.2      2.579      8.021
REMARK  3 active torsions:
REMARK  status: ('A' for Active; 'I' for Inactive)
REMARK    1  A    between atoms: C_7  and  C_8 
REMARK       I    between atoms: C_8  and  N_9 
REMARK    2  A    between atoms: N_9  and  C_10 
REMARK    3  A    between atoms: C_11  and  O_12 
ROOT
HETATM    1  C   UNL     1      -6.287   2.286 -30.711  1.00  0.00     0.252 C 
HETATM    2  N   UNL     1      -6.999   1.967 -31.845  1.00  0.00    -0.346 N 
HETATM    3  O   UNL     1      -6.287   1.574 -29.713  1.00  0.00    -0.268 OA
HETATM    4  H   UNL     1      -7.117   2.639 -32.588  1.00  0.00     0.163 HD
ENDROOT
BRANCH   1   5
HETATM    5  C   UNL     1      -5.499   3.555 -30.731  1.00  0.00     0.033 A 
HETATM    6  C   UNL     1      -5.798   4.524 -29.765  1.00  0.00     0.019 A 
HETATM    7  C   UNL     1      -5.079   5.721 -29.685  1.00  0.00     0.031 A 
HETATM    8  C   UNL     1      -4.043   5.914 -30.604  1.00  0.00     0.043 A 
HETATM    9  C   UNL     1      -3.712   4.979 -31.582  1.00  0.00    -0.001 A 
HETATM   10  N   UNL     1      -3.175   6.971 -30.743  1.00  0.00    -0.359 N 
HETATM   11  C   UNL     1      -2.614   5.513 -32.333  1.00  0.00    -0.027 A 
HETATM   12  C   UNL     1      -4.450   3.775 -31.641  1.00  0.00     0.031 A 
HETATM   13  C   UNL     1      -1.926   4.878 -33.489  1.00  0.00     0.051 C 
HETATM   14  C   UNL     1      -2.303   6.745 -31.778  1.00  0.00     0.012 A 
HETATM   15  C   UNL     1      -1.247   7.726 -32.136  1.00  0.00     0.068 C 
HETATM   16  H   UNL     1      -3.179   7.791 -30.153  1.00  0.00     0.166 HD
ENDBRANCH   1   5
BRANCH   2  17
HETATM   17  C   UNL     1      -7.750   0.730 -31.934  1.00  0.00     0.147 C 
HETATM   18  C   UNL     1      -9.106   0.876 -32.689  1.00  0.00     0.149 C 
HETATM   19  C   UNL     1      -8.820   0.579 -34.175  1.00  0.00     0.073 C 
HETATM   20  C   UNL     1      -7.632  -0.332 -34.082  1.00  0.00    -0.047 A 
HETATM   21  C   UNL     1      -7.026  -0.245 -32.823  1.00  0.00    -0.027 A 
HETATM   22  C   UNL     1      -7.104  -1.145 -35.070  1.00  0.00     0.008 A 
HETATM   23  C   UNL     1      -5.882  -0.971 -32.527  1.00  0.00     0.010 A 
HETATM   24  C   UNL     1      -5.351  -1.801 -33.514  1.00  0.00     0.001 A 
HETATM   25  C   UNL     1      -5.957  -1.888 -34.777  1.00  0.00     0.001 A 
BRANCH  18  26
HETATM   26  O   UNL     1     -10.076  -0.067 -32.200  1.00  0.00    -0.393 OA
HETATM   27  H   UNL     1      -9.809  -0.325 -31.300  1.00  0.00     0.210 HD
ENDBRANCH  18  26
ENDBRANCH   2  17
TORSDOF 3
ENDMDL
MODEL 7
REMARK VINA RESULT:      -8.1      4.270      5.994
REMARK  3 active torsions:
REMARK  status: ('A' for Active; 'I' for Inactive)
REMARK    1  A    between atoms: C_7  and  C_8 
REMARK       I    between atoms: C_8  and  N_9 
REMARK    2  A    between atoms: N_9  and  C_10 
REMARK    3  A    between atoms: C_11  and  O_12 
ROOT
HETATM    1  C   UNL     1      -7.678   1.580 -31.823  1.00  0.00     0.252 C 
HETATM    2  N   UNL     1      -8.632   1.750 -32.800  1.00  0.00    -0.346 N 
HETATM    3  O   UNL     1      -7.690   2.214 -30.774  1.00  0.00    -0.268 OA
HETATM    4  H   UNL     1      -8.513   1.344 -33.715  1.00  0.00     0.163 HD
ENDROOT
BRANCH   1   5
HETATM    5  C   UNL     1      -6.599   0.580 -32.085  1.00  0.00     0.033 A 
HETATM    6  C   UNL     1      -5.414   0.691 -31.348  1.00  0.00     0.019 A 
HETATM    7  C   UNL     1      -4.371  -0.229 -31.500  1.00  0.00     0.031 A 
HETATM    8  C   UNL     1      -4.557  -1.270 -32.414  1.00  0.00     0.043 A 
HETATM    9  C   UNL     1      -5.719  -1.418 -33.169  1.00  0.00    -0.001 A 
HETATM   10  N   UNL     1      -3.722  -2.310 -32.748  1.00  0.00    -0.359 N 
HETATM   11  C   UNL     1      -5.553  -2.584 -33.987  1.00  0.00    -0.027 A 
HETATM   12  C   UNL     1      -6.760  -0.479 -32.995  1.00  0.00     0.031 A 
HETATM   13  C   UNL     1      -6.525  -3.133 -34.971  1.00  0.00     0.051 C 
HETATM   14  C   UNL     1      -4.307  -3.115 -33.692  1.00  0.00     0.012 A 
HETATM   15  C   UNL     1      -3.622  -4.323 -34.219  1.00  0.00     0.068 C 
HETATM   16  H   UNL     1      -2.809  -2.459 -32.340  1.00  0.00     0.166 HD
ENDBRANCH   1   5
BRANCH   2  17
HETATM   17  C   UNL     1      -9.744   2.661 -32.609  1.00  0.00     0.147 C 
HETATM   18  C   UNL     1      -9.433   4.126 -33.041  1.00  0.00     0.149 C 
HETATM   19  C   UNL     1      -9.843   4.247 -34.523  1.00  0.00     0.073 C 
HETATM   20  C   UNL     1     -10.918   3.205 -34.630  1.00  0.00    -0.047 A 
HETATM   21  C   UNL     1     -10.860   2.309 -33.555  1.00  0.00    -0.027 A 
HETATM   22  C   UNL     1     -11.849   3.045 -35.641  1.00  0.00     0.008 A 
HETATM   23  C   UNL     1     -11.735   1.236 -33.471  1.00  0.00     0.010 A 
HETATM   24  C   UNL     1     -12.684   1.075 -34.480  1.00  0.00     0.001 A 
HETATM   25  C   UNL     1     -12.741   1.972 -35.558  1.00  0.00     0.001 A 
BRANCH  18  26
HETATM   26  O   UNL     1     -10.193   5.068 -32.265  1.00  0.00    -0.393 OA
HETATM   27  H   UNL     1      -9.602   5.808 -32.040  1.00  0.00     0.210 HD
ENDBRANCH  18  26
ENDBRANCH   2  17
TORSDOF 3
ENDMDL
MODEL 8
REMARK VINA RESULT:      -8.0      4.287      5.329
REMARK  3 active torsions:
REMARK  status: ('A' for Active; 'I' for Inactive)
REMARK    1  A    between atoms: C_7  and  C_8 
REMARK       I    between atoms: C_8  and  N_9 
REMARK    2  A    between atoms: N_9  and  C_10 
REMARK    3  A    between atoms: C_11  and  O_12 
ROOT
HETATM    1  C   UNL     1      -8.811   0.708 -32.912  1.00  0.00     0.252 C 
HETATM    2  N   UNL     1      -8.772   1.836 -32.125  1.00  0.00    -0.346 N 
HETATM    3  O   UNL     1      -9.842   0.315 -33.449  1.00  0.00    -0.268 OA
HETATM    4  H   UNL     1      -7.961   2.048 -31.565  1.00  0.00     0.163 HD
ENDROOT
BRANCH   1   5
HETATM    5  C   UNL     1      -7.534  -0.046 -33.094  1.00  0.00     0.033 A 
HETATM    6  C   UNL     1      -6.368   0.505 -32.550  1.00  0.00     0.019 A 
HETATM    7  C   UNL     1      -5.139  -0.158 -32.636  1.00  0.00     0.031 A 
HETATM    8  C   UNL     1      -5.117  -1.396 -33.286  1.00  0.00     0.043 A 
HETATM    9  C   UNL     1      -6.252  -1.980 -33.843  1.00  0.00    -0.001 A 
HETATM   10  N   UNL     1      -4.070  -2.261 -33.498  1.00  0.00    -0.359 N 
HETATM   11  C   UNL     1      -5.852  -3.232 -34.417  1.00  0.00    -0.027 A 
HETATM   12  C   UNL     1      -7.484  -1.295 -33.739  1.00  0.00     0.031 A 
HETATM   13  C   UNL     1      -6.719  -4.204 -35.137  1.00  0.00     0.051 C 
HETATM   14  C   UNL     1      -4.495  -3.375 -34.176  1.00  0.00     0.012 A 
HETATM   15  C   UNL     1      -3.564  -4.479 -34.523  1.00  0.00     0.068 C 
HETATM   16  H   UNL     1      -3.123  -2.095 -33.186  1.00  0.00     0.166 HD
ENDBRANCH   1   5
BRANCH   2  17
HETATM   17  C   UNL     1      -9.952   2.657 -31.935  1.00  0.00     0.147 C 
HETATM   18  C   UNL     1      -9.959   3.437 -30.586  1.00  0.00     0.149 C 
HETATM   19  C   UNL     1      -9.295   4.801 -30.858  1.00  0.00     0.073 C 
HETATM   20  C   UNL     1      -9.584   4.997 -32.317  1.00  0.00    -0.047 A 
HETATM   21  C   UNL     1      -9.950   3.791 -32.925  1.00  0.00    -0.027 A 
HETATM   22  C   UNL     1      -9.482   6.164 -33.055  1.00  0.00     0.008 A 
HETATM   23  C   UNL     1     -10.222   3.728 -34.284  1.00  0.00     0.010 A 
HETATM   24  C   UNL     1     -10.132   4.902 -35.032  1.00  0.00     0.001 A 
HETATM   25  C   UNL     1      -9.765   6.111 -34.423  1.00  0.00     0.001 A 
BRANCH  18  26
HETATM   26  O   UNL     1     -11.303   3.654 -30.119  1.00  0.00    -0.393 OA
HETATM   27  H   UNL     1     -11.584   2.850 -29.648  1.00  0.00     0.210 HD
ENDBRANCH  18  26
ENDBRANCH   2  17
TORSDOF 3
ENDMDL
MODEL 9
REMARK VINA RESULT:      -8.0      3.492      4.561
REMARK  3 active torsions:
REMARK  status: ('A' for Active; 'I' for Inactive)
REMARK    1  A    between atoms: C_7  and  C_8 
REMARK       I    between atoms: C_8  and  N_9 
REMARK    2  A    between atoms: N_9  and  C_10 
REMARK    3  A    between atoms: C_11  and  O_12 
ROOT
HETATM    1  C   UNL     1      -3.563   4.321 -32.712  1.00  0.00     0.252 C 
HETATM    2  N   UNL     1      -2.875   5.029 -31.752  1.00  0.00    -0.346 N 
HETATM    3  O   UNL     1      -3.269   4.371 -33.902  1.00  0.00    -0.268 OA
HETATM    4  H   UNL     1      -3.231   5.103 -30.812  1.00  0.00     0.163 HD
ENDROOT
BRANCH   1   5
HETATM    5  C   UNL     1      -4.705   3.475 -32.254  1.00  0.00     0.033 A 
HETATM    6  C   UNL     1      -4.982   3.440 -30.882  1.00  0.00     0.019 A 
HETATM    7  C   UNL     1      -6.061   2.708 -30.374  1.00  0.00     0.031 A 
HETATM    8  C   UNL     1      -6.858   2.014 -31.289  1.00  0.00     0.043 A 
HETATM    9  C   UNL     1      -6.619   2.020 -32.662  1.00  0.00    -0.001 A 
HETATM   10  N   UNL     1      -7.975   1.241 -31.076  1.00  0.00    -0.359 N 
HETATM   11  C   UNL     1      -7.628   1.208 -33.277  1.00  0.00    -0.027 A 
HETATM   12  C   UNL     1      -5.526   2.770 -33.152  1.00  0.00     0.031 A 
HETATM   13  C   UNL     1      -7.773   0.906 -34.727  1.00  0.00     0.051 C 
HETATM   14  C   UNL     1      -8.455   0.750 -32.264  1.00  0.00     0.012 A 
HETATM   15  C   UNL     1      -9.667  -0.107 -32.320  1.00  0.00     0.068 C 
HETATM   16  H   UNL     1      -8.385   1.073 -30.168  1.00  0.00     0.166 HD
ENDBRANCH   1   5
BRANCH   2  17
HETATM   17  C   UNL     1      -1.722   5.835 -32.099  1.00  0.00     0.147 C 
HETATM   18  C   UNL     1      -2.079   7.301 -32.491  1.00  0.00     0.149 C 
HETATM   19  C   UNL     1      -2.023   8.133 -31.194  1.00  0.00     0.073 C 
HETATM   20  C   UNL     1      -1.038   7.354 -30.373  1.00  0.00    -0.047 A 
HETATM   21  C   UNL     1      -0.870   6.060 -30.879  1.00  0.00    -0.027 A 
HETATM   22  C   UNL     1      -0.375   7.762 -29.228  1.00  0.00     0.008 A 
HETATM   23  C   UNL     1      -0.034   5.148 -30.251  1.00  0.00     0.010 A 
HETATM   24  C   UNL     1       0.646   5.556 -29.103  1.00  0.00     0.001 A 
HETATM   25  C   UNL     1       0.478   6.853 -28.595  1.00  0.00     0.001 A 
BRANCH  18  26
HETATM   26  O   UNL     1      -1.128   7.833 -33.430  1.00  0.00    -0.393 OA
HETATM   27  H   UNL     1      -1.066   7.207 -34.173  1.00  0.00     0.210 HD
ENDBRANCH  18  26
ENDBRANCH   2  17
TORSDOF 3
ENDMDL
MODEL 10
REMARK VINA RESULT:      -7.9      2.575      3.944
REMARK  3 active torsions:
REMARK  status: ('A' for Active; 'I' for Inactive)
REMARK    1  A    between atoms: C_7  and  C_8 
REMARK       I    between atoms: C_8  and  N_9 
REMARK    2  A    between atoms: N_9  and  C_10 
REMARK    3  A    between atoms: C_11  and  O_12 
ROOT
HETATM    1  C   UNL     1      -4.582   4.455 -32.661  1.00  0.00     0.252 C 
HETATM    2  N   UNL     1      -3.580   4.938 -31.851  1.00  0.00    -0.346 N 
HETATM    3  O   UNL     1      -5.368   5.193 -33.246  1.00  0.00    -0.268 OA
HETATM    4  H   UNL     1      -3.053   4.318 -31.255  1.00  0.00     0.163 HD
ENDROOT
BRANCH   1   5
HETATM    5  C   UNL     1      -4.691   2.972 -32.808  1.00  0.00     0.033 A 
HETATM    6  C   UNL     1      -3.753   2.180 -32.136  1.00  0.00     0.019 A 
HETATM    7  C   UNL     1      -3.810   0.783 -32.183  1.00  0.00     0.031 A 
HETATM    8  C   UNL     1      -4.844   0.204 -32.926  1.00  0.00     0.043 A 
HETATM    9  C   UNL     1      -5.797   0.954 -33.611  1.00  0.00    -0.001 A 
HETATM   10  N   UNL     1      -5.148  -1.121 -33.129  1.00  0.00    -0.359 N 
HETATM   11  C   UNL     1      -6.689   0.031 -34.252  1.00  0.00    -0.027 A 
HETATM   12  C   UNL     1      -5.722   2.363 -33.544  1.00  0.00     0.031 A 
HETATM   13  C   UNL     1      -7.858   0.366 -35.110  1.00  0.00     0.051 C 
HETATM   14  C   UNL     1      -6.260  -1.245 -33.923  1.00  0.00     0.012 A 
HETATM   15  C   UNL     1      -6.814  -2.574 -34.287  1.00  0.00     0.068 C 
HETATM   16  H   UNL     1      -4.625  -1.891 -32.735  1.00  0.00     0.166 HD
ENDBRANCH   1   5
BRANCH   2  17
HETATM   17  C   UNL     1      -3.368   6.364 -31.692  1.00  0.00     0.147 C 
HETATM   18  C   UNL     1      -4.229   7.000 -30.560  1.00  0.00     0.149 C 
HETATM   19  C   UNL     1      -3.387   6.930 -29.269  1.00  0.00     0.073 C 
HETATM   20  C   UNL     1      -1.990   6.942 -29.815  1.00  0.00    -0.047 A 
HETATM   21  C   UNL     1      -1.977   6.619 -31.177  1.00  0.00    -0.027 A 
HETATM   22  C   UNL     1      -0.811   7.179 -29.129  1.00  0.00     0.008 A 
HETATM   23  C   UNL     1      -0.785   6.528 -31.880  1.00  0.00     0.010 A 
HETATM   24  C   UNL     1       0.406   6.777 -31.198  1.00  0.00     0.001 A 
HETATM   25  C   UNL     1       0.394   7.100 -29.833  1.00  0.00     0.001 A 
BRANCH  18  26
HETATM   26  O   UNL     1      -4.531   8.377 -30.849  1.00  0.00    -0.393 OA
HETATM   27  H   UNL     1      -5.233   8.659 -30.236  1.00  0.00     0.210 HD
ENDBRANCH  18  26
ENDBRANCH   2  17
TORSDOF 3
ENDMDL
