MODEL 1
REMARK VINA RESULT:      -8.2      0.000      0.000
REMARK  4 active torsions:
REMARK  status: ('A' for Active; 'I' for Inactive)
REMARK    1  A    between atoms: O_2  and  C_3 
REMARK    2  A    between atoms: C_4  and  O_5 
REMARK    3  A    between atoms: C_9  and  C_10 
REMARK    4  A    between atoms: C_10  and  N_11 
ROOT
HETATM    1  N   UNL     1      -8.795   0.593 -33.868  1.00  0.00    -0.066 N 
HETATM    2  H   UNL     1      -9.228  -0.292 -34.159  1.00  0.00     0.280 HD
HETATM    3  C   UNL     1      -8.555   0.415 -32.377  1.00  0.00     0.246 C 
HETATM    4  C   UNL     1      -8.469   1.740 -31.594  1.00  0.00     0.062 C 
HETATM    5  C   UNL     1      -9.713   2.577 -31.861  1.00  0.00     0.020 C 
HETATM    6  C   UNL     1      -9.720   2.922 -33.342  1.00  0.00     0.031 C 
HETATM    7  C   UNL     1      -8.501   3.791 -33.664  1.00  0.00     0.138 C 
HETATM    8  N   UNL     1      -7.253   3.432 -32.989  1.00  0.00    -0.317 N 
HETATM    9  C   UNL     1      -7.216   2.517 -31.934  1.00  0.00     0.020 A 
HETATM   10  C   UNL     1      -6.075   2.335 -31.246  1.00  0.00     0.026 A 
HETATM   11  C   UNL     1      -6.121   4.163 -33.383  1.00  0.00     0.247 A 
HETATM   12  O   UNL     1      -6.113   4.947 -34.327  1.00  0.00    -0.268 OA
HETATM   13  C   UNL     1      -4.878   3.924 -32.611  1.00  0.00     0.074 A 
HETATM   14  C   UNL     1      -4.879   3.055 -31.595  1.00  0.00     0.007 A 
HETATM   15  C   UNL     1      -9.822   1.654 -34.198  1.00  0.00     0.241 C 
ENDROOT
BRANCH   1  16
HETATM   16  C   UNL     1      -7.563   0.647 -34.757  1.00  0.00     0.273 C 
BRANCH  16  17
HETATM   17  C   UNL     1      -6.548  -0.430 -34.478  1.00  0.00    -0.028 A 
HETATM   18  C   UNL     1      -6.791  -1.752 -34.883  1.00  0.00     0.031 A 
HETATM   19  C   UNL     1      -5.872  -2.767 -34.599  1.00  0.00     0.047 A 
HETATM   20  C   UNL     1      -4.704  -2.475 -33.898  1.00  0.00     0.116 A 
HETATM   21 BR   UNL     1      -6.285  -4.529 -35.161  1.00  0.00    -0.048 Br
HETATM   22  C   UNL     1      -4.431  -1.155 -33.532  1.00  0.00     0.103 A 
HETATM   23  C   UNL     1      -5.354  -0.141 -33.799  1.00  0.00     0.048 A 
BRANCH  20  24
HETATM   24  O   UNL     1      -3.855  -3.483 -33.536  1.00  0.00    -0.357 OA
HETATM   25  H   UNL     1      -4.265  -3.954 -32.786  1.00  0.00     0.218 HD
ENDBRANCH  20  24
BRANCH  22  26
HETATM   26  O   UNL     1      -3.307  -0.800 -32.834  1.00  0.00    -0.353 OA
HETATM   27  C   UNL     1      -3.587  -0.512 -31.459  1.00  0.00     0.210 C 
ENDBRANCH  22  26
ENDBRANCH  16  17
ENDBRANCH   1  16
TORSDOF 4
ENDMDL
MODEL 2
REMARK VINA RESULT:      -7.8      1.425      2.219
REMARK  4 active torsions:
REMARK  status: ('A' for Active; 'I' for Inactive)
REMARK    1  A    between atoms: O_2  and  C_3 
REMARK    2  A    between atoms: C_4  and  O_5 
REMARK    3  A    between atoms: C_9  and  C_10 
REMARK    4  A    between atoms: C_10  and  N_11 
ROOT
HETATM    1  N   UNL     1      -8.650   0.397 -33.963  1.00  0.00    -0.066 N 
HETATM    2  H   UNL     1      -9.020  -0.515 -34.257  1.00  0.00     0.280 HD
HETATM    3  C   UNL     1      -8.572   0.293 -32.447  1.00  0.00     0.246 C 
HETATM    4  C   UNL     1      -8.616   1.651 -31.723  1.00  0.00     0.062 C 
HETATM    5  C   UNL     1      -9.849   2.430 -32.164  1.00  0.00     0.020 C 
HETATM    6  C   UNL     1      -9.701   2.711 -33.651  1.00  0.00     0.031 C 
HETATM    7  C   UNL     1      -8.482   3.609 -33.878  1.00  0.00     0.138 C 
HETATM    8  N   UNL     1      -7.306   3.326 -33.053  1.00  0.00    -0.317 N 
HETATM    9  C   UNL     1      -7.358   2.459 -31.959  1.00  0.00     0.020 A 
HETATM   10  C   UNL     1      -6.296   2.348 -31.142  1.00  0.00     0.026 A 
HETATM   11  C   UNL     1      -6.161   4.080 -33.354  1.00  0.00     0.247 A 
HETATM   12  O   UNL     1      -6.073   4.823 -34.327  1.00  0.00    -0.268 OA
HETATM   13  C   UNL     1      -5.005   3.920 -32.439  1.00  0.00     0.074 A 
HETATM   14  C   UNL     1      -5.091   3.097 -31.390  1.00  0.00     0.007 A 
HETATM   15  C   UNL     1      -9.666   1.404 -34.453  1.00  0.00     0.241 C 
ENDROOT
BRANCH   1  16
HETATM   16  C   UNL     1      -7.329   0.458 -34.712  1.00  0.00     0.273 C 
BRANCH  16  17
HETATM   17  C   UNL     1      -6.312  -0.558 -34.263  1.00  0.00    -0.028 A 
HETATM   18  C   UNL     1      -5.312  -0.197 -33.345  1.00  0.00     0.031 A 
HETATM   19  C   UNL     1      -4.341  -1.120 -32.946  1.00  0.00     0.047 A 
HETATM   20  C   UNL     1      -4.350  -2.413 -33.468  1.00  0.00     0.116 A 
HETATM   21 BR   UNL     1      -3.013  -0.549 -31.721  1.00  0.00    -0.048 Br
HETATM   22  C   UNL     1      -5.367  -2.795 -34.346  1.00  0.00     0.103 A 
HETATM   23  C   UNL     1      -6.330  -1.870 -34.760  1.00  0.00     0.048 A 
BRANCH  20  24
HETATM   24  O   UNL     1      -3.344  -3.283 -33.155  1.00  0.00    -0.357 OA
HETATM   25  H   UNL     1      -3.300  -3.947 -33.868  1.00  0.00     0.218 HD
ENDBRANCH  20  24
BRANCH  22  26
HETATM   26  O   UNL     1      -5.431  -4.044 -34.903  1.00  0.00    -0.353 OA
HETATM   27  C   UNL     1      -6.771  -4.426 -35.235  1.00  0.00     0.210 C 
ENDBRANCH  22  26
ENDBRANCH  16  17
ENDBRANCH   1  16
TORSDOF 4
ENDMDL
MODEL 3
REMARK VINA RESULT:      -7.3      1.944      2.494
REMARK  4 active torsions:
REMARK  status: ('A' for Active; 'I' for Inactive)
REMARK    1  A    between atoms: O_2  and  C_3 
REMARK    2  A    between atoms: C_4  and  O_5 
REMARK    3  A    between atoms: C_9  and  C_10 
REMARK    4  A    between atoms: C_10  and  N_11 
ROOT
HETATM    1  N   UNL     1      -7.688   0.193 -33.675  1.00  0.00    -0.066 N 
HETATM    2  H   UNL     1      -7.522  -0.794 -33.909  1.00  0.00     0.280 HD
HETATM    3  C   UNL     1      -7.942   0.180 -32.175  1.00  0.00     0.246 C 
HETATM    4  C   UNL     1      -8.770   1.377 -31.670  1.00  0.00     0.062 C 
HETATM    5  C   UNL     1     -10.072   1.470 -32.454  1.00  0.00     0.020 C 
HETATM    6  C   UNL     1      -9.711   1.746 -33.906  1.00  0.00     0.031 C 
HETATM    7  C   UNL     1      -9.014   3.106 -34.004  1.00  0.00     0.138 C 
HETATM    8  N   UNL     1      -8.077   3.434 -32.928  1.00  0.00    -0.317 N 
HETATM    9  C   UNL     1      -7.997   2.676 -31.757  1.00  0.00     0.020 A 
HETATM   10  C   UNL     1      -7.233   3.102 -30.736  1.00  0.00     0.026 A 
HETATM   11  C   UNL     1      -7.362   4.630 -33.093  1.00  0.00     0.247 A 
HETATM   12  O   UNL     1      -7.384   5.299 -34.122  1.00  0.00    -0.268 OA
HETATM   13  C   UNL     1      -6.519   5.060 -31.951  1.00  0.00     0.074 A 
HETATM   14  C   UNL     1      -6.476   4.322 -30.837  1.00  0.00     0.007 A 
HETATM   15  C   UNL     1      -8.896   0.588 -34.495  1.00  0.00     0.241 C 
ENDROOT
BRANCH   1  16
HETATM   16  C   UNL     1      -6.399   0.848 -34.144  1.00  0.00     0.273 C 
BRANCH  16  17
HETATM   17  C   UNL     1      -5.202   0.558 -33.276  1.00  0.00    -0.028 A 
HETATM   18  C   UNL     1      -4.765  -0.765 -33.096  1.00  0.00     0.031 A 
HETATM   19  C   UNL     1      -3.677  -1.051 -32.266  1.00  0.00     0.047 A 
HETATM   20  C   UNL     1      -3.020  -0.020 -31.596  1.00  0.00     0.116 A 
HETATM   21 BR   UNL     1      -3.163  -2.863 -32.059  1.00  0.00    -0.048 Br
HETATM   22  C   UNL     1      -3.417   1.302 -31.805  1.00  0.00     0.103 A 
HETATM   23  C   UNL     1      -4.515   1.591 -32.622  1.00  0.00     0.048 A 
BRANCH  20  24
HETATM   24  O   UNL     1      -2.021  -0.310 -30.710  1.00  0.00    -0.357 OA
HETATM   25  H   UNL     1      -2.176  -1.215 -30.382  1.00  0.00     0.218 HD
ENDBRANCH  20  24
BRANCH  22  26
HETATM   26  O   UNL     1      -2.822   2.361 -31.173  1.00  0.00    -0.353 OA
HETATM   27  C   UNL     1      -2.939   3.578 -31.918  1.00  0.00     0.210 C 
ENDBRANCH  22  26
ENDBRANCH  16  17
ENDBRANCH   1  16
TORSDOF 4
ENDMDL
MODEL 4
REMARK VINA RESULT:      -7.3      2.150      3.105
REMARK  4 active torsions:
REMARK  status: ('A' for Active; 'I' for Inactive)
REMARK    1  A    between atoms: O_2  and  C_3 
REMARK    2  A    between atoms: C_4  and  O_5 
REMARK    3  A    between atoms: C_9  and  C_10 
REMARK    4  A    between atoms: C_10  and  N_11 
ROOT
HETATM    1  N   UNL     1      -6.347   0.734 -31.676  1.00  0.00    -0.066 N 
HETATM    2  H   UNL     1      -6.630  -0.224 -31.435  1.00  0.00     0.280 HD
HETATM    3  C   UNL     1      -5.417   1.139 -30.543  1.00  0.00     0.246 C 
HETATM    4  C   UNL     1      -5.314   2.662 -30.332  1.00  0.00     0.062 C 
HETATM    5  C   UNL     1      -6.706   3.251 -30.145  1.00  0.00     0.020 C 
HETATM    6  C   UNL     1      -7.474   3.020 -31.438  1.00  0.00     0.031 C 
HETATM    7  C   UNL     1      -6.796   3.791 -32.574  1.00  0.00     0.138 C 
HETATM    8  N   UNL     1      -5.332   3.797 -32.568  1.00  0.00    -0.317 N 
HETATM    9  C   UNL     1      -4.591   3.344 -31.473  1.00  0.00     0.020 A 
HETATM   10  C   UNL     1      -3.257   3.511 -31.453  1.00  0.00     0.026 A 
HETATM   11  C   UNL     1      -4.726   4.407 -33.678  1.00  0.00     0.247 A 
HETATM   12  O   UNL     1      -5.345   4.783 -34.668  1.00  0.00    -0.268 OA
HETATM   13  C   UNL     1      -3.252   4.560 -33.626  1.00  0.00     0.074 A 
HETATM   14  C   UNL     1      -2.573   4.133 -32.556  1.00  0.00     0.007 A 
HETATM   15  C   UNL     1      -7.638   1.521 -31.716  1.00  0.00     0.241 C 
ENDROOT
BRANCH   1  16
HETATM   16  C   UNL     1      -5.714   0.540 -33.044  1.00  0.00     0.273 C 
BRANCH  16  17
HETATM   17  C   UNL     1      -5.213  -0.856 -33.306  1.00  0.00    -0.028 A 
HETATM   18  C   UNL     1      -4.241  -1.426 -32.467  1.00  0.00     0.031 A 
HETATM   19  C   UNL     1      -3.742  -2.708 -32.719  1.00  0.00     0.047 A 
HETATM   20  C   UNL     1      -4.200  -3.431 -33.819  1.00  0.00     0.116 A 
HETATM   21 BR   UNL     1      -2.417  -3.397 -31.553  1.00  0.00    -0.048 Br
HETATM   22  C   UNL     1      -5.200  -2.892 -34.632  1.00  0.00     0.103 A 
HETATM   23  C   UNL     1      -5.689  -1.605 -34.393  1.00  0.00     0.048 A 
BRANCH  20  24
HETATM   24  O   UNL     1      -3.641  -4.641 -34.121  1.00  0.00    -0.357 OA
HETATM   25  H   UNL     1      -4.255  -5.331 -33.808  1.00  0.00     0.218 HD
ENDBRANCH  20  24
BRANCH  22  26
HETATM   26  O   UNL     1      -5.688  -3.544 -35.733  1.00  0.00    -0.353 OA
HETATM   27  C   UNL     1      -6.706  -4.494 -35.398  1.00  0.00     0.210 C 
ENDBRANCH  22  26
ENDBRANCH  16  17
ENDBRANCH   1  16
TORSDOF 4
ENDMDL
MODEL 5
REMARK VINA RESULT:      -7.1      4.594      6.944
REMARK  4 active torsions:
REMARK  status: ('A' for Active; 'I' for Inactive)
REMARK    1  A    between atoms: O_2  and  C_3 
REMARK    2  A    between atoms: C_4  and  O_5 
REMARK    3  A    between atoms: C_9  and  C_10 
REMARK    4  A    between atoms: C_10  and  N_11 
ROOT
HETATM    1  N   UNL     1      -3.916   5.683 -32.203  1.00  0.00    -0.066 N 
HETATM    2  H   UNL     1      -4.909   5.555 -32.433  1.00  0.00     0.280 HD
HETATM    3  C   UNL     1      -3.779   7.180 -31.977  1.00  0.00     0.246 C 
HETATM    4  C   UNL     1      -2.351   7.718 -32.193  1.00  0.00     0.062 C 
HETATM    5  C   UNL     1      -1.854   7.316 -33.576  1.00  0.00     0.020 C 
HETATM    6  C   UNL     1      -1.779   5.797 -33.609  1.00  0.00     0.031 C 
HETATM    7  C   UNL     1      -0.743   5.319 -32.589  1.00  0.00     0.138 C 
HETATM    8  N   UNL     1      -0.708   6.039 -31.314  1.00  0.00    -0.317 N 
HETATM    9  C   UNL     1      -1.398   7.238 -31.119  1.00  0.00     0.020 A 
HETATM   10  C   UNL     1      -1.214   7.939 -29.987  1.00  0.00     0.026 A 
HETATM   11  C   UNL     1       0.166   5.515 -30.348  1.00  0.00     0.247 A 
HETATM   12  O   UNL     1       0.758   4.448 -30.475  1.00  0.00    -0.268 OA
HETATM   13  C   UNL     1       0.331   6.309 -29.106  1.00  0.00     0.074 A 
HETATM   14  C   UNL     1      -0.329   7.462 -28.957  1.00  0.00     0.007 A 
HETATM   15  C   UNL     1      -3.169   5.178 -33.418  1.00  0.00     0.241 C 
ENDROOT
BRANCH   1  16
HETATM   16  C   UNL     1      -3.759   4.790 -30.983  1.00  0.00     0.273 C 
BRANCH  16  17
HETATM   17  C   UNL     1      -4.716   3.627 -30.936  1.00  0.00    -0.028 A 
HETATM   18  C   UNL     1      -6.097   3.854 -30.818  1.00  0.00     0.031 A 
HETATM   19  C   UNL     1      -6.993   2.783 -30.738  1.00  0.00     0.047 A 
HETATM   20  C   UNL     1      -6.519   1.473 -30.763  1.00  0.00     0.116 A 
HETATM   21 BR   UNL     1      -8.838   3.174 -30.558  1.00  0.00    -0.048 Br
HETATM   22  C   UNL     1      -5.152   1.237 -30.928  1.00  0.00     0.103 A 
HETATM   23  C   UNL     1      -4.251   2.304 -30.991  1.00  0.00     0.048 A 
BRANCH  20  24
HETATM   24  O   UNL     1      -7.384   0.431 -30.586  1.00  0.00    -0.357 OA
HETATM   25  H   UNL     1      -8.264   0.810 -30.407  1.00  0.00     0.218 HD
ENDBRANCH  20  24
BRANCH  22  26
HETATM   26  O   UNL     1      -4.618  -0.024 -30.952  1.00  0.00    -0.353 OA
HETATM   27  C   UNL     1      -3.198  -0.012 -31.137  1.00  0.00     0.210 C 
ENDBRANCH  22  26
ENDBRANCH  16  17
ENDBRANCH   1  16
TORSDOF 4
ENDMDL
MODEL 6
REMARK VINA RESULT:      -7.1      4.328      6.698
REMARK  4 active torsions:
REMARK  status: ('A' for Active; 'I' for Inactive)
REMARK    1  A    between atoms: O_2  and  C_3 
REMARK    2  A    between atoms: C_4  and  O_5 
REMARK    3  A    between atoms: C_9  and  C_10 
REMARK    4  A    between atoms: C_10  and  N_11 
ROOT
HETATM    1  N   UNL     1      -3.885   5.420 -32.364  1.00  0.00    -0.066 N 
HETATM    2  H   UNL     1      -4.873   5.226 -32.566  1.00  0.00     0.280 HD
HETATM    3  C   UNL     1      -3.839   6.925 -32.151  1.00  0.00     0.246 C 
HETATM    4  C   UNL     1      -2.456   7.552 -32.408  1.00  0.00     0.062 C 
HETATM    5  C   UNL     1      -1.970   7.173 -33.801  1.00  0.00     0.020 C 
HETATM    6  C   UNL     1      -1.798   5.662 -33.827  1.00  0.00     0.031 C 
HETATM    7  C   UNL     1      -0.705   5.260 -32.831  1.00  0.00     0.138 C 
HETATM    8  N   UNL     1      -0.684   5.991 -31.563  1.00  0.00    -0.317 N 
HETATM    9  C   UNL     1      -1.445   7.144 -31.358  1.00  0.00     0.020 A 
HETATM   10  C   UNL     1      -1.278   7.866 -30.236  1.00  0.00     0.026 A 
HETATM   11  C   UNL     1       0.247   5.533 -30.618  1.00  0.00     0.247 A 
HETATM   12  O   UNL     1       0.904   4.506 -30.753  1.00  0.00    -0.268 OA
HETATM   13  C   UNL     1       0.393   6.346 -29.386  1.00  0.00     0.074 A 
HETATM   14  C   UNL     1      -0.337   7.455 -29.226  1.00  0.00     0.007 A 
HETATM   15  C   UNL     1      -3.139   4.955 -33.594  1.00  0.00     0.241 C 
ENDROOT
BRANCH   1  16
HETATM   16  C   UNL     1      -3.638   4.549 -31.142  1.00  0.00     0.273 C 
BRANCH  16  17
HETATM   17  C   UNL     1      -4.278   3.188 -31.210  1.00  0.00    -0.028 A 
HETATM   18  C   UNL     1      -3.485   2.043 -31.394  1.00  0.00     0.031 A 
HETATM   19  C   UNL     1      -4.070   0.777 -31.493  1.00  0.00     0.047 A 
HETATM   20  C   UNL     1      -5.455   0.640 -31.421  1.00  0.00     0.116 A 
HETATM   21 BR   UNL     1      -2.932  -0.715 -31.762  1.00  0.00    -0.048 Br
HETATM   22  C   UNL     1      -6.248   1.766 -31.191  1.00  0.00     0.103 A 
HETATM   23  C   UNL     1      -5.669   3.035 -31.108  1.00  0.00     0.048 A 
BRANCH  20  24
HETATM   24  O   UNL     1      -6.031  -0.584 -31.616  1.00  0.00    -0.357 OA
HETATM   25  H   UNL     1      -5.747  -0.903 -32.493  1.00  0.00     0.218 HD
ENDBRANCH  20  24
BRANCH  22  26
HETATM   26  O   UNL     1      -7.614   1.704 -31.119  1.00  0.00    -0.353 OA
HETATM   27  C   UNL     1      -8.246   2.167 -32.318  1.00  0.00     0.210 C 
ENDBRANCH  22  26
ENDBRANCH  16  17
ENDBRANCH   1  16
TORSDOF 4
ENDMDL
MODEL 7
REMARK VINA RESULT:      -7.0      3.791      6.510
REMARK  4 active torsions:
REMARK  status: ('A' for Active; 'I' for Inactive)
REMARK    1  A    between atoms: O_2  and  C_3 
REMARK    2  A    between atoms: C_4  and  O_5 
REMARK    3  A    between atoms: C_9  and  C_10 
REMARK    4  A    between atoms: C_10  and  N_11 
ROOT
HETATM    1  N   UNL     1      -8.789  -0.126 -33.708  1.00  0.00    -0.066 N 
HETATM    2  H   UNL     1      -9.492  -0.714 -34.173  1.00  0.00     0.280 HD
HETATM    3  C   UNL     1      -8.197   0.706 -34.835  1.00  0.00     0.246 C 
HETATM    4  C   UNL     1      -6.774   1.224 -34.551  1.00  0.00     0.062 C 
HETATM    5  C   UNL     1      -5.866   0.058 -34.183  1.00  0.00     0.020 C 
HETATM    6  C   UNL     1      -6.398  -0.544 -32.892  1.00  0.00     0.031 C 
HETATM    7  C   UNL     1      -6.296   0.493 -31.770  1.00  0.00     0.138 C 
HETATM    8  N   UNL     1      -6.614   1.875 -32.134  1.00  0.00    -0.317 N 
HETATM    9  C   UNL     1      -6.764   2.277 -33.463  1.00  0.00     0.020 A 
HETATM   10  C   UNL     1      -6.903   3.582 -33.756  1.00  0.00     0.026 A 
HETATM   11  C   UNL     1      -6.629   2.791 -31.070  1.00  0.00     0.247 A 
HETATM   12  O   UNL     1      -6.536   2.465 -29.891  1.00  0.00    -0.268 OA
HETATM   13  C   UNL     1      -6.801   4.219 -31.431  1.00  0.00     0.074 A 
HETATM   14  C   UNL     1      -6.923   4.575 -32.714  1.00  0.00     0.007 A 
HETATM   15  C   UNL     1      -7.812  -1.103 -33.093  1.00  0.00     0.241 C 
ENDROOT
BRANCH   1  16
HETATM   16  C   UNL     1      -9.630   0.615 -32.681  1.00  0.00     0.273 C 
BRANCH  16  17
HETATM   17  C   UNL     1     -10.626   1.578 -33.271  1.00  0.00    -0.028 A 
HETATM   18  C   UNL     1     -10.445   2.963 -33.117  1.00  0.00     0.031 A 
HETATM   19  C   UNL     1     -11.381   3.867 -33.629  1.00  0.00     0.047 A 
HETATM   20  C   UNL     1     -12.514   3.399 -34.293  1.00  0.00     0.116 A 
HETATM   21 BR   UNL     1     -11.076   5.718 -33.360  1.00  0.00    -0.048 Br
HETATM   22  C   UNL     1     -12.678   2.026 -34.492  1.00  0.00     0.103 A 
HETATM   23  C   UNL     1     -11.754   1.118 -33.967  1.00  0.00     0.048 A 
BRANCH  20  24
HETATM   24  O   UNL     1     -13.475   4.277 -34.706  1.00  0.00    -0.357 OA
HETATM   25  H   UNL     1     -13.416   5.064 -34.133  1.00  0.00     0.218 HD
ENDBRANCH  20  24
BRANCH  22  26
HETATM   26  O   UNL     1     -13.771   1.498 -35.127  1.00  0.00    -0.353 OA
HETATM   27  C   UNL     1     -14.593   0.724 -34.245  1.00  0.00     0.210 C 
ENDBRANCH  22  26
ENDBRANCH  16  17
ENDBRANCH   1  16
TORSDOF 4
ENDMDL
MODEL 8
REMARK VINA RESULT:      -6.9     15.047     16.526
REMARK  4 active torsions:
REMARK  status: ('A' for Active; 'I' for Inactive)
REMARK    1  A    between atoms: O_2  and  C_3 
REMARK    2  A    between atoms: C_4  and  O_5 
REMARK    3  A    between atoms: C_9  and  C_10 
REMARK    4  A    between atoms: C_10  and  N_11 
ROOT
HETATM    1  N   UNL     1      -8.814 -15.421 -38.309  1.00  0.00    -0.066 N 
HETATM    2  H   UNL     1      -9.222 -15.720 -37.415  1.00  0.00     0.280 HD
HETATM    3  C   UNL     1      -9.101 -13.929 -38.366  1.00  0.00     0.246 C 
HETATM    4  C   UNL     1      -9.132 -13.351 -39.794  1.00  0.00     0.062 C 
HETATM    5  C   UNL     1     -10.117 -14.139 -40.647  1.00  0.00     0.020 C 
HETATM    6  C   UNL     1      -9.597 -15.565 -40.743  1.00  0.00     0.031 C 
HETATM    7  C   UNL     1      -8.251 -15.563 -41.474  1.00  0.00     0.138 C 
HETATM    8  N   UNL     1      -7.344 -14.459 -41.159  1.00  0.00    -0.317 N 
HETATM    9  C   UNL     1      -7.759 -13.342 -40.430  1.00  0.00     0.020 A 
HETATM   10  C   UNL     1      -6.937 -12.286 -40.297  1.00  0.00     0.026 A 
HETATM   11  C   UNL     1      -6.072 -14.535 -41.748  1.00  0.00     0.247 A 
HETATM   12  O   UNL     1      -5.666 -15.516 -42.363  1.00  0.00    -0.268 OA
HETATM   13  C   UNL     1      -5.187 -13.359 -41.567  1.00  0.00     0.074 A 
HETATM   14  C   UNL     1      -5.620 -12.297 -40.879  1.00  0.00     0.007 A 
HETATM   15  C   UNL     1      -9.550 -16.224 -39.359  1.00  0.00     0.241 C 
ENDROOT
BRANCH   1  16
HETATM   16  C   UNL     1      -7.360 -15.832 -38.143  1.00  0.00     0.273 C 
BRANCH  16  17
HETATM   17  C   UNL     1      -6.612 -15.061 -37.087  1.00  0.00    -0.028 A 
HETATM   18  C   UNL     1      -6.888 -15.279 -35.727  1.00  0.00     0.031 A 
HETATM   19  C   UNL     1      -6.226 -14.545 -34.738  1.00  0.00     0.047 A 
HETATM   20  C   UNL     1      -5.288 -13.577 -35.096  1.00  0.00     0.116 A 
HETATM   21 BR   UNL     1      -6.670 -14.882 -32.927  1.00  0.00    -0.048 Br
HETATM   22  C   UNL     1      -4.974 -13.387 -36.444  1.00  0.00     0.103 A 
HETATM   23  C   UNL     1      -5.645 -14.106 -37.436  1.00  0.00     0.048 A 
BRANCH  20  24
HETATM   24  O   UNL     1      -4.716 -12.793 -34.135  1.00  0.00    -0.357 OA
HETATM   25  H   UNL     1      -5.303 -12.027 -33.995  1.00  0.00     0.218 HD
ENDBRANCH  20  24
BRANCH  22  26
HETATM   26  O   UNL     1      -4.071 -12.448 -36.865  1.00  0.00    -0.353 OA
HETATM   27  C   UNL     1      -3.324 -12.883 -38.007  1.00  0.00     0.210 C 
ENDBRANCH  22  26
ENDBRANCH  16  17
ENDBRANCH   1  16
TORSDOF 4
ENDMDL
MODEL 9
REMARK VINA RESULT:      -6.8      3.226      6.139
REMARK  4 active torsions:
REMARK  status: ('A' for Active; 'I' for Inactive)
REMARK    1  A    between atoms: O_2  and  C_3 
REMARK    2  A    between atoms: C_4  and  O_5 
REMARK    3  A    between atoms: C_9  and  C_10 
REMARK    4  A    between atoms: C_10  and  N_11 
ROOT
HETATM    1  N   UNL     1      -7.495   2.583 -33.206  1.00  0.00    -0.066 N 
HETATM    2  H   UNL     1      -7.809   3.536 -33.426  1.00  0.00     0.280 HD
HETATM    3  C   UNL     1      -8.419   1.692 -34.021  1.00  0.00     0.246 C 
HETATM    4  C   UNL     1      -8.568   0.264 -33.461  1.00  0.00     0.062 C 
HETATM    5  C   UNL     1      -9.000   0.327 -32.001  1.00  0.00     0.020 C 
HETATM    6  C   UNL     1      -7.883   1.008 -31.225  1.00  0.00     0.031 C 
HETATM    7  C   UNL     1      -6.620   0.145 -31.296  1.00  0.00     0.138 C 
HETATM    8  N   UNL     1      -6.347  -0.500 -32.582  1.00  0.00    -0.317 N 
HETATM    9  C   UNL     1      -7.293  -0.537 -33.609  1.00  0.00     0.020 A 
HETATM   10  C   UNL     1      -7.056  -1.271 -34.711  1.00  0.00     0.026 A 
HETATM   11  C   UNL     1      -5.128  -1.190 -32.664  1.00  0.00     0.247 A 
HETATM   12  O   UNL     1      -4.263  -1.149 -31.795  1.00  0.00    -0.268 OA
HETATM   13  C   UNL     1      -4.896  -1.976 -33.901  1.00  0.00     0.074 A 
HETATM   14  C   UNL     1      -5.827  -2.007 -34.858  1.00  0.00     0.007 A 
HETATM   15  C   UNL     1      -7.679   2.448 -31.711  1.00  0.00     0.241 C 
ENDROOT
BRANCH   1  16
HETATM   16  C   UNL     1      -6.037   2.626 -33.634  1.00  0.00     0.273 C 
BRANCH  16  17
HETATM   17  C   UNL     1      -5.307   3.880 -33.228  1.00  0.00    -0.028 A 
HETATM   18  C   UNL     1      -6.023   4.987 -32.743  1.00  0.00     0.031 A 
HETATM   19  C   UNL     1      -5.361   6.169 -32.396  1.00  0.00     0.047 A 
HETATM   20  C   UNL     1      -3.978   6.263 -32.539  1.00  0.00     0.116 A 
HETATM   21 BR   UNL     1      -6.400   7.625 -31.770  1.00  0.00    -0.048 Br
HETATM   22  C   UNL     1      -3.252   5.152 -32.976  1.00  0.00     0.103 A 
HETATM   23  C   UNL     1      -3.911   3.975 -33.340  1.00  0.00     0.048 A 
BRANCH  20  24
HETATM   24  O   UNL     1      -3.345   7.449 -32.294  1.00  0.00    -0.357 OA
HETATM   25  H   UNL     1      -3.960   8.007 -31.782  1.00  0.00     0.218 HD
ENDBRANCH  20  24
BRANCH  22  26
HETATM   26  O   UNL     1      -1.894   5.179 -33.148  1.00  0.00    -0.353 OA
HETATM   27  C   UNL     1      -1.520   5.271 -34.528  1.00  0.00     0.210 C 
ENDBRANCH  22  26
ENDBRANCH  16  17
ENDBRANCH   1  16
TORSDOF 4
ENDMDL
MODEL 10
REMARK VINA RESULT:      -6.8      2.975      6.066
REMARK  4 active torsions:
REMARK  status: ('A' for Active; 'I' for Inactive)
REMARK    1  A    between atoms: O_2  and  C_3 
REMARK    2  A    between atoms: C_4  and  O_5 
REMARK    3  A    between atoms: C_9  and  C_10 
REMARK    4  A    between atoms: C_10  and  N_11 
ROOT
HETATM    1  N   UNL     1      -6.395   1.459 -30.778  1.00  0.00    -0.066 N 
HETATM    2  H   UNL     1      -6.552   1.744 -29.804  1.00  0.00     0.280 HD
HETATM    3  C   UNL     1      -5.117   0.637 -30.723  1.00  0.00     0.246 C 
HETATM    4  C   UNL     1      -4.349   0.583 -32.058  1.00  0.00     0.062 C 
HETATM    5  C   UNL     1      -4.080   1.997 -32.555  1.00  0.00     0.020 C 
HETATM    6  C   UNL     1      -5.427   2.647 -32.830  1.00  0.00     0.031 C 
HETATM    7  C   UNL     1      -6.134   1.889 -33.957  1.00  0.00     0.138 C 
HETATM    8  N   UNL     1      -5.999   0.431 -33.941  1.00  0.00    -0.317 N 
HETATM    9  C   UNL     1      -5.090  -0.221 -33.104  1.00  0.00     0.020 A 
HETATM   10  C   UNL     1      -4.894  -1.545 -33.233  1.00  0.00     0.026 A 
HETATM   11  C   UNL     1      -6.747  -0.255 -34.910  1.00  0.00     0.247 A 
HETATM   12  O   UNL     1      -7.578   0.284 -35.634  1.00  0.00    -0.268 OA
HETATM   13  C   UNL     1      -6.515  -1.716 -35.012  1.00  0.00     0.074 A 
HETATM   14  C   UNL     1      -5.625  -2.309 -34.210  1.00  0.00     0.007 A 
HETATM   15  C   UNL     1      -6.253   2.757 -31.543  1.00  0.00     0.241 C 
ENDROOT
BRANCH   1  16
HETATM   16  C   UNL     1      -7.677   0.708 -31.097  1.00  0.00     0.273 C 
BRANCH  16  17
HETATM   17  C   UNL     1      -8.831   1.590 -31.497  1.00  0.00    -0.028 A 
HETATM   18  C   UNL     1      -9.557   1.314 -32.667  1.00  0.00     0.031 A 
HETATM   19  C   UNL     1     -10.608   2.145 -33.068  1.00  0.00     0.047 A 
HETATM   20  C   UNL     1     -10.940   3.266 -32.311  1.00  0.00     0.116 A 
HETATM   21 BR   UNL     1     -11.524   1.717 -34.671  1.00  0.00    -0.048 Br
HETATM   22  C   UNL     1     -10.255   3.522 -31.120  1.00  0.00     0.103 A 
HETATM   23  C   UNL     1      -9.193   2.704 -30.725  1.00  0.00     0.048 A 
BRANCH  20  24
HETATM   24  O   UNL     1     -11.901   4.130 -32.755  1.00  0.00    -0.357 OA
HETATM   25  H   UNL     1     -12.195   3.814 -33.629  1.00  0.00     0.218 HD
ENDBRANCH  20  24
BRANCH  22  26
HETATM   26  O   UNL     1     -10.524   4.610 -30.334  1.00  0.00    -0.353 OA
HETATM   27  C   UNL     1      -9.399   5.489 -30.215  1.00  0.00     0.210 C 
ENDBRANCH  22  26
ENDBRANCH  16  17
ENDBRANCH   1  16
TORSDOF 4
ENDMDL
