MODEL 1
REMARK VINA RESULT:      -8.0      0.000      0.000
REMARK  6 active torsions:
REMARK  status: ('A' for Active; 'I' for Inactive)
REMARK    1  A    between atoms: C_2  and  N_3 
REMARK    2  A    between atoms: C_2  and  C_18 
REMARK    3  A    between atoms: N_3  and  C_6 
REMARK    4  A    between atoms: C_6  and  C_7 
REMARK    5  A    between atoms: C_10  and  N_11 
REMARK       I    between atoms: N_11  and  C_12 
REMARK    6  A    between atoms: C_12  and  O_13 
ROOT
HETATM    1  N   UNL     1      -6.257   1.255 -31.722  1.00  0.00    -0.061 N 
HETATM    2  H   UNL     1      -7.085   1.860 -31.691  1.00  0.00     0.278 HD
HETATM    3  H   UNL     1      -6.568   0.305 -31.471  1.00  0.00     0.278 HD
ENDROOT
BRANCH   1   4
HETATM    4  C   UNL     1      -5.694   1.158 -33.121  1.00  0.00     0.241 C 
HETATM    5  C   UNL     1      -6.673   1.872 -34.050  1.00  0.00     0.047 C 
BRANCH   4   6
HETATM    6  C   UNL     1      -5.524  -0.283 -33.525  1.00  0.00     0.106 A 
HETATM    7  S   UNL     1      -4.038  -1.099 -33.301  1.00  0.00    -0.070 SA
HETATM    8  C   UNL     1      -4.744  -2.547 -33.912  1.00  0.00     0.035 A 
HETATM    9  C   UNL     1      -6.079  -2.298 -34.245  1.00  0.00     0.075 A 
HETATM   10  C   UNL     1      -4.161  -3.812 -34.079  1.00  0.00     0.021 A 
HETATM   11  N   UNL     1      -6.516  -0.999 -34.013  1.00  0.00    -0.243 NA
HETATM   12  C   UNL     1      -6.857  -3.352 -34.764  1.00  0.00     0.033 A 
HETATM   13  C   UNL     1      -6.284  -4.618 -34.932  1.00  0.00     0.002 A 
HETATM   14  C   UNL     1      -4.954  -4.842 -34.594  1.00  0.00     0.002 A 
ENDBRANCH   4   6
ENDBRANCH   1   4
BRANCH   1  15
HETATM   15  C   UNL     1      -5.290   1.691 -30.674  1.00  0.00     0.271 C 
BRANCH  15  16
HETATM   16  C   UNL     1      -4.588   2.957 -31.077  1.00  0.00    -0.033 A 
HETATM   17  C   UNL     1      -5.287   4.169 -31.164  1.00  0.00     0.011 A 
HETATM   18  C   UNL     1      -4.639   5.344 -31.566  1.00  0.00     0.030 A 
HETATM   19  C   UNL     1      -3.280   5.338 -31.878  1.00  0.00     0.036 A 
HETATM   20  C   UNL     1      -2.577   4.133 -31.762  1.00  0.00     0.030 A 
HETATM   21  C   UNL     1      -3.221   2.953 -31.374  1.00  0.00     0.011 A 
BRANCH  19  22
HETATM   22  N   UNL     1      -2.542   6.461 -32.285  1.00  0.00    -0.303 N 
HETATM   23  C   UNL     1      -2.157   6.915 -33.519  1.00  0.00     0.364 C 
HETATM   24  O   UNL     1      -1.532   7.967 -33.617  1.00  0.00    -0.238 OA
HETATM   25  H   UNL     1      -2.191   7.076 -31.561  1.00  0.00     0.171 HD
BRANCH  23  26
HETATM   26  O   UNL     1      -2.475   6.116 -34.566  1.00  0.00    -0.309 OA
HETATM   27  C   UNL     1      -1.412   5.257 -34.986  1.00  0.00     0.215 C 
ENDBRANCH  23  26
ENDBRANCH  19  22
ENDBRANCH  15  16
ENDBRANCH   1  15
TORSDOF 6
ENDMDL
MODEL 2
REMARK VINA RESULT:      -7.8      3.760      8.639
REMARK  6 active torsions:
REMARK  status: ('A' for Active; 'I' for Inactive)
REMARK    1  A    between atoms: C_2  and  N_3 
REMARK    2  A    between atoms: C_2  and  C_18 
REMARK    3  A    between atoms: N_3  and  C_6 
REMARK    4  A    between atoms: C_6  and  C_7 
REMARK    5  A    between atoms: C_10  and  N_11 
REMARK       I    between atoms: N_11  and  C_12 
REMARK    6  A    between atoms: C_12  and  O_13 
ROOT
HETATM    1  N   UNL     1      -5.457   2.622 -31.969  1.00  0.00    -0.061 N 
HETATM    2  H   UNL     1      -5.713   2.076 -31.139  1.00  0.00     0.278 HD
HETATM    3  H   UNL     1      -5.459   3.615 -31.690  1.00  0.00     0.278 HD
ENDROOT
BRANCH   1   4
HETATM    4  C   UNL     1      -4.049   2.315 -32.422  1.00  0.00     0.241 C 
HETATM    5  C   UNL     1      -3.463   1.318 -31.425  1.00  0.00     0.047 C 
BRANCH   4   6
HETATM    6  C   UNL     1      -3.222   3.573 -32.472  1.00  0.00     0.106 A 
HETATM    7  S   UNL     1      -3.601   4.842 -33.553  1.00  0.00    -0.070 SA
HETATM    8  C   UNL     1      -2.306   5.777 -32.905  1.00  0.00     0.035 A 
HETATM    9  C   UNL     1      -1.672   5.042 -31.899  1.00  0.00     0.075 A 
HETATM   10  C   UNL     1      -1.884   7.067 -33.260  1.00  0.00     0.021 A 
HETATM   11  N   UNL     1      -2.210   3.784 -31.654  1.00  0.00    -0.243 NA
HETATM   12  C   UNL     1      -0.580   5.619 -31.222  1.00  0.00     0.033 A 
HETATM   13  C   UNL     1      -0.154   6.907 -31.567  1.00  0.00     0.002 A 
HETATM   14  C   UNL     1      -0.799   7.619 -32.573  1.00  0.00     0.002 A 
ENDBRANCH   4   6
ENDBRANCH   1   4
BRANCH   1  15
HETATM   15  C   UNL     1      -6.512   2.458 -33.011  1.00  0.00     0.271 C 
BRANCH  15  16
HETATM   16  C   UNL     1      -6.620   1.025 -33.452  1.00  0.00    -0.033 A 
HETATM   17  C   UNL     1      -6.588  -0.018 -32.515  1.00  0.00     0.011 A 
HETATM   18  C   UNL     1      -6.661  -1.355 -32.928  1.00  0.00     0.030 A 
HETATM   19  C   UNL     1      -6.780  -1.679 -34.280  1.00  0.00     0.036 A 
HETATM   20  C   UNL     1      -6.841  -0.634 -35.210  1.00  0.00     0.030 A 
HETATM   21  C   UNL     1      -6.755   0.702 -34.805  1.00  0.00     0.011 A 
BRANCH  19  22
HETATM   22  N   UNL     1      -6.864  -2.984 -34.791  1.00  0.00    -0.303 N 
HETATM   23  C   UNL     1      -5.932  -3.974 -34.952  1.00  0.00     0.364 C 
HETATM   24  O   UNL     1      -6.269  -5.066 -35.400  1.00  0.00    -0.238 OA
HETATM   25  H   UNL     1      -7.765  -3.292 -35.136  1.00  0.00     0.171 HD
BRANCH  23  26
HETATM   26  O   UNL     1      -4.659  -3.643 -34.626  1.00  0.00    -0.309 OA
HETATM   27  C   UNL     1      -3.959  -4.660 -33.905  1.00  0.00     0.215 C 
ENDBRANCH  23  26
ENDBRANCH  19  22
ENDBRANCH  15  16
ENDBRANCH   1  15
TORSDOF 6
ENDMDL
MODEL 3
REMARK VINA RESULT:      -7.6      3.784      8.701
REMARK  6 active torsions:
REMARK  status: ('A' for Active; 'I' for Inactive)
REMARK    1  A    between atoms: C_2  and  N_3 
REMARK    2  A    between atoms: C_2  and  C_18 
REMARK    3  A    between atoms: N_3  and  C_6 
REMARK    4  A    between atoms: C_6  and  C_7 
REMARK    5  A    between atoms: C_10  and  N_11 
REMARK       I    between atoms: N_11  and  C_12 
REMARK    6  A    between atoms: C_12  and  O_13 
ROOT
HETATM    1  N   UNL     1      -5.521   2.942 -32.225  1.00  0.00    -0.061 N 
HETATM    2  H   UNL     1      -4.581   2.534 -32.275  1.00  0.00     0.278 HD
HETATM    3  H   UNL     1      -6.032   2.435 -31.488  1.00  0.00     0.278 HD
ENDROOT
BRANCH   1   4
HETATM    4  C   UNL     1      -5.473   4.387 -31.787  1.00  0.00     0.241 C 
HETATM    5  C   UNL     1      -6.113   5.216 -32.898  1.00  0.00     0.047 C 
BRANCH   4   6
HETATM    6  C   UNL     1      -4.051   4.821 -31.545  1.00  0.00     0.106 A 
HETATM    7  S   UNL     1      -2.738   4.011 -32.281  1.00  0.00    -0.070 SA
HETATM    8  C   UNL     1      -1.646   5.133 -31.563  1.00  0.00     0.035 A 
HETATM    9  C   UNL     1      -2.373   6.055 -30.805  1.00  0.00     0.075 A 
HETATM   10  C   UNL     1      -0.248   5.195 -31.666  1.00  0.00     0.021 A 
HETATM   11  N   UNL     1      -3.751   5.870 -30.807  1.00  0.00    -0.243 NA
HETATM   12  C   UNL     1      -1.677   7.076 -30.127  1.00  0.00     0.033 A 
HETATM   13  C   UNL     1      -0.283   7.147 -30.226  1.00  0.00     0.002 A 
HETATM   14  C   UNL     1       0.419   6.218 -30.986  1.00  0.00     0.002 A 
ENDBRANCH   4   6
ENDBRANCH   1   4
BRANCH   1  15
HETATM   15  C   UNL     1      -6.236   2.688 -33.509  1.00  0.00     0.271 C 
BRANCH  15  16
HETATM   16  C   UNL     1      -6.388   1.214 -33.762  1.00  0.00    -0.033 A 
HETATM   17  C   UNL     1      -5.906   0.274 -32.840  1.00  0.00     0.011 A 
HETATM   18  C   UNL     1      -6.023  -1.100 -33.089  1.00  0.00     0.030 A 
HETATM   19  C   UNL     1      -6.632  -1.565 -34.255  1.00  0.00     0.036 A 
HETATM   20  C   UNL     1      -7.137  -0.624 -35.160  1.00  0.00     0.030 A 
HETATM   21  C   UNL     1      -7.012   0.749 -34.924  1.00  0.00     0.011 A 
BRANCH  19  22
HETATM   22  N   UNL     1      -6.799  -2.917 -34.593  1.00  0.00    -0.303 N 
HETATM   23  C   UNL     1      -5.905  -3.921 -34.854  1.00  0.00     0.364 C 
HETATM   24  O   UNL     1      -6.310  -5.054 -35.096  1.00  0.00    -0.238 OA
HETATM   25  H   UNL     1      -7.747  -3.259 -34.689  1.00  0.00     0.171 HD
BRANCH  23  26
HETATM   26  O   UNL     1      -4.599  -3.559 -34.863  1.00  0.00    -0.309 OA
HETATM   27  C   UNL     1      -3.811  -4.200 -33.857  1.00  0.00     0.215 C 
ENDBRANCH  23  26
ENDBRANCH  19  22
ENDBRANCH  15  16
ENDBRANCH   1  15
TORSDOF 6
ENDMDL
MODEL 4
REMARK VINA RESULT:      -7.6      4.817      7.831
REMARK  6 active torsions:
REMARK  status: ('A' for Active; 'I' for Inactive)
REMARK    1  A    between atoms: C_2  and  N_3 
REMARK    2  A    between atoms: C_2  and  C_18 
REMARK    3  A    between atoms: N_3  and  C_6 
REMARK    4  A    between atoms: C_6  and  C_7 
REMARK    5  A    between atoms: C_10  and  N_11 
REMARK       I    between atoms: N_11  and  C_12 
REMARK    6  A    between atoms: C_12  and  O_13 
ROOT
HETATM    1  N   UNL     1      -6.680   3.540 -34.025  1.00  0.00    -0.061 N 
HETATM    2  H   UNL     1      -7.007   3.039 -34.858  1.00  0.00     0.278 HD
HETATM    3  H   UNL     1      -6.010   4.255 -34.345  1.00  0.00     0.278 HD
ENDROOT
BRANCH   1   4
HETATM    4  C   UNL     1      -7.807   4.290 -33.353  1.00  0.00     0.241 C 
HETATM    5  C   UNL     1      -7.557   4.225 -31.848  1.00  0.00     0.047 C 
BRANCH   4   6
HETATM    6  C   UNL     1      -9.136   3.674 -33.705  1.00  0.00     0.106 A 
HETATM    7  S   UNL     1     -10.214   4.444 -34.786  1.00  0.00    -0.070 SA
HETATM    8  C   UNL     1     -11.298   3.112 -34.649  1.00  0.00     0.035 A 
HETATM    9  C   UNL     1     -10.751   2.165 -33.778  1.00  0.00     0.075 A 
HETATM   10  C   UNL     1     -12.541   2.917 -35.270  1.00  0.00     0.021 A 
HETATM   11  N   UNL     1      -9.508   2.495 -33.248  1.00  0.00    -0.243 NA
HETATM   12  C   UNL     1     -11.471   0.982 -33.520  1.00  0.00     0.033 A 
HETATM   13  C   UNL     1     -12.710   0.778 -34.138  1.00  0.00     0.002 A 
HETATM   14  C   UNL     1     -13.236   1.734 -35.001  1.00  0.00     0.002 A 
ENDBRANCH   4   6
ENDBRANCH   1   4
BRANCH   1  15
HETATM   15  C   UNL     1      -5.929   2.597 -33.147  1.00  0.00     0.271 C 
BRANCH  15  16
HETATM   16  C   UNL     1      -6.160   1.171 -33.559  1.00  0.00    -0.033 A 
HETATM   17  C   UNL     1      -6.755   0.868 -34.792  1.00  0.00     0.011 A 
HETATM   18  C   UNL     1      -6.996  -0.461 -35.165  1.00  0.00     0.030 A 
HETATM   19  C   UNL     1      -6.638  -1.514 -34.323  1.00  0.00     0.036 A 
HETATM   20  C   UNL     1      -6.017  -1.210 -33.106  1.00  0.00     0.030 A 
HETATM   21  C   UNL     1      -5.786   0.115 -32.722  1.00  0.00     0.011 A 
BRANCH  19  22
HETATM   22  N   UNL     1      -6.833  -2.875 -34.608  1.00  0.00    -0.303 N 
HETATM   23  C   UNL     1      -5.960  -3.901 -34.859  1.00  0.00     0.364 C 
HETATM   24  O   UNL     1      -6.387  -5.036 -35.049  1.00  0.00    -0.238 OA
HETATM   25  H   UNL     1      -7.788  -3.206 -34.666  1.00  0.00     0.171 HD
BRANCH  23  26
HETATM   26  O   UNL     1      -4.651  -3.558 -34.916  1.00  0.00    -0.309 OA
HETATM   27  C   UNL     1      -3.825  -4.256 -33.980  1.00  0.00     0.215 C 
ENDBRANCH  23  26
ENDBRANCH  19  22
ENDBRANCH  15  16
ENDBRANCH   1  15
TORSDOF 6
ENDMDL
MODEL 5
REMARK VINA RESULT:      -7.5      4.159      6.171
REMARK  6 active torsions:
REMARK  status: ('A' for Active; 'I' for Inactive)
REMARK    1  A    between atoms: C_2  and  N_3 
REMARK    2  A    between atoms: C_2  and  C_18 
REMARK    3  A    between atoms: N_3  and  C_6 
REMARK    4  A    between atoms: C_6  and  C_7 
REMARK    5  A    between atoms: C_10  and  N_11 
REMARK       I    between atoms: N_11  and  C_12 
REMARK    6  A    between atoms: C_12  and  O_13 
ROOT
HETATM    1  N   UNL     1      -4.627   1.522 -32.726  1.00  0.00    -0.061 N 
HETATM    2  H   UNL     1      -3.712   1.984 -32.787  1.00  0.00     0.278 HD
HETATM    3  H   UNL     1      -4.840   1.149 -33.663  1.00  0.00     0.278 HD
ENDROOT
BRANCH   1   4
HETATM    4  C   UNL     1      -4.585   0.332 -31.797  1.00  0.00     0.241 C 
HETATM    5  C   UNL     1      -3.268   0.407 -31.028  1.00  0.00     0.047 C 
BRANCH   4   6
HETATM    6  C   UNL     1      -4.678  -0.953 -32.578  1.00  0.00     0.106 A 
HETATM    7  S   UNL     1      -3.492  -2.175 -32.425  1.00  0.00    -0.070 SA
HETATM    8  C   UNL     1      -4.384  -3.174 -33.509  1.00  0.00     0.035 A 
HETATM    9  C   UNL     1      -5.536  -2.493 -33.913  1.00  0.00     0.075 A 
HETATM   10  C   UNL     1      -4.087  -4.467 -33.966  1.00  0.00     0.021 A 
HETATM   11  N   UNL     1      -5.698  -1.225 -33.367  1.00  0.00    -0.243 NA
HETATM   12  C   UNL     1      -6.424  -3.129 -34.803  1.00  0.00     0.033 A 
HETATM   13  C   UNL     1      -6.137  -4.420 -35.262  1.00  0.00     0.002 A 
HETATM   14  C   UNL     1      -4.984  -5.077 -34.847  1.00  0.00     0.002 A 
ENDBRANCH   4   6
ENDBRANCH   1   4
BRANCH   1  15
HETATM   15  C   UNL     1      -5.671   2.540 -32.412  1.00  0.00     0.271 C 
BRANCH  15  16
HETATM   16  C   UNL     1      -7.052   1.970 -32.579  1.00  0.00    -0.033 A 
HETATM   17  C   UNL     1      -7.891   1.788 -31.471  1.00  0.00     0.011 A 
HETATM   18  C   UNL     1      -9.168   1.231 -31.622  1.00  0.00     0.030 A 
HETATM   19  C   UNL     1      -9.638   0.856 -32.880  1.00  0.00     0.036 A 
HETATM   20  C   UNL     1      -8.809   1.065 -33.988  1.00  0.00     0.030 A 
HETATM   21  C   UNL     1      -7.528   1.609 -33.842  1.00  0.00     0.011 A 
BRANCH  19  22
HETATM   22  N   UNL     1     -10.900   0.294 -33.135  1.00  0.00    -0.303 N 
HETATM   23  C   UNL     1     -12.076   0.833 -33.586  1.00  0.00     0.364 C 
HETATM   24  O   UNL     1     -13.052   0.110 -33.763  1.00  0.00    -0.238 OA
HETATM   25  H   UNL     1     -11.016  -0.694 -32.947  1.00  0.00     0.171 HD
BRANCH  23  26
HETATM   26  O   UNL     1     -12.077   2.175 -33.769  1.00  0.00    -0.309 OA
HETATM   27  C   UNL     1     -12.257   2.576 -35.130  1.00  0.00     0.215 C 
ENDBRANCH  23  26
ENDBRANCH  19  22
ENDBRANCH  15  16
ENDBRANCH   1  15
TORSDOF 6
ENDMDL
MODEL 6
REMARK VINA RESULT:      -7.3      1.359      2.251
REMARK  6 active torsions:
REMARK  status: ('A' for Active; 'I' for Inactive)
REMARK    1  A    between atoms: C_2  and  N_3 
REMARK    2  A    between atoms: C_2  and  C_18 
REMARK    3  A    between atoms: N_3  and  C_6 
REMARK    4  A    between atoms: C_6  and  C_7 
REMARK    5  A    between atoms: C_10  and  N_11 
REMARK       I    between atoms: N_11  and  C_12 
REMARK    6  A    between atoms: C_12  and  O_13 
ROOT
HETATM    1  N   UNL     1      -6.306   1.380 -32.106  1.00  0.00    -0.061 N 
HETATM    2  H   UNL     1      -7.067   2.068 -32.094  1.00  0.00     0.278 HD
HETATM    3  H   UNL     1      -6.698   0.490 -31.765  1.00  0.00     0.278 HD
ENDROOT
BRANCH   1   4
HETATM    4  C   UNL     1      -5.823   1.115 -33.513  1.00  0.00     0.241 C 
HETATM    5  C   UNL     1      -6.811   1.789 -34.462  1.00  0.00     0.047 C 
BRANCH   4   6
HETATM    6  C   UNL     1      -5.748  -0.366 -33.778  1.00  0.00     0.106 A 
HETATM    7  S   UNL     1      -7.011  -1.190 -34.583  1.00  0.00    -0.070 SA
HETATM    8  C   UNL     1      -6.103  -2.652 -34.507  1.00  0.00     0.035 A 
HETATM    9  C   UNL     1      -4.887  -2.400 -33.865  1.00  0.00     0.075 A 
HETATM   10  C   UNL     1      -6.440  -3.928 -34.984  1.00  0.00     0.021 A 
HETATM   11  N   UNL     1      -4.692  -1.086 -33.458  1.00  0.00    -0.243 NA
HETATM   12  C   UNL     1      -3.976  -3.462 -33.696  1.00  0.00     0.033 A 
HETATM   13  C   UNL     1      -4.303  -4.737 -34.171  1.00  0.00     0.002 A 
HETATM   14  C   UNL     1      -5.519  -4.964 -34.806  1.00  0.00     0.002 A 
ENDBRANCH   4   6
ENDBRANCH   1   4
BRANCH   1  15
HETATM   15  C   UNL     1      -5.251   1.794 -31.137  1.00  0.00     0.271 C 
BRANCH  15  16
HETATM   16  C   UNL     1      -4.560   3.049 -31.591  1.00  0.00    -0.033 A 
HETATM   17  C   UNL     1      -3.179   3.060 -31.830  1.00  0.00     0.011 A 
HETATM   18  C   UNL     1      -2.529   4.237 -32.226  1.00  0.00     0.030 A 
HETATM   19  C   UNL     1      -3.244   5.421 -32.404  1.00  0.00     0.036 A 
HETATM   20  C   UNL     1      -4.628   5.399 -32.193  1.00  0.00     0.030 A 
HETATM   21  C   UNL     1      -5.280   4.232 -31.784  1.00  0.00     0.011 A 
BRANCH  19  22
HETATM   22  N   UNL     1      -2.686   6.647 -32.802  1.00  0.00    -0.303 N 
HETATM   23  C   UNL     1      -2.146   7.688 -32.095  1.00  0.00     0.364 C 
HETATM   24  O   UNL     1      -1.682   8.657 -32.690  1.00  0.00    -0.238 OA
HETATM   25  H   UNL     1      -2.674   6.853 -33.794  1.00  0.00     0.171 HD
BRANCH  23  26
HETATM   26  O   UNL     1      -2.205   7.577 -30.746  1.00  0.00    -0.309 OA
HETATM   27  C   UNL     1      -3.217   8.385 -30.140  1.00  0.00     0.215 C 
ENDBRANCH  23  26
ENDBRANCH  19  22
ENDBRANCH  15  16
ENDBRANCH   1  15
TORSDOF 6
ENDMDL
MODEL 7
REMARK VINA RESULT:      -7.2     16.273     18.516
REMARK  6 active torsions:
REMARK  status: ('A' for Active; 'I' for Inactive)
REMARK    1  A    between atoms: C_2  and  N_3 
REMARK    2  A    between atoms: C_2  and  C_18 
REMARK    3  A    between atoms: N_3  and  C_6 
REMARK    4  A    between atoms: C_6  and  C_7 
REMARK    5  A    between atoms: C_10  and  N_11 
REMARK       I    between atoms: N_11  and  C_12 
REMARK    6  A    between atoms: C_12  and  O_13 
ROOT
HETATM    1  N   UNL     1      -3.481 -12.466 -39.505  1.00  0.00    -0.061 N 
HETATM    2  H   UNL     1      -2.887 -11.630 -39.535  1.00  0.00     0.278 HD
HETATM    3  H   UNL     1      -4.032 -12.477 -40.376  1.00  0.00     0.278 HD
ENDROOT
BRANCH   1   4
HETATM    4  C   UNL     1      -2.656 -13.732 -39.513  1.00  0.00     0.241 C 
HETATM    5  C   UNL     1      -1.214 -13.330 -39.212  1.00  0.00     0.047 C 
BRANCH   4   6
HETATM    6  C   UNL     1      -2.754 -14.420 -40.850  1.00  0.00     0.106 A 
HETATM    7  S   UNL     1      -1.880 -15.852 -41.179  1.00  0.00    -0.070 SA
HETATM    8  C   UNL     1      -2.605 -15.933 -42.740  1.00  0.00     0.035 A 
HETATM    9  C   UNL     1      -3.473 -14.848 -42.896  1.00  0.00     0.075 A 
HETATM   10  C   UNL     1      -2.423 -16.890 -43.750  1.00  0.00     0.021 A 
HETATM   11  N   UNL     1      -3.555 -13.992 -41.804  1.00  0.00    -0.243 NA
HETATM   12  C   UNL     1      -4.183 -14.717 -44.106  1.00  0.00     0.033 A 
HETATM   13  C   UNL     1      -4.010 -15.667 -45.118  1.00  0.00     0.002 A 
HETATM   14  C   UNL     1      -3.141 -16.738 -44.939  1.00  0.00     0.002 A 
ENDBRANCH   4   6
ENDBRANCH   1   4
BRANCH   1  15
HETATM   15  C   UNL     1      -4.448 -12.343 -38.377  1.00  0.00     0.271 C 
BRANCH  15  16
HETATM   16  C   UNL     1      -5.866 -12.447 -38.863  1.00  0.00    -0.033 A 
HETATM   17  C   UNL     1      -6.175 -12.267 -40.219  1.00  0.00     0.011 A 
HETATM   18  C   UNL     1      -7.500 -12.336 -40.669  1.00  0.00     0.030 A 
HETATM   19  C   UNL     1      -8.542 -12.600 -39.779  1.00  0.00     0.036 A 
HETATM   20  C   UNL     1      -8.228 -12.808 -38.431  1.00  0.00     0.030 A 
HETATM   21  C   UNL     1      -6.908 -12.727 -37.974  1.00  0.00     0.011 A 
BRANCH  19  22
HETATM   22  N   UNL     1      -9.898 -12.693 -40.132  1.00  0.00    -0.303 N 
HETATM   23  C   UNL     1     -10.725 -13.764 -40.344  1.00  0.00     0.364 C 
HETATM   24  O   UNL     1     -11.908 -13.580 -40.615  1.00  0.00    -0.238 OA
HETATM   25  H   UNL     1     -10.400 -11.827 -40.286  1.00  0.00     0.171 HD
BRANCH  23  26
HETATM   26  O   UNL     1     -10.139 -14.983 -40.273  1.00  0.00    -0.309 OA
HETATM   27  C   UNL     1     -10.712 -15.956 -41.151  1.00  0.00     0.215 C 
ENDBRANCH  23  26
ENDBRANCH  19  22
ENDBRANCH  15  16
ENDBRANCH   1  15
TORSDOF 6
ENDMDL
MODEL 8
REMARK VINA RESULT:      -7.1      4.306      9.276
REMARK  6 active torsions:
REMARK  status: ('A' for Active; 'I' for Inactive)
REMARK    1  A    between atoms: C_2  and  N_3 
REMARK    2  A    between atoms: C_2  and  C_18 
REMARK    3  A    between atoms: N_3  and  C_6 
REMARK    4  A    between atoms: C_6  and  C_7 
REMARK    5  A    between atoms: C_10  and  N_11 
REMARK       I    between atoms: N_11  and  C_12 
REMARK    6  A    between atoms: C_12  and  O_13 
ROOT
HETATM    1  N   UNL     1      -3.278   3.083 -31.081  1.00  0.00    -0.061 N 
HETATM    2  H   UNL     1      -2.676   2.363 -31.494  1.00  0.00     0.278 HD
HETATM    3  H   UNL     1      -2.912   3.279 -30.138  1.00  0.00     0.278 HD
ENDROOT
BRANCH   1   4
HETATM    4  C   UNL     1      -3.192   4.383 -31.846  1.00  0.00     0.241 C 
HETATM    5  C   UNL     1      -2.430   4.095 -33.137  1.00  0.00     0.047 C 
BRANCH   4   6
HETATM    6  C   UNL     1      -2.486   5.433 -31.028  1.00  0.00     0.106 A 
HETATM    7  S   UNL     1      -3.352   6.692 -30.260  1.00  0.00    -0.070 SA
HETATM    8  C   UNL     1      -1.884   7.281 -29.577  1.00  0.00     0.035 A 
HETATM    9  C   UNL     1      -0.828   6.463 -29.989  1.00  0.00     0.075 A 
HETATM   10  C   UNL     1      -1.682   8.384 -28.734  1.00  0.00     0.021 A 
HETATM   11  N   UNL     1      -1.186   5.403 -30.815  1.00  0.00    -0.243 NA
HETATM   12  C   UNL     1       0.475   6.758 -29.542  1.00  0.00     0.033 A 
HETATM   13  C   UNL     1       0.685   7.855 -28.699  1.00  0.00     0.002 A 
HETATM   14  C   UNL     1      -0.381   8.656 -28.302  1.00  0.00     0.002 A 
ENDBRANCH   4   6
ENDBRANCH   1   4
BRANCH   1  15
HETATM   15  C   UNL     1      -4.655   2.534 -30.910  1.00  0.00     0.271 C 
BRANCH  15  16
HETATM   16  C   UNL     1      -4.874   1.337 -31.792  1.00  0.00    -0.033 A 
HETATM   17  C   UNL     1      -3.792   0.686 -32.401  1.00  0.00     0.011 A 
HETATM   18  C   UNL     1      -3.999  -0.413 -33.246  1.00  0.00     0.030 A 
HETATM   19  C   UNL     1      -5.286  -0.892 -33.491  1.00  0.00     0.036 A 
HETATM   20  C   UNL     1      -6.362  -0.258 -32.858  1.00  0.00     0.030 A 
HETATM   21  C   UNL     1      -6.163   0.848 -32.025  1.00  0.00     0.011 A 
BRANCH  19  22
HETATM   22  N   UNL     1      -5.595  -1.985 -34.316  1.00  0.00    -0.303 N 
HETATM   23  C   UNL     1      -5.051  -3.237 -34.432  1.00  0.00     0.364 C 
HETATM   24  O   UNL     1      -5.534  -4.043 -35.222  1.00  0.00    -0.238 OA
HETATM   25  H   UNL     1      -6.349  -1.867 -34.982  1.00  0.00     0.171 HD
BRANCH  23  26
HETATM   26  O   UNL     1      -3.961  -3.478 -33.665  1.00  0.00    -0.309 OA
HETATM   27  C   UNL     1      -3.549  -4.848 -33.654  1.00  0.00     0.215 C 
ENDBRANCH  23  26
ENDBRANCH  19  22
ENDBRANCH  15  16
ENDBRANCH   1  15
TORSDOF 6
ENDMDL
MODEL 9
REMARK VINA RESULT:      -7.1     15.976     17.273
REMARK  6 active torsions:
REMARK  status: ('A' for Active; 'I' for Inactive)
REMARK    1  A    between atoms: C_2  and  N_3 
REMARK    2  A    between atoms: C_2  and  C_18 
REMARK    3  A    between atoms: N_3  and  C_6 
REMARK    4  A    between atoms: C_6  and  C_7 
REMARK    5  A    between atoms: C_10  and  N_11 
REMARK       I    between atoms: N_11  and  C_12 
REMARK    6  A    between atoms: C_12  and  O_13 
ROOT
HETATM    1  N   UNL     1      -7.247 -12.636 -37.482  1.00  0.00    -0.061 N 
HETATM    2  H   UNL     1      -6.775 -12.178 -36.694  1.00  0.00     0.278 HD
HETATM    3  H   UNL     1      -8.229 -12.323 -37.469  1.00  0.00     0.278 HD
ENDROOT
BRANCH   1   4
HETATM    4  C   UNL     1      -6.677 -12.184 -38.806  1.00  0.00     0.241 C 
HETATM    5  C   UNL     1      -7.569 -12.762 -39.901  1.00  0.00     0.047 C 
BRANCH   4   6
HETATM    6  C   UNL     1      -5.256 -12.662 -38.962  1.00  0.00     0.106 A 
HETATM    7  S   UNL     1      -4.804 -13.704 -40.239  1.00  0.00    -0.070 SA
HETATM    8  C   UNL     1      -3.167 -13.644 -39.705  1.00  0.00     0.035 A 
HETATM    9  C   UNL     1      -3.085 -12.822 -38.578  1.00  0.00     0.075 A 
HETATM   10  C   UNL     1      -2.038 -14.276 -40.247  1.00  0.00     0.021 A 
HETATM   11  N   UNL     1      -4.287 -12.259 -38.165  1.00  0.00    -0.243 NA
HETATM   12  C   UNL     1      -1.828 -12.624 -37.972  1.00  0.00     0.033 A 
HETATM   13  C   UNL     1      -0.696 -13.248 -38.507  1.00  0.00     0.002 A 
HETATM   14  C   UNL     1      -0.802 -14.062 -39.630  1.00  0.00     0.002 A 
ENDBRANCH   4   6
ENDBRANCH   1   4
BRANCH   1  15
HETATM   15  C   UNL     1      -7.254 -14.111 -37.261  1.00  0.00     0.271 C 
BRANCH  15  16
HETATM   16  C   UNL     1      -7.008 -14.445 -35.817  1.00  0.00    -0.033 A 
HETATM   17  C   UNL     1      -7.030 -15.775 -35.374  1.00  0.00     0.011 A 
HETATM   18  C   UNL     1      -6.828 -16.084 -34.022  1.00  0.00     0.030 A 
HETATM   19  C   UNL     1      -6.587 -15.076 -33.088  1.00  0.00     0.036 A 
HETATM   20  C   UNL     1      -6.537 -13.752 -33.538  1.00  0.00     0.030 A 
HETATM   21  C   UNL     1      -6.751 -13.435 -34.884  1.00  0.00     0.011 A 
BRANCH  19  22
HETATM   22  N   UNL     1      -6.370 -15.285 -31.716  1.00  0.00    -0.303 N 
HETATM   23  C   UNL     1      -5.231 -15.494 -30.983  1.00  0.00     0.364 C 
HETATM   24  O   UNL     1      -5.302 -15.617 -29.764  1.00  0.00    -0.238 OA
HETATM   25  H   UNL     1      -7.183 -15.309 -31.114  1.00  0.00     0.171 HD
BRANCH  23  26
HETATM   26  O   UNL     1      -4.083 -15.592 -31.695  1.00  0.00    -0.309 OA
HETATM   27  C   UNL     1      -2.926 -15.863 -30.900  1.00  0.00     0.215 C 
ENDBRANCH  23  26
ENDBRANCH  19  22
ENDBRANCH  15  16
ENDBRANCH   1  15
TORSDOF 6
ENDMDL
MODEL 10
REMARK VINA RESULT:      -7.0      4.033      7.794
REMARK  6 active torsions:
REMARK  status: ('A' for Active; 'I' for Inactive)
REMARK    1  A    between atoms: C_2  and  N_3 
REMARK    2  A    between atoms: C_2  and  C_18 
REMARK    3  A    between atoms: N_3  and  C_6 
REMARK    4  A    between atoms: C_6  and  C_7 
REMARK    5  A    between atoms: C_10  and  N_11 
REMARK       I    between atoms: N_11  and  C_12 
REMARK    6  A    between atoms: C_12  and  O_13 
ROOT
HETATM    1  N   UNL     1      -8.191   3.310 -33.115  1.00  0.00    -0.061 N 
HETATM    2  H   UNL     1      -9.162   3.031 -33.297  1.00  0.00     0.278 HD
HETATM    3  H   UNL     1      -7.627   2.979 -33.912  1.00  0.00     0.278 HD
ENDROOT
BRANCH   1   4
HETATM    4  C   UNL     1      -8.042   4.813 -33.089  1.00  0.00     0.241 C 
HETATM    5  C   UNL     1      -8.924   5.372 -34.203  1.00  0.00     0.047 C 
BRANCH   4   6
HETATM    6  C   UNL     1      -6.602   5.207 -33.295  1.00  0.00     0.106 A 
HETATM    7  S   UNL     1      -5.792   6.226 -32.187  1.00  0.00    -0.070 SA
HETATM    8  C   UNL     1      -4.343   6.067 -33.104  1.00  0.00     0.035 A 
HETATM    9  C   UNL     1      -4.586   5.237 -34.202  1.00  0.00     0.075 A 
HETATM   10  C   UNL     1      -3.081   6.633 -32.867  1.00  0.00     0.021 A 
HETATM   11  N   UNL     1      -5.883   4.744 -34.297  1.00  0.00    -0.243 NA
HETATM   12  C   UNL     1      -3.530   4.962 -35.093  1.00  0.00     0.033 A 
HETATM   13  C   UNL     1      -2.268   5.520 -34.863  1.00  0.00     0.002 A 
HETATM   14  C   UNL     1      -2.049   6.343 -33.764  1.00  0.00     0.002 A 
ENDBRANCH   4   6
ENDBRANCH   1   4
BRANCH   1  15
HETATM   15  C   UNL     1      -7.694   2.598 -31.902  1.00  0.00     0.271 C 
BRANCH  15  16
HETATM   16  C   UNL     1      -6.890   1.385 -32.276  1.00  0.00    -0.033 A 
HETATM   17  C   UNL     1      -6.518   0.444 -31.306  1.00  0.00     0.011 A 
HETATM   18  C   UNL     1      -5.745  -0.673 -31.649  1.00  0.00     0.030 A 
HETATM   19  C   UNL     1      -5.338  -0.882 -32.967  1.00  0.00     0.036 A 
HETATM   20  C   UNL     1      -5.736   0.044 -33.939  1.00  0.00     0.030 A 
HETATM   21  C   UNL     1      -6.496   1.169 -33.600  1.00  0.00     0.011 A 
BRANCH  19  22
HETATM   22  N   UNL     1      -4.568  -1.969 -33.410  1.00  0.00    -0.303 N 
HETATM   23  C   UNL     1      -4.836  -3.001 -34.270  1.00  0.00     0.364 C 
HETATM   24  O   UNL     1      -3.964  -3.825 -34.528  1.00  0.00    -0.238 OA
HETATM   25  H   UNL     1      -3.631  -2.058 -33.037  1.00  0.00     0.171 HD
BRANCH  23  26
HETATM   26  O   UNL     1      -6.101  -3.051 -34.753  1.00  0.00    -0.309 OA
HETATM   27  C   UNL     1      -6.587  -4.377 -34.974  1.00  0.00     0.215 C 
ENDBRANCH  23  26
ENDBRANCH  19  22
ENDBRANCH  15  16
ENDBRANCH   1  15
TORSDOF 6
ENDMDL
