MODEL 1
REMARK VINA RESULT:      -9.2      0.000      0.000
REMARK  13 active torsions:
REMARK  status: ('A' for Active; 'I' for Inactive)
REMARK    1  A    between atoms: O_2  and  C_3 
REMARK    2  A    between atoms: C_6  and  C_7 
REMARK    3  A    between atoms: C_7  and  C_8 
REMARK    4  A    between atoms: C_9  and  C_10 
REMARK    5  A    between atoms: N_17  and  C_18 
REMARK    6  A    between atoms: C_18  and  C_19 
REMARK    7  A    between atoms: C_19  and  O_20 
REMARK    8  A    between atoms: C_19  and  C_21 
REMARK    9  A    between atoms: C_21  and  N_22 
REMARK   10  A    between atoms: N_22  and  C_25 
REMARK   11  A    between atoms: C_25  and  C_26 
REMARK   12  A    between atoms: C_26  and  C_27 
REMARK   13  A    between atoms: C_32  and  O_33 
ROOT
HETATM    1  C   UNL     1      -4.262   1.075 -32.535  1.00  0.00     0.162 C 
ENDROOT
BRANCH   1   2
HETATM    2  N   UNL     1      -5.386   0.373 -33.136  1.00  0.00    -0.353 N 
HETATM    3  C   UNL     1      -5.350  -0.885 -33.700  1.00  0.00     0.045 A 
HETATM    4  C   UNL     1      -6.670  -1.221 -34.029  1.00  0.00     0.002 A 
HETATM    5  C   UNL     1      -4.280  -1.763 -33.940  1.00  0.00     0.030 A 
HETATM    6  C   UNL     1      -7.481  -0.084 -33.723  1.00  0.00    -0.008 A 
HETATM    7  C   UNL     1      -6.921  -2.508 -34.556  1.00  0.00     0.014 A 
HETATM    8  C   UNL     1      -6.664   0.869 -33.155  1.00  0.00     0.103 A 
HETATM    9  C   UNL     1      -5.862  -3.391 -34.782  1.00  0.00     0.001 A 
HETATM   10  C   UNL     1      -4.558  -3.017 -34.488  1.00  0.00     0.002 A 
BRANCH   6  11
HETATM   11  C   UNL     1      -8.880   0.123 -33.930  1.00  0.00     0.018 C 
HETATM   12  C   UNL     1      -9.815   0.057 -32.968  1.00  0.00     0.056 C 
BRANCH  12  13
HETATM   13  C   UNL     1     -11.245   0.307 -33.290  1.00  0.00     0.182 C 
HETATM   14  O   UNL     1     -12.083  -0.580 -33.149  1.00  0.00    -0.288 OA
BRANCH  13  15
HETATM   15  C   UNL     1     -11.642   1.638 -33.845  1.00  0.00     0.014 A 
HETATM   16  C   UNL     1     -11.508   2.847 -33.147  1.00  0.00     0.018 A 
HETATM   17  C   UNL     1     -11.841   4.065 -33.757  1.00  0.00     0.037 A 
HETATM   18  C   UNL     1     -12.319   4.092 -35.066  1.00  0.00     0.068 A 
HETATM   19  C   UNL     1     -12.495   2.888 -35.749  1.00  0.00     0.037 A 
HETATM   20  C   UNL     1     -12.157   1.672 -35.147  1.00  0.00     0.018 A 
BRANCH  18  21
HETATM   21  O   UNL     1     -12.659   5.212 -35.771  1.00  0.00    -0.356 OA
HETATM   22  C   UNL     1     -13.513   6.145 -35.118  1.00  0.00     0.210 C 
ENDBRANCH  18  21
ENDBRANCH  13  15
ENDBRANCH  12  13
ENDBRANCH   6  11
ENDBRANCH   1   2
BRANCH   1  23
HETATM   23  C   UNL     1      -4.074   0.802 -31.031  1.00  0.00     0.162 C 
BRANCH  23  24
HETATM   24  O   UNL     1      -3.213  -0.325 -30.769  1.00  0.00    -0.392 OA
HETATM   25  H   UNL     1      -2.599  -0.423 -31.524  1.00  0.00     0.210 HD
ENDBRANCH  23  24
BRANCH  23  26
HETATM   26  C   UNL     1      -5.382   0.561 -30.253  1.00  0.00     0.265 C 
BRANCH  26  27
HETATM   27  N   UNL     1      -5.678   1.817 -29.471  1.00  0.00    -0.072 N 
HETATM   28  H   UNL     1      -6.199   1.505 -28.631  1.00  0.00     0.277 HD
HETATM   29  H   UNL     1      -4.800   2.195 -29.095  1.00  0.00     0.277 HD
BRANCH  27  30
HETATM   30  C   UNL     1      -6.404   2.903 -30.193  1.00  0.00     0.237 C 
BRANCH  30  31
HETATM   31  C   UNL     1      -5.574   4.183 -30.310  1.00  0.00     0.068 C 
BRANCH  31  32
HETATM   32  C   UNL     1      -5.223   4.459 -31.735  1.00  0.00    -0.029 A 
HETATM   33  C   UNL     1      -3.905   4.654 -32.259  1.00  0.00     0.001 A 
HETATM   34  C   UNL     1      -4.032   4.924 -33.620  1.00  0.00     0.043 A 
HETATM   35  C   UNL     1      -2.612   4.637 -31.698  1.00  0.00     0.051 A 
HETATM   36  C   UNL     1      -2.930   5.186 -34.442  1.00  0.00     0.033 A 
HETATM   37  N   UNL     1      -5.372   4.865 -33.923  1.00  0.00    -0.365 N 
HETATM   38  C   UNL     1      -1.658   5.172 -33.856  1.00  0.00     0.039 A 
HETATM   39  C   UNL     1      -1.492   4.897 -32.501  1.00  0.00     0.069 A 
HETATM   40  H   UNL     1      -5.756   5.003 -34.849  1.00  0.00     0.165 HD
HETATM   41  C   UNL     1      -6.099   4.595 -32.792  1.00  0.00     0.096 A 
BRANCH  39  42
HETATM   42  O   UNL     1      -0.302   4.860 -31.825  1.00  0.00    -0.356 OA
HETATM   43  C   UNL     1      -0.325   5.268 -30.461  1.00  0.00     0.210 C 
ENDBRANCH  39  42
ENDBRANCH  31  32
ENDBRANCH  30  31
ENDBRANCH  27  30
ENDBRANCH  26  27
ENDBRANCH  23  26
ENDBRANCH   1  23
TORSDOF 13
ENDMDL
MODEL 2
REMARK VINA RESULT:      -9.1      2.299      7.614
REMARK  13 active torsions:
REMARK  status: ('A' for Active; 'I' for Inactive)
REMARK    1  A    between atoms: O_2  and  C_3 
REMARK    2  A    between atoms: C_6  and  C_7 
REMARK    3  A    between atoms: C_7  and  C_8 
REMARK    4  A    between atoms: C_9  and  C_10 
REMARK    5  A    between atoms: N_17  and  C_18 
REMARK    6  A    between atoms: C_18  and  C_19 
REMARK    7  A    between atoms: C_19  and  O_20 
REMARK    8  A    between atoms: C_19  and  C_21 
REMARK    9  A    between atoms: C_21  and  N_22 
REMARK   10  A    between atoms: N_22  and  C_25 
REMARK   11  A    between atoms: C_25  and  C_26 
REMARK   12  A    between atoms: C_26  and  C_27 
REMARK   13  A    between atoms: C_32  and  O_33 
ROOT
HETATM    1  C   UNL     1      -4.572   7.735 -31.177  1.00  0.00     0.162 C 
ENDROOT
BRANCH   1   2
HETATM    2  N   UNL     1      -4.425   6.747 -32.235  1.00  0.00    -0.353 N 
HETATM    3  C   UNL     1      -3.297   6.541 -33.002  1.00  0.00     0.045 A 
HETATM    4  C   UNL     1      -3.546   5.413 -33.796  1.00  0.00     0.002 A 
HETATM    5  C   UNL     1      -2.076   7.234 -33.061  1.00  0.00     0.030 A 
HETATM    6  C   UNL     1      -4.893   5.010 -33.540  1.00  0.00    -0.008 A 
HETATM    7  C   UNL     1      -2.506   4.937 -34.626  1.00  0.00     0.014 A 
HETATM    8  C   UNL     1      -5.396   5.836 -32.560  1.00  0.00     0.103 A 
HETATM    9  C   UNL     1      -1.284   5.614 -34.676  1.00  0.00     0.001 A 
HETATM   10  C   UNL     1      -1.078   6.754 -33.912  1.00  0.00     0.002 A 
BRANCH   6  11
HETATM   11  C   UNL     1      -5.662   3.963 -34.137  1.00  0.00     0.018 C 
HETATM   12  C   UNL     1      -5.843   2.744 -33.600  1.00  0.00     0.056 C 
BRANCH  12  13
HETATM   13  C   UNL     1      -6.678   1.732 -34.298  1.00  0.00     0.182 C 
HETATM   14  O   UNL     1      -7.740   2.053 -34.827  1.00  0.00    -0.288 OA
BRANCH  13  15
HETATM   15  C   UNL     1      -6.238   0.302 -34.299  1.00  0.00     0.014 A 
HETATM   16  C   UNL     1      -5.145  -0.179 -33.565  1.00  0.00     0.018 A 
HETATM   17  C   UNL     1      -4.830  -1.546 -33.563  1.00  0.00     0.037 A 
HETATM   18  C   UNL     1      -5.596  -2.447 -34.300  1.00  0.00     0.068 A 
HETATM   19  C   UNL     1      -6.658  -1.967 -35.067  1.00  0.00     0.037 A 
HETATM   20  C   UNL     1      -6.979  -0.606 -35.065  1.00  0.00     0.018 A 
BRANCH  18  21
HETATM   21  O   UNL     1      -5.401  -3.798 -34.363  1.00  0.00    -0.356 OA
HETATM   22  C   UNL     1      -6.391  -4.556 -35.049  1.00  0.00     0.210 C 
ENDBRANCH  18  21
ENDBRANCH  13  15
ENDBRANCH  12  13
ENDBRANCH   6  11
ENDBRANCH   1   2
BRANCH   1  23
HETATM   23  C   UNL     1      -4.412   7.170 -29.753  1.00  0.00     0.162 C 
BRANCH  23  24
HETATM   24  O   UNL     1      -3.574   5.997 -29.706  1.00  0.00    -0.392 OA
HETATM   25  H   UNL     1      -2.832   6.126 -30.330  1.00  0.00     0.210 HD
ENDBRANCH  23  24
BRANCH  23  26
HETATM   26  C   UNL     1      -5.737   6.807 -29.054  1.00  0.00     0.265 C 
BRANCH  26  27
HETATM   27  N   UNL     1      -5.904   5.311 -29.155  1.00  0.00    -0.072 N 
HETATM   28  H   UNL     1      -5.505   5.049 -30.075  1.00  0.00     0.277 HD
HETATM   29  H   UNL     1      -5.283   4.857 -28.475  1.00  0.00     0.277 HD
BRANCH  27  30
HETATM   30  C   UNL     1      -7.286   4.776 -28.984  1.00  0.00     0.237 C 
BRANCH  30  31
HETATM   31  C   UNL     1      -7.991   4.540 -30.321  1.00  0.00     0.068 C 
BRANCH  31  32
HETATM   32  C   UNL     1      -8.011   3.086 -30.661  1.00  0.00    -0.029 A 
HETATM   33  C   UNL     1      -8.941   2.434 -31.531  1.00  0.00     0.001 A 
HETATM   34  C   UNL     1      -8.628   1.076 -31.537  1.00  0.00     0.043 A 
HETATM   35  C   UNL     1     -10.032   2.871 -32.310  1.00  0.00     0.051 A 
HETATM   36  C   UNL     1      -9.357   0.137 -32.275  1.00  0.00     0.033 A 
HETATM   37  N   UNL     1      -7.529   0.909 -30.727  1.00  0.00    -0.365 N 
HETATM   38  C   UNL     1     -10.443   0.599 -33.031  1.00  0.00     0.039 A 
HETATM   39  C   UNL     1     -10.779   1.950 -33.057  1.00  0.00     0.069 A 
HETATM   40  H   UNL     1      -7.071   0.022 -30.560  1.00  0.00     0.165 HD
HETATM   41  C   UNL     1      -7.155   2.113 -30.186  1.00  0.00     0.096 A 
BRANCH  39  42
HETATM   42  O   UNL     1     -11.816   2.510 -33.755  1.00  0.00    -0.356 OA
HETATM   43  C   UNL     1     -11.716   3.900 -34.048  1.00  0.00     0.210 C 
ENDBRANCH  39  42
ENDBRANCH  31  32
ENDBRANCH  30  31
ENDBRANCH  27  30
ENDBRANCH  26  27
ENDBRANCH  23  26
ENDBRANCH   1  23
TORSDOF 13
ENDMDL
MODEL 3
REMARK VINA RESULT:      -8.9      2.716      8.140
REMARK  13 active torsions:
REMARK  status: ('A' for Active; 'I' for Inactive)
REMARK    1  A    between atoms: O_2  and  C_3 
REMARK    2  A    between atoms: C_6  and  C_7 
REMARK    3  A    between atoms: C_7  and  C_8 
REMARK    4  A    between atoms: C_9  and  C_10 
REMARK    5  A    between atoms: N_17  and  C_18 
REMARK    6  A    between atoms: C_18  and  C_19 
REMARK    7  A    between atoms: C_19  and  O_20 
REMARK    8  A    between atoms: C_19  and  C_21 
REMARK    9  A    between atoms: C_21  and  N_22 
REMARK   10  A    between atoms: N_22  and  C_25 
REMARK   11  A    between atoms: C_25  and  C_26 
REMARK   12  A    between atoms: C_26  and  C_27 
REMARK   13  A    between atoms: C_32  and  O_33 
ROOT
HETATM    1  C   UNL     1      -9.190   4.634 -32.046  1.00  0.00     0.162 C 
ENDROOT
BRANCH   1   2
HETATM    2  N   UNL     1      -8.071   3.999 -32.725  1.00  0.00    -0.353 N 
HETATM    3  C   UNL     1      -8.125   2.834 -33.462  1.00  0.00     0.045 A 
HETATM    4  C   UNL     1      -6.862   2.662 -34.044  1.00  0.00     0.002 A 
HETATM    5  C   UNL     1      -9.172   1.921 -33.679  1.00  0.00     0.030 A 
HETATM    6  C   UNL     1      -6.029   3.717 -33.558  1.00  0.00    -0.008 A 
HETATM    7  C   UNL     1      -6.674   1.571 -34.923  1.00  0.00     0.014 A 
HETATM    8  C   UNL     1      -6.809   4.532 -32.768  1.00  0.00     0.103 A 
HETATM    9  C   UNL     1      -7.717   0.670 -35.155  1.00  0.00     0.001 A 
HETATM   10  C   UNL     1      -8.944   0.838 -34.531  1.00  0.00     0.002 A 
BRANCH   6  11
HETATM   11  C   UNL     1      -4.640   3.964 -33.787  1.00  0.00     0.018 C 
HETATM   12  C   UNL     1      -4.108   5.173 -34.033  1.00  0.00     0.056 C 
BRANCH  12  13
HETATM   13  C   UNL     1      -2.643   5.321 -34.241  1.00  0.00     0.182 C 
HETATM   14  O   UNL     1      -2.138   5.076 -35.334  1.00  0.00    -0.288 OA
BRANCH  13  15
HETATM   15  C   UNL     1      -1.781   5.716 -33.083  1.00  0.00     0.014 A 
HETATM   16  C   UNL     1      -1.230   6.995 -32.921  1.00  0.00     0.018 A 
HETATM   17  C   UNL     1      -0.485   7.312 -31.776  1.00  0.00     0.037 A 
HETATM   18  C   UNL     1      -0.274   6.356 -30.783  1.00  0.00     0.068 A 
HETATM   19  C   UNL     1      -0.784   5.070 -30.962  1.00  0.00     0.037 A 
HETATM   20  C   UNL     1      -1.534   4.752 -32.098  1.00  0.00     0.018 A 
BRANCH  18  21
HETATM   21  O   UNL     1       0.415   6.550 -29.620  1.00  0.00    -0.356 OA
HETATM   22  C   UNL     1      -0.330   6.452 -28.411  1.00  0.00     0.210 C 
ENDBRANCH  18  21
ENDBRANCH  13  15
ENDBRANCH  12  13
ENDBRANCH   6  11
ENDBRANCH   1   2
BRANCH   1  23
HETATM   23  C   UNL     1      -9.319   4.268 -30.555  1.00  0.00     0.162 C 
BRANCH  23  24
HETATM   24  O   UNL     1      -8.674   5.220 -29.686  1.00  0.00    -0.392 OA
HETATM   25  H   UNL     1      -8.479   4.776 -28.836  1.00  0.00     0.210 HD
ENDBRANCH  23  24
BRANCH  23  26
HETATM   26  C   UNL     1      -8.771   2.876 -30.186  1.00  0.00     0.265 C 
BRANCH  26  27
HETATM   27  N   UNL     1      -7.516   3.086 -29.375  1.00  0.00    -0.072 N 
HETATM   28  H   UNL     1      -7.410   4.114 -29.290  1.00  0.00     0.277 HD
HETATM   29  H   UNL     1      -7.682   2.772 -28.412  1.00  0.00     0.277 HD
BRANCH  27  30
HETATM   30  C   UNL     1      -6.269   2.447 -29.887  1.00  0.00     0.237 C 
BRANCH  30  31
HETATM   31  C   UNL     1      -6.532   1.081 -30.523  1.00  0.00     0.068 C 
BRANCH  31  32
HETATM   32  C   UNL     1      -5.348   0.624 -31.309  1.00  0.00    -0.029 A 
HETATM   33  C   UNL     1      -5.341  -0.395 -32.315  1.00  0.00     0.001 A 
HETATM   34  C   UNL     1      -4.029  -0.532 -32.763  1.00  0.00     0.043 A 
HETATM   35  C   UNL     1      -6.332  -1.223 -32.881  1.00  0.00     0.051 A 
HETATM   36  C   UNL     1      -3.661  -1.462 -33.741  1.00  0.00     0.033 A 
HETATM   37  N   UNL     1      -3.268   0.388 -32.081  1.00  0.00    -0.365 N 
HETATM   38  C   UNL     1      -4.663  -2.280 -34.279  1.00  0.00     0.039 A 
HETATM   39  C   UNL     1      -5.987  -2.164 -33.862  1.00  0.00     0.069 A 
HETATM   40  H   UNL     1      -2.275   0.525 -32.220  1.00  0.00     0.165 HD
HETATM   41  C   UNL     1      -4.051   1.083 -31.195  1.00  0.00     0.096 A 
BRANCH  39  42
HETATM   42  O   UNL     1      -7.043  -2.909 -34.314  1.00  0.00    -0.356 OA
HETATM   43  C   UNL     1      -6.742  -4.199 -34.837  1.00  0.00     0.210 C 
ENDBRANCH  39  42
ENDBRANCH  31  32
ENDBRANCH  30  31
ENDBRANCH  27  30
ENDBRANCH  26  27
ENDBRANCH  23  26
ENDBRANCH   1  23
TORSDOF 13
ENDMDL
MODEL 4
REMARK VINA RESULT:      -8.8      2.324      2.876
REMARK  13 active torsions:
REMARK  status: ('A' for Active; 'I' for Inactive)
REMARK    1  A    between atoms: O_2  and  C_3 
REMARK    2  A    between atoms: C_6  and  C_7 
REMARK    3  A    between atoms: C_7  and  C_8 
REMARK    4  A    between atoms: C_9  and  C_10 
REMARK    5  A    between atoms: N_17  and  C_18 
REMARK    6  A    between atoms: C_18  and  C_19 
REMARK    7  A    between atoms: C_19  and  O_20 
REMARK    8  A    between atoms: C_19  and  C_21 
REMARK    9  A    between atoms: C_21  and  N_22 
REMARK   10  A    between atoms: N_22  and  C_25 
REMARK   11  A    between atoms: C_25  and  C_26 
REMARK   12  A    between atoms: C_26  and  C_27 
REMARK   13  A    between atoms: C_32  and  O_33 
ROOT
HETATM    1  C   UNL     1      -6.643   0.428 -30.084  1.00  0.00     0.162 C 
ENDROOT
BRANCH   1   2
HETATM    2  N   UNL     1      -7.300   0.259 -31.371  1.00  0.00    -0.353 N 
HETATM    3  C   UNL     1      -6.742  -0.308 -32.498  1.00  0.00     0.045 A 
HETATM    4  C   UNL     1      -7.760  -0.391 -33.458  1.00  0.00     0.002 A 
HETATM    5  C   UNL     1      -5.439  -0.765 -32.758  1.00  0.00     0.030 A 
HETATM    6  C   UNL     1      -8.919   0.226 -32.894  1.00  0.00    -0.008 A 
HETATM    7  C   UNL     1      -7.466  -1.014 -34.692  1.00  0.00     0.014 A 
HETATM    8  C   UNL     1      -8.609   0.594 -31.603  1.00  0.00     0.103 A 
HETATM    9  C   UNL     1      -6.176  -1.486 -34.949  1.00  0.00     0.001 A 
HETATM   10  C   UNL     1      -5.174  -1.351 -33.998  1.00  0.00     0.002 A 
BRANCH   6  11
HETATM   11  C   UNL     1     -10.202   0.465 -33.477  1.00  0.00     0.018 C 
HETATM   12  C   UNL     1     -10.488   1.481 -34.308  1.00  0.00     0.056 C 
BRANCH  12  13
HETATM   13  C   UNL     1     -11.856   1.628 -34.873  1.00  0.00     0.182 C 
HETATM   14  O   UNL     1     -12.034   1.625 -36.089  1.00  0.00    -0.288 OA
BRANCH  13  15
HETATM   15  C   UNL     1     -13.008   1.837 -33.942  1.00  0.00     0.014 A 
HETATM   16  C   UNL     1     -13.040   2.826 -32.949  1.00  0.00     0.018 A 
HETATM   17  C   UNL     1     -14.182   3.006 -32.155  1.00  0.00     0.037 A 
HETATM   18  C   UNL     1     -15.302   2.195 -32.336  1.00  0.00     0.068 A 
HETATM   19  C   UNL     1     -15.258   1.181 -33.293  1.00  0.00     0.037 A 
HETATM   20  C   UNL     1     -14.124   1.004 -34.091  1.00  0.00     0.018 A 
BRANCH  18  21
HETATM   21  O   UNL     1     -16.475   2.285 -31.640  1.00  0.00    -0.356 OA
HETATM   22  C   UNL     1     -17.446   3.197 -32.139  1.00  0.00     0.210 C 
ENDBRANCH  18  21
ENDBRANCH  13  15
ENDBRANCH  12  13
ENDBRANCH   6  11
ENDBRANCH   1   2
BRANCH   1  23
HETATM   23  C   UNL     1      -6.243   1.880 -29.761  1.00  0.00     0.162 C 
BRANCH  23  24
HETATM   24  O   UNL     1      -7.378   2.733 -29.510  1.00  0.00    -0.392 OA
HETATM   25  H   UNL     1      -8.117   2.433 -30.078  1.00  0.00     0.210 HD
ENDBRANCH  23  24
BRANCH  23  26
HETATM   26  C   UNL     1      -5.393   2.569 -30.847  1.00  0.00     0.265 C 
BRANCH  26  27
HETATM   27  N   UNL     1      -6.011   3.919 -31.113  1.00  0.00    -0.072 N 
HETATM   28  H   UNL     1      -6.992   3.843 -30.790  1.00  0.00     0.277 HD
HETATM   29  H   UNL     1      -5.592   4.611 -30.481  1.00  0.00     0.277 HD
BRANCH  27  30
HETATM   30  C   UNL     1      -5.932   4.430 -32.513  1.00  0.00     0.237 C 
BRANCH  30  31
HETATM   31  C   UNL     1      -4.850   3.724 -33.332  1.00  0.00     0.068 C 
BRANCH  31  32
HETATM   32  C   UNL     1      -3.784   4.685 -33.744  1.00  0.00    -0.029 A 
HETATM   33  C   UNL     1      -2.597   4.998 -33.008  1.00  0.00     0.001 A 
HETATM   34  C   UNL     1      -1.901   5.967 -33.728  1.00  0.00     0.043 A 
HETATM   35  C   UNL     1      -2.051   4.553 -31.787  1.00  0.00     0.051 A 
HETATM   36  C   UNL     1      -0.695   6.518 -33.280  1.00  0.00     0.033 A 
HETATM   37  N   UNL     1      -2.619   6.215 -34.875  1.00  0.00    -0.365 N 
HETATM   38  C   UNL     1      -0.181   6.064 -32.058  1.00  0.00     0.039 A 
HETATM   39  C   UNL     1      -0.844   5.089 -31.316  1.00  0.00     0.069 A 
HETATM   40  H   UNL     1      -2.337   6.866 -35.597  1.00  0.00     0.165 HD
HETATM   41  C   UNL     1      -3.760   5.454 -34.890  1.00  0.00     0.096 A 
BRANCH  39  42
HETATM   42  O   UNL     1      -0.438   4.576 -30.114  1.00  0.00    -0.356 OA
HETATM   43  C   UNL     1       0.876   4.916 -29.681  1.00  0.00     0.210 C 
ENDBRANCH  39  42
ENDBRANCH  31  32
ENDBRANCH  30  31
ENDBRANCH  27  30
ENDBRANCH  26  27
ENDBRANCH  23  26
ENDBRANCH   1  23
TORSDOF 13
ENDMDL
MODEL 5
REMARK VINA RESULT:      -8.8      1.503      2.136
REMARK  13 active torsions:
REMARK  status: ('A' for Active; 'I' for Inactive)
REMARK    1  A    between atoms: O_2  and  C_3 
REMARK    2  A    between atoms: C_6  and  C_7 
REMARK    3  A    between atoms: C_7  and  C_8 
REMARK    4  A    between atoms: C_9  and  C_10 
REMARK    5  A    between atoms: N_17  and  C_18 
REMARK    6  A    between atoms: C_18  and  C_19 
REMARK    7  A    between atoms: C_19  and  O_20 
REMARK    8  A    between atoms: C_19  and  C_21 
REMARK    9  A    between atoms: C_21  and  N_22 
REMARK   10  A    between atoms: N_22  and  C_25 
REMARK   11  A    between atoms: C_25  and  C_26 
REMARK   12  A    between atoms: C_26  and  C_27 
REMARK   13  A    between atoms: C_32  and  O_33 
ROOT
HETATM    1  C   UNL     1      -4.914   0.731 -31.120  1.00  0.00     0.162 C 
ENDROOT
BRANCH   1   2
HETATM    2  N   UNL     1      -5.843   0.190 -32.101  1.00  0.00    -0.353 N 
HETATM    3  C   UNL     1      -5.576  -0.823 -32.998  1.00  0.00     0.045 A 
HETATM    4  C   UNL     1      -6.781  -1.115 -33.652  1.00  0.00     0.002 A 
HETATM    5  C   UNL     1      -4.390  -1.518 -33.287  1.00  0.00     0.030 A 
HETATM    6  C   UNL     1      -7.753  -0.180 -33.177  1.00  0.00    -0.008 A 
HETATM    7  C   UNL     1      -6.799  -2.183 -34.577  1.00  0.00     0.014 A 
HETATM    8  C   UNL     1      -7.149   0.592 -32.209  1.00  0.00     0.103 A 
HETATM    9  C   UNL     1      -5.624  -2.888 -34.855  1.00  0.00     0.001 A 
HETATM   10  C   UNL     1      -4.434  -2.550 -34.227  1.00  0.00     0.002 A 
BRANCH   6  11
HETATM   11  C   UNL     1      -9.115  -0.000 -33.568  1.00  0.00     0.018 C 
HETATM   12  C   UNL     1     -10.165  -0.033 -32.730  1.00  0.00     0.056 C 
BRANCH  12  13
HETATM   13  C   UNL     1     -11.544   0.185 -33.241  1.00  0.00     0.182 C 
HETATM   14  O   UNL     1     -12.364  -0.730 -33.238  1.00  0.00    -0.288 OA
BRANCH  13  15
HETATM   15  C   UNL     1     -11.903   1.519 -33.815  1.00  0.00     0.014 A 
HETATM   16  C   UNL     1     -11.964   2.702 -33.065  1.00  0.00     0.018 A 
HETATM   17  C   UNL     1     -12.245   3.928 -33.684  1.00  0.00     0.037 A 
HETATM   18  C   UNL     1     -12.476   3.989 -35.057  1.00  0.00     0.068 A 
HETATM   19  C   UNL     1     -12.460   2.808 -35.801  1.00  0.00     0.037 A 
HETATM   20  C   UNL     1     -12.173   1.584 -35.188  1.00  0.00     0.018 A 
BRANCH  18  21
HETATM   21  O   UNL     1     -12.740   5.121 -35.775  1.00  0.00    -0.356 OA
HETATM   22  C   UNL     1     -13.158   6.264 -35.036  1.00  0.00     0.210 C 
ENDBRANCH  18  21
ENDBRANCH  13  15
ENDBRANCH  12  13
ENDBRANCH   6  11
ENDBRANCH   1   2
BRANCH   1  23
HETATM   23  C   UNL     1      -4.331   2.108 -31.489  1.00  0.00     0.162 C 
BRANCH  23  24
HETATM   24  O   UNL     1      -2.913   2.200 -31.244  1.00  0.00    -0.392 OA
HETATM   25  H   UNL     1      -2.777   2.725 -30.429  1.00  0.00     0.210 HD
ENDBRANCH  23  24
BRANCH  23  26
HETATM   26  C   UNL     1      -4.993   3.299 -30.768  1.00  0.00     0.265 C 
BRANCH  26  27
HETATM   27  N   UNL     1      -5.934   3.953 -31.750  1.00  0.00    -0.072 N 
HETATM   28  H   UNL     1      -6.829   3.439 -31.660  1.00  0.00     0.277 HD
HETATM   29  H   UNL     1      -6.156   4.901 -31.422  1.00  0.00     0.277 HD
BRANCH  27  30
HETATM   30  C   UNL     1      -5.482   4.023 -33.170  1.00  0.00     0.237 C 
BRANCH  30  31
HETATM   31  C   UNL     1      -4.990   5.418 -33.559  1.00  0.00     0.068 C 
BRANCH  31  32
HETATM   32  C   UNL     1      -3.499   5.482 -33.528  1.00  0.00    -0.029 A 
HETATM   33  C   UNL     1      -2.693   5.909 -32.424  1.00  0.00     0.001 A 
HETATM   34  C   UNL     1      -1.362   5.853 -32.832  1.00  0.00     0.043 A 
HETATM   35  C   UNL     1      -2.973   6.349 -31.114  1.00  0.00     0.051 A 
HETATM   36  C   UNL     1      -0.302   6.225 -31.997  1.00  0.00     0.033 A 
HETATM   37  N   UNL     1      -1.351   5.380 -34.123  1.00  0.00    -0.365 N 
HETATM   38  C   UNL     1      -0.610   6.669 -30.704  1.00  0.00     0.039 A 
HETATM   39  C   UNL     1      -1.929   6.729 -30.259  1.00  0.00     0.069 A 
HETATM   40  H   UNL     1      -0.513   5.220 -34.667  1.00  0.00     0.165 HD
HETATM   41  C   UNL     1      -2.634   5.163 -34.555  1.00  0.00     0.096 A 
BRANCH  39  42
HETATM   42  O   UNL     1      -2.345   7.147 -29.024  1.00  0.00    -0.356 OA
HETATM   43  C   UNL     1      -1.350   7.688 -28.160  1.00  0.00     0.210 C 
ENDBRANCH  39  42
ENDBRANCH  31  32
ENDBRANCH  30  31
ENDBRANCH  27  30
ENDBRANCH  26  27
ENDBRANCH  23  26
ENDBRANCH   1  23
TORSDOF 13
ENDMDL
MODEL 6
REMARK VINA RESULT:      -8.8      2.435      8.085
REMARK  13 active torsions:
REMARK  status: ('A' for Active; 'I' for Inactive)
REMARK    1  A    between atoms: O_2  and  C_3 
REMARK    2  A    between atoms: C_6  and  C_7 
REMARK    3  A    between atoms: C_7  and  C_8 
REMARK    4  A    between atoms: C_9  and  C_10 
REMARK    5  A    between atoms: N_17  and  C_18 
REMARK    6  A    between atoms: C_18  and  C_19 
REMARK    7  A    between atoms: C_19  and  O_20 
REMARK    8  A    between atoms: C_19  and  C_21 
REMARK    9  A    between atoms: C_21  and  N_22 
REMARK   10  A    between atoms: N_22  and  C_25 
REMARK   11  A    between atoms: C_25  and  C_26 
REMARK   12  A    between atoms: C_26  and  C_27 
REMARK   13  A    between atoms: C_32  and  O_33 
ROOT
HETATM    1  C   UNL     1      -4.284   7.616 -30.578  1.00  0.00     0.162 C 
ENDROOT
BRANCH   1   2
HETATM    2  N   UNL     1      -3.933   6.337 -31.176  1.00  0.00    -0.353 N 
HETATM    3  C   UNL     1      -3.154   6.153 -32.300  1.00  0.00     0.045 A 
HETATM    4  C   UNL     1      -2.963   4.772 -32.440  1.00  0.00     0.002 A 
HETATM    5  C   UNL     1      -2.591   7.074 -33.198  1.00  0.00     0.030 A 
HETATM    6  C   UNL     1      -3.728   4.136 -31.413  1.00  0.00    -0.008 A 
HETATM    7  C   UNL     1      -2.124   4.316 -33.482  1.00  0.00     0.014 A 
HETATM    8  C   UNL     1      -4.293   5.127 -30.642  1.00  0.00     0.103 A 
HETATM    9  C   UNL     1      -1.547   5.229 -34.369  1.00  0.00     0.001 A 
HETATM   10  C   UNL     1      -1.789   6.589 -34.234  1.00  0.00     0.002 A 
BRANCH   6  11
HETATM   11  C   UNL     1      -3.932   2.745 -31.155  1.00  0.00     0.018 C 
HETATM   12  C   UNL     1      -4.435   1.868 -32.039  1.00  0.00     0.056 C 
BRANCH  12  13
HETATM   13  C   UNL     1      -4.590   0.435 -31.671  1.00  0.00     0.182 C 
HETATM   14  O   UNL     1      -4.339   0.051 -30.531  1.00  0.00    -0.288 OA
BRANCH  13  15
HETATM   15  C   UNL     1      -4.999  -0.545 -32.725  1.00  0.00     0.014 A 
HETATM   16  C   UNL     1      -6.091  -0.358 -33.584  1.00  0.00     0.018 A 
HETATM   17  C   UNL     1      -6.377  -1.291 -34.592  1.00  0.00     0.037 A 
HETATM   18  C   UNL     1      -5.581  -2.424 -34.750  1.00  0.00     0.068 A 
HETATM   19  C   UNL     1      -4.519  -2.636 -33.870  1.00  0.00     0.037 A 
HETATM   20  C   UNL     1      -4.228  -1.705 -32.868  1.00  0.00     0.018 A 
BRANCH  18  21
HETATM   21  O   UNL     1      -5.746  -3.390 -35.702  1.00  0.00    -0.356 OA
HETATM   22  C   UNL     1      -6.462  -4.557 -35.312  1.00  0.00     0.210 C 
ENDBRANCH  18  21
ENDBRANCH  13  15
ENDBRANCH  12  13
ENDBRANCH   6  11
ENDBRANCH   1   2
BRANCH   1  23
HETATM   23  C   UNL     1      -5.387   8.387 -31.328  1.00  0.00     0.162 C 
BRANCH  23  24
HETATM   24  O   UNL     1      -5.571   9.728 -30.830  1.00  0.00    -0.392 OA
HETATM   25  H   UNL     1      -4.707  10.056 -30.508  1.00  0.00     0.210 HD
ENDBRANCH  23  24
BRANCH  23  26
HETATM   26  C   UNL     1      -6.769   7.706 -31.314  1.00  0.00     0.265 C 
BRANCH  26  27
HETATM   27  N   UNL     1      -6.980   7.088 -32.674  1.00  0.00    -0.072 N 
HETATM   28  H   UNL     1      -7.762   7.617 -33.102  1.00  0.00     0.277 HD
HETATM   29  H   UNL     1      -6.174   7.306 -33.272  1.00  0.00     0.277 HD
BRANCH  27  30
HETATM   30  C   UNL     1      -7.229   5.617 -32.712  1.00  0.00     0.237 C 
BRANCH  30  31
HETATM   31  C   UNL     1      -8.382   5.196 -31.799  1.00  0.00     0.068 C 
BRANCH  31  32
HETATM   32  C   UNL     1      -8.325   3.732 -31.513  1.00  0.00    -0.029 A 
HETATM   33  C   UNL     1      -9.053   2.707 -32.198  1.00  0.00     0.001 A 
HETATM   34  C   UNL     1      -8.738   1.493 -31.590  1.00  0.00     0.043 A 
HETATM   35  C   UNL     1      -9.962   2.699 -33.275  1.00  0.00     0.051 A 
HETATM   36  C   UNL     1      -9.296   0.278 -32.001  1.00  0.00     0.033 A 
HETATM   37  N   UNL     1      -7.829   1.761 -30.593  1.00  0.00    -0.365 N 
HETATM   38  C   UNL     1     -10.204   0.301 -33.068  1.00  0.00     0.039 A 
HETATM   39  C   UNL     1     -10.535   1.494 -33.706  1.00  0.00     0.069 A 
HETATM   40  H   UNL     1      -7.411   1.058 -29.997  1.00  0.00     0.165 HD
HETATM   41  C   UNL     1      -7.580   3.108 -30.532  1.00  0.00     0.096 A 
BRANCH  39  42
HETATM   42  O   UNL     1     -11.408   1.635 -34.751  1.00  0.00    -0.356 OA
HETATM   43  C   UNL     1     -12.721   1.117 -34.565  1.00  0.00     0.210 C 
ENDBRANCH  39  42
ENDBRANCH  31  32
ENDBRANCH  30  31
ENDBRANCH  27  30
ENDBRANCH  26  27
ENDBRANCH  23  26
ENDBRANCH   1  23
TORSDOF 13
ENDMDL
MODEL 7
REMARK VINA RESULT:      -8.7      3.899      8.473
REMARK  13 active torsions:
REMARK  status: ('A' for Active; 'I' for Inactive)
REMARK    1  A    between atoms: O_2  and  C_3 
REMARK    2  A    between atoms: C_6  and  C_7 
REMARK    3  A    between atoms: C_7  and  C_8 
REMARK    4  A    between atoms: C_9  and  C_10 
REMARK    5  A    between atoms: N_17  and  C_18 
REMARK    6  A    between atoms: C_18  and  C_19 
REMARK    7  A    between atoms: C_19  and  O_20 
REMARK    8  A    between atoms: C_19  and  C_21 
REMARK    9  A    between atoms: C_21  and  N_22 
REMARK   10  A    between atoms: N_22  and  C_25 
REMARK   11  A    between atoms: C_25  and  C_26 
REMARK   12  A    between atoms: C_26  and  C_27 
REMARK   13  A    between atoms: C_32  and  O_33 
ROOT
HETATM    1  C   UNL     1     -13.452   1.734 -34.724  1.00  0.00     0.162 C 
ENDROOT
BRANCH   1   2
HETATM    2  N   UNL     1     -12.094   2.235 -34.580  1.00  0.00    -0.353 N 
HETATM    3  C   UNL     1     -11.678   3.530 -34.810  1.00  0.00     0.045 A 
HETATM    4  C   UNL     1     -10.334   3.600 -34.422  1.00  0.00     0.002 A 
HETATM    5  C   UNL     1     -12.364   4.649 -35.311  1.00  0.00     0.030 A 
HETATM    6  C   UNL     1      -9.938   2.281 -34.038  1.00  0.00    -0.008 A 
HETATM    7  C   UNL     1      -9.684   4.854 -34.483  1.00  0.00     0.014 A 
HETATM    8  C   UNL     1     -11.049   1.472 -34.126  1.00  0.00     0.103 A 
HETATM    9  C   UNL     1     -10.367   5.974 -34.966  1.00  0.00     0.001 A 
HETATM   10  C   UNL     1     -11.686   5.868 -35.385  1.00  0.00     0.002 A 
BRANCH   6  11
HETATM   11  C   UNL     1      -8.659   1.794 -33.628  1.00  0.00     0.018 C 
HETATM   12  C   UNL     1      -7.768   1.201 -34.441  1.00  0.00     0.056 C 
BRANCH  12  13
HETATM   13  C   UNL     1      -6.455   0.746 -33.913  1.00  0.00     0.182 C 
HETATM   14  O   UNL     1      -5.669   1.547 -33.415  1.00  0.00    -0.288 OA
BRANCH  13  15
HETATM   15  C   UNL     1      -6.078  -0.696 -34.050  1.00  0.00     0.014 A 
HETATM   16  C   UNL     1      -6.937  -1.684 -34.551  1.00  0.00     0.018 A 
HETATM   17  C   UNL     1      -6.493  -3.004 -34.710  1.00  0.00     0.037 A 
HETATM   18  C   UNL     1      -5.189  -3.357 -34.365  1.00  0.00     0.068 A 
HETATM   19  C   UNL     1      -4.345  -2.386 -33.825  1.00  0.00     0.037 A 
HETATM   20  C   UNL     1      -4.782  -1.067 -33.671  1.00  0.00     0.018 A 
BRANCH  18  21
HETATM   21  O   UNL     1      -4.637  -4.600 -34.491  1.00  0.00    -0.356 OA
HETATM   22  C   UNL     1      -3.429  -4.839 -33.776  1.00  0.00     0.210 C 
ENDBRANCH  18  21
ENDBRANCH  13  15
ENDBRANCH  12  13
ENDBRANCH   6  11
ENDBRANCH   1   2
BRANCH   1  23
HETATM   23  C   UNL     1     -13.999   1.014 -33.476  1.00  0.00     0.162 C 
BRANCH  23  24
HETATM   24  O   UNL     1     -14.263  -0.385 -33.707  1.00  0.00    -0.392 OA
HETATM   25  H   UNL     1     -13.687  -0.907 -33.113  1.00  0.00     0.210 HD
ENDBRANCH  23  24
BRANCH  23  26
HETATM   26  C   UNL     1     -15.287   1.627 -32.894  1.00  0.00     0.265 C 
BRANCH  26  27
HETATM   27  N   UNL     1     -15.158   3.127 -32.997  1.00  0.00    -0.072 N 
HETATM   28  H   UNL     1     -14.349   3.294 -33.623  1.00  0.00     0.277 HD
HETATM   29  H   UNL     1     -15.960   3.499 -33.521  1.00  0.00     0.277 HD
BRANCH  27  30
HETATM   30  C   UNL     1     -15.024   3.880 -31.716  1.00  0.00     0.237 C 
BRANCH  30  31
HETATM   31  C   UNL     1     -13.630   3.743 -31.101  1.00  0.00     0.068 C 
BRANCH  31  32
HETATM   32  C   UNL     1     -12.819   4.972 -31.348  1.00  0.00    -0.029 A 
HETATM   33  C   UNL     1     -11.405   5.103 -31.165  1.00  0.00     0.001 A 
HETATM   34  C   UNL     1     -11.064   6.419 -31.470  1.00  0.00     0.043 A 
HETATM   35  C   UNL     1     -10.381   4.225 -30.757  1.00  0.00     0.051 A 
HETATM   36  C   UNL     1      -9.753   6.899 -31.376  1.00  0.00     0.033 A 
HETATM   37  N   UNL     1     -12.218   7.060 -31.855  1.00  0.00    -0.365 N 
HETATM   38  C   UNL     1      -8.757   6.007 -30.958  1.00  0.00     0.039 A 
HETATM   39  C   UNL     1      -9.059   4.681 -30.654  1.00  0.00     0.069 A 
HETATM   40  H   UNL     1     -12.264   8.026 -32.152  1.00  0.00     0.165 HD
HETATM   41  C   UNL     1     -13.283   6.199 -31.776  1.00  0.00     0.096 A 
BRANCH  39  42
HETATM   42  O   UNL     1      -8.171   3.727 -30.235  1.00  0.00    -0.356 OA
HETATM   43  C   UNL     1      -7.114   4.162 -29.385  1.00  0.00     0.210 C 
ENDBRANCH  39  42
ENDBRANCH  31  32
ENDBRANCH  30  31
ENDBRANCH  27  30
ENDBRANCH  26  27
ENDBRANCH  23  26
ENDBRANCH   1  23
TORSDOF 13
ENDMDL
MODEL 8
REMARK VINA RESULT:      -8.7      2.301      8.270
REMARK  13 active torsions:
REMARK  status: ('A' for Active; 'I' for Inactive)
REMARK    1  A    between atoms: O_2  and  C_3 
REMARK    2  A    between atoms: C_6  and  C_7 
REMARK    3  A    between atoms: C_7  and  C_8 
REMARK    4  A    between atoms: C_9  and  C_10 
REMARK    5  A    between atoms: N_17  and  C_18 
REMARK    6  A    between atoms: C_18  and  C_19 
REMARK    7  A    between atoms: C_19  and  O_20 
REMARK    8  A    between atoms: C_19  and  C_21 
REMARK    9  A    between atoms: C_21  and  N_22 
REMARK   10  A    between atoms: N_22  and  C_25 
REMARK   11  A    between atoms: C_25  and  C_26 
REMARK   12  A    between atoms: C_26  and  C_27 
REMARK   13  A    between atoms: C_32  and  O_33 
ROOT
HETATM    1  C   UNL     1      -5.745   6.852 -32.111  1.00  0.00     0.162 C 
ENDROOT
BRANCH   1   2
HETATM    2  N   UNL     1      -4.581   5.983 -32.189  1.00  0.00    -0.353 N 
HETATM    3  C   UNL     1      -3.264   6.392 -32.237  1.00  0.00     0.045 A 
HETATM    4  C   UNL     1      -2.477   5.235 -32.169  1.00  0.00     0.002 A 
HETATM    5  C   UNL     1      -2.694   7.673 -32.323  1.00  0.00     0.030 A 
HETATM    6  C   UNL     1      -3.369   4.119 -32.169  1.00  0.00    -0.008 A 
HETATM    7  C   UNL     1      -1.072   5.385 -32.121  1.00  0.00     0.014 A 
HETATM    8  C   UNL     1      -4.655   4.614 -32.159  1.00  0.00     0.103 A 
HETATM    9  C   UNL     1      -0.500   6.658 -32.189  1.00  0.00     0.001 A 
HETATM   10  C   UNL     1      -1.302   7.785 -32.300  1.00  0.00     0.002 A 
BRANCH   6  11
HETATM   11  C   UNL     1      -3.082   2.719 -32.179  1.00  0.00     0.018 C 
HETATM   12  C   UNL     1      -3.918   1.762 -31.742  1.00  0.00     0.056 C 
BRANCH  12  13
HETATM   13  C   UNL     1      -3.525   0.330 -31.814  1.00  0.00     0.182 C 
HETATM   14  O   UNL     1      -2.542  -0.081 -31.203  1.00  0.00    -0.288 OA
BRANCH  13  15
HETATM   15  C   UNL     1      -4.310  -0.595 -32.690  1.00  0.00     0.014 A 
HETATM   16  C   UNL     1      -3.867  -1.867 -33.078  1.00  0.00     0.018 A 
HETATM   17  C   UNL     1      -4.686  -2.705 -33.848  1.00  0.00     0.037 A 
HETATM   18  C   UNL     1      -5.953  -2.282 -34.246  1.00  0.00     0.068 A 
HETATM   19  C   UNL     1      -6.380  -1.000 -33.899  1.00  0.00     0.037 A 
HETATM   20  C   UNL     1      -5.569  -0.164 -33.125  1.00  0.00     0.018 A 
BRANCH  18  21
HETATM   21  O   UNL     1      -6.847  -3.012 -34.979  1.00  0.00    -0.356 OA
HETATM   22  C   UNL     1      -6.500  -4.366 -35.246  1.00  0.00     0.210 C 
ENDBRANCH  18  21
ENDBRANCH  13  15
ENDBRANCH  12  13
ENDBRANCH   6  11
ENDBRANCH   1   2
BRANCH   1  23
HETATM   23  C   UNL     1      -7.095   6.114 -32.187  1.00  0.00     0.162 C 
BRANCH  23  24
HETATM   24  O   UNL     1      -8.037   6.759 -33.068  1.00  0.00    -0.392 OA
HETATM   25  H   UNL     1      -8.556   7.402 -32.544  1.00  0.00     0.210 HD
ENDBRANCH  23  24
BRANCH  23  26
HETATM   26  C   UNL     1      -7.802   5.926 -30.831  1.00  0.00     0.265 C 
BRANCH  26  27
HETATM   27  N   UNL     1      -8.662   4.691 -30.939  1.00  0.00    -0.072 N 
HETATM   28  H   UNL     1      -9.513   4.897 -30.384  1.00  0.00     0.277 HD
HETATM   29  H   UNL     1      -9.007   4.605 -31.902  1.00  0.00     0.277 HD
BRANCH  27  30
HETATM   30  C   UNL     1      -8.038   3.399 -30.529  1.00  0.00     0.237 C 
BRANCH  30  31
HETATM   31  C   UNL     1      -7.621   2.546 -31.727  1.00  0.00     0.068 C 
BRANCH  31  32
HETATM   32  C   UNL     1      -8.769   1.727 -32.220  1.00  0.00    -0.029 A 
HETATM   33  C   UNL     1      -9.718   2.114 -33.219  1.00  0.00     0.001 A 
HETATM   34  C   UNL     1     -10.639   1.077 -33.346  1.00  0.00     0.043 A 
HETATM   35  C   UNL     1      -9.886   3.260 -34.024  1.00  0.00     0.051 A 
HETATM   36  C   UNL     1     -11.722   1.135 -34.229  1.00  0.00     0.033 A 
HETATM   37  N   UNL     1     -10.251   0.080 -32.481  1.00  0.00    -0.365 N 
HETATM   38  C   UNL     1     -11.871   2.290 -35.009  1.00  0.00     0.039 A 
HETATM   39  C   UNL     1     -10.964   3.342 -34.916  1.00  0.00     0.069 A 
HETATM   40  H   UNL     1     -10.730  -0.805 -32.377  1.00  0.00     0.165 HD
HETATM   41  C   UNL     1      -9.130   0.466 -31.791  1.00  0.00     0.096 A 
BRANCH  39  42
HETATM   42  O   UNL     1     -11.012   4.514 -35.624  1.00  0.00    -0.356 OA
HETATM   43  C   UNL     1     -11.796   5.566 -35.070  1.00  0.00     0.210 C 
ENDBRANCH  39  42
ENDBRANCH  31  32
ENDBRANCH  30  31
ENDBRANCH  27  30
ENDBRANCH  26  27
ENDBRANCH  23  26
ENDBRANCH   1  23
TORSDOF 13
ENDMDL
MODEL 9
REMARK VINA RESULT:      -8.5      2.381      8.835
REMARK  13 active torsions:
REMARK  status: ('A' for Active; 'I' for Inactive)
REMARK    1  A    between atoms: O_2  and  C_3 
REMARK    2  A    between atoms: C_6  and  C_7 
REMARK    3  A    between atoms: C_7  and  C_8 
REMARK    4  A    between atoms: C_9  and  C_10 
REMARK    5  A    between atoms: N_17  and  C_18 
REMARK    6  A    between atoms: C_18  and  C_19 
REMARK    7  A    between atoms: C_19  and  O_20 
REMARK    8  A    between atoms: C_19  and  C_21 
REMARK    9  A    between atoms: C_21  and  N_22 
REMARK   10  A    between atoms: N_22  and  C_25 
REMARK   11  A    between atoms: C_25  and  C_26 
REMARK   12  A    between atoms: C_26  and  C_27 
REMARK   13  A    between atoms: C_32  and  O_33 
ROOT
HETATM    1  C   UNL     1     -10.749   3.513 -32.733  1.00  0.00     0.162 C 
ENDROOT
BRANCH   1   2
HETATM    2  N   UNL     1      -9.414   4.046 -32.512  1.00  0.00    -0.353 N 
HETATM    3  C   UNL     1      -9.003   4.778 -31.417  1.00  0.00     0.045 A 
HETATM    4  C   UNL     1      -7.621   4.967 -31.551  1.00  0.00     0.002 A 
HETATM    5  C   UNL     1      -9.717   5.280 -30.316  1.00  0.00     0.030 A 
HETATM    6  C   UNL     1      -7.239   4.401 -32.806  1.00  0.00    -0.008 A 
HETATM    7  C   UNL     1      -6.933   5.628 -30.508  1.00  0.00     0.014 A 
HETATM    8  C   UNL     1      -8.360   3.824 -33.360  1.00  0.00     0.103 A 
HETATM    9  C   UNL     1      -7.636   6.114 -29.402  1.00  0.00     0.001 A 
HETATM   10  C   UNL     1      -9.012   5.952 -29.316  1.00  0.00     0.002 A 
BRANCH   6  11
HETATM   11  C   UNL     1      -5.964   4.385 -33.452  1.00  0.00     0.018 C 
HETATM   12  C   UNL     1      -5.292   5.480 -33.846  1.00  0.00     0.056 C 
BRANCH  12  13
HETATM   13  C   UNL     1      -3.960   5.351 -34.494  1.00  0.00     0.182 C 
HETATM   14  O   UNL     1      -3.867   5.016 -35.673  1.00  0.00    -0.288 OA
BRANCH  13  15
HETATM   15  C   UNL     1      -2.729   5.580 -33.676  1.00  0.00     0.014 A 
HETATM   16  C   UNL     1      -1.873   6.679 -33.842  1.00  0.00     0.018 A 
HETATM   17  C   UNL     1      -0.771   6.861 -32.993  1.00  0.00     0.037 A 
HETATM   18  C   UNL     1      -0.505   5.947 -31.975  1.00  0.00     0.068 A 
HETATM   19  C   UNL     1      -1.328   4.830 -31.835  1.00  0.00     0.037 A 
HETATM   20  C   UNL     1      -2.432   4.648 -32.674  1.00  0.00     0.018 A 
BRANCH  18  21
HETATM   21  O   UNL     1       0.522   6.027 -31.077  1.00  0.00    -0.356 OA
HETATM   22  C   UNL     1       0.405   5.235 -29.901  1.00  0.00     0.210 C 
ENDBRANCH  18  21
ENDBRANCH  13  15
ENDBRANCH  12  13
ENDBRANCH   6  11
ENDBRANCH   1   2
BRANCH   1  23
HETATM   23  C   UNL     1     -11.014   3.037 -34.174  1.00  0.00     0.162 C 
BRANCH  23  24
HETATM   24  O   UNL     1     -12.279   3.495 -34.693  1.00  0.00    -0.392 OA
HETATM   25  H   UNL     1     -12.558   2.883 -35.403  1.00  0.00     0.210 HD
ENDBRANCH  23  24
BRANCH  23  26
HETATM   26  C   UNL     1     -10.975   1.508 -34.363  1.00  0.00     0.265 C 
BRANCH  26  27
HETATM   27  N   UNL     1     -10.997   0.884 -32.989  1.00  0.00    -0.072 N 
HETATM   28  H   UNL     1     -11.238   1.654 -32.339  1.00  0.00     0.277 HD
HETATM   29  H   UNL     1     -11.797   0.243 -32.924  1.00  0.00     0.277 HD
BRANCH  27  30
HETATM   30  C   UNL     1      -9.762   0.167 -32.557  1.00  0.00     0.237 C 
BRANCH  30  31
HETATM   31  C   UNL     1      -8.649   0.239 -33.603  1.00  0.00     0.068 C 
BRANCH  31  32
HETATM   32  C   UNL     1      -7.310   0.056 -32.967  1.00  0.00    -0.029 A 
HETATM   33  C   UNL     1      -6.335  -0.932 -33.316  1.00  0.00     0.001 A 
HETATM   34  C   UNL     1      -5.253  -0.776 -32.452  1.00  0.00     0.043 A 
HETATM   35  C   UNL     1      -6.276  -1.955 -34.284  1.00  0.00     0.051 A 
HETATM   36  C   UNL     1      -4.123  -1.599 -32.504  1.00  0.00     0.033 A 
HETATM   37  N   UNL     1      -5.542   0.286 -31.627  1.00  0.00    -0.365 N 
HETATM   38  C   UNL     1      -4.096  -2.615 -33.469  1.00  0.00     0.039 A 
HETATM   39  C   UNL     1      -5.154  -2.794 -34.356  1.00  0.00     0.069 A 
HETATM   40  H   UNL     1      -4.921   0.637 -30.909  1.00  0.00     0.165 HD
HETATM   41  C   UNL     1      -6.783   0.789 -31.923  1.00  0.00     0.096 A 
BRANCH  39  42
HETATM   42  O   UNL     1      -5.236  -3.750 -35.332  1.00  0.00    -0.356 OA
HETATM   43  C   UNL     1      -6.417  -4.545 -35.355  1.00  0.00     0.210 C 
ENDBRANCH  39  42
ENDBRANCH  31  32
ENDBRANCH  30  31
ENDBRANCH  27  30
ENDBRANCH  26  27
ENDBRANCH  23  26
ENDBRANCH   1  23
TORSDOF 13
ENDMDL
MODEL 10
REMARK VINA RESULT:      -8.5      2.384      6.599
REMARK  13 active torsions:
REMARK  status: ('A' for Active; 'I' for Inactive)
REMARK    1  A    between atoms: O_2  and  C_3 
REMARK    2  A    between atoms: C_6  and  C_7 
REMARK    3  A    between atoms: C_7  and  C_8 
REMARK    4  A    between atoms: C_9  and  C_10 
REMARK    5  A    between atoms: N_17  and  C_18 
REMARK    6  A    between atoms: C_18  and  C_19 
REMARK    7  A    between atoms: C_19  and  O_20 
REMARK    8  A    between atoms: C_19  and  C_21 
REMARK    9  A    between atoms: C_21  and  N_22 
REMARK   10  A    between atoms: N_22  and  C_25 
REMARK   11  A    between atoms: C_25  and  C_26 
REMARK   12  A    between atoms: C_26  and  C_27 
REMARK   13  A    between atoms: C_32  and  O_33 
ROOT
HETATM    1  C   UNL     1     -11.384   5.085 -31.915  1.00  0.00     0.162 C 
ENDROOT
BRANCH   1   2
HETATM    2  N   UNL     1     -11.227   3.814 -32.606  1.00  0.00    -0.353 N 
HETATM    3  C   UNL     1     -12.234   2.915 -32.889  1.00  0.00     0.045 A 
HETATM    4  C   UNL     1     -11.666   1.905 -33.677  1.00  0.00     0.002 A 
HETATM    5  C   UNL     1     -13.593   2.902 -32.535  1.00  0.00     0.030 A 
HETATM    6  C   UNL     1     -10.269   2.187 -33.779  1.00  0.00    -0.008 A 
HETATM    7  C   UNL     1     -12.514   0.888 -34.174  1.00  0.00     0.014 A 
HETATM    8  C   UNL     1     -10.037   3.379 -33.129  1.00  0.00     0.103 A 
HETATM    9  C   UNL     1     -13.870   0.880 -33.838  1.00  0.00     0.001 A 
HETATM   10  C   UNL     1     -14.398   1.869 -33.019  1.00  0.00     0.002 A 
BRANCH   6  11
HETATM   11  C   UNL     1      -9.229   1.438 -34.411  1.00  0.00     0.018 C 
HETATM   12  C   UNL     1      -7.947   1.416 -34.009  1.00  0.00     0.056 C 
BRANCH  12  13
HETATM   13  C   UNL     1      -6.946   0.586 -34.730  1.00  0.00     0.182 C 
HETATM   14  O   UNL     1      -7.042   0.403 -35.941  1.00  0.00    -0.288 OA
BRANCH  13  15
HETATM   15  C   UNL     1      -5.852  -0.072 -33.951  1.00  0.00     0.014 A 
HETATM   16  C   UNL     1      -5.004   0.609 -33.066  1.00  0.00     0.018 A 
HETATM   17  C   UNL     1      -4.041  -0.087 -32.320  1.00  0.00     0.037 A 
HETATM   18  C   UNL     1      -3.907  -1.468 -32.454  1.00  0.00     0.068 A 
HETATM   19  C   UNL     1      -4.719  -2.143 -33.366  1.00  0.00     0.037 A 
HETATM   20  C   UNL     1      -5.685  -1.454 -34.106  1.00  0.00     0.018 A 
BRANCH  18  21
HETATM   21  O   UNL     1      -3.023  -2.255 -31.772  1.00  0.00    -0.356 OA
HETATM   22  C   UNL     1      -3.012  -3.639 -32.103  1.00  0.00     0.210 C 
ENDBRANCH  18  21
ENDBRANCH  13  15
ENDBRANCH  12  13
ENDBRANCH   6  11
ENDBRANCH   1   2
BRANCH   1  23
HETATM   23  C   UNL     1     -10.459   5.264 -30.697  1.00  0.00     0.162 C 
BRANCH  23  24
HETATM   24  O   UNL     1     -10.996   6.171 -29.713  1.00  0.00    -0.392 OA
HETATM   25  H   UNL     1     -11.078   5.689 -28.865  1.00  0.00     0.210 HD
ENDBRANCH  23  24
BRANCH  23  26
HETATM   26  C   UNL     1      -9.039   5.757 -31.036  1.00  0.00     0.265 C 
BRANCH  26  27
HETATM   27  N   UNL     1      -8.067   4.734 -30.500  1.00  0.00    -0.072 N 
HETATM   28  H   UNL     1      -8.185   4.753 -29.470  1.00  0.00     0.277 HD
HETATM   29  H   UNL     1      -8.383   3.796 -30.771  1.00  0.00     0.277 HD
BRANCH  27  30
HETATM   30  C   UNL     1      -6.636   4.897 -30.890  1.00  0.00     0.237 C 
BRANCH  30  31
HETATM   31  C   UNL     1      -6.132   3.741 -31.756  1.00  0.00     0.068 C 
BRANCH  31  32
HETATM   32  C   UNL     1      -5.244   4.243 -32.847  1.00  0.00    -0.029 A 
HETATM   33  C   UNL     1      -3.844   4.521 -32.737  1.00  0.00     0.001 A 
HETATM   34  C   UNL     1      -3.416   5.005 -33.971  1.00  0.00     0.043 A 
HETATM   35  C   UNL     1      -2.899   4.414 -31.697  1.00  0.00     0.051 A 
HETATM   36  C   UNL     1      -2.094   5.396 -34.210  1.00  0.00     0.033 A 
HETATM   37  N   UNL     1      -4.504   4.994 -34.812  1.00  0.00    -0.365 N 
HETATM   38  C   UNL     1      -1.178   5.289 -33.154  1.00  0.00     0.039 A 
HETATM   39  C   UNL     1      -1.568   4.801 -31.910  1.00  0.00     0.069 A 
HETATM   40  H   UNL     1      -4.479   5.278 -35.783  1.00  0.00     0.165 HD
HETATM   41  C   UNL     1      -5.613   4.546 -34.142  1.00  0.00     0.096 A 
BRANCH  39  42
HETATM   42  O   UNL     1      -0.764   4.656 -30.812  1.00  0.00    -0.356 OA
HETATM   43  C   UNL     1       0.545   5.213 -30.897  1.00  0.00     0.210 C 
ENDBRANCH  39  42
ENDBRANCH  31  32
ENDBRANCH  30  31
ENDBRANCH  27  30
ENDBRANCH  26  27
ENDBRANCH  23  26
ENDBRANCH   1  23
TORSDOF 13
ENDMDL
