MODEL 1
REMARK VINA RESULT:     -10.1      0.000      0.000
REMARK  6 active torsions:
REMARK  status: ('A' for Active; 'I' for Inactive)
REMARK    1  A    between atoms: O_2  and  C_3 
REMARK    2  A    between atoms: C_5  and  C_6 
REMARK    3  A    between atoms: C_12  and  C_13 
REMARK       I    between atoms: C_13  and  N_14 
REMARK    4  A    between atoms: N_14  and  C_15 
REMARK    5  A    between atoms: C_17  and  O_18 
REMARK    6  A    between atoms: C_23  and  C_24 
ROOT
HETATM    1  C   UNL     1      -6.420  -0.667 -34.981  1.00  0.00     0.118 C 
HETATM    2  N   UNL     1      -5.611   0.284 -34.188  1.00  0.00    -0.365 N 
HETATM    3  C   UNL     1      -5.944   0.486 -32.878  1.00  0.00     0.138 A 
HETATM    4  N   UNL     1      -7.166   0.085 -32.387  1.00  0.00    -0.240 N 
HETATM    5  N   UNL     1      -7.312   0.292 -31.072  1.00  0.00    -0.181 NA
HETATM    6  C   UNL     1      -6.182   0.919 -30.731  1.00  0.00     0.160 A 
HETATM    7  C   UNL     1      -5.281   1.071 -31.814  1.00  0.00     0.096 A 
HETATM    8  C   UNL     1      -8.213  -0.528 -33.185  1.00  0.00     0.221 C 
HETATM    9  C   UNL     1      -7.899  -0.366 -34.688  1.00  0.00     0.066 C 
HETATM   10  H   UNL     1      -5.353   1.113 -34.729  1.00  0.00     0.161 HD
ENDROOT
BRANCH   7  11
HETATM   11  C   UNL     1      -3.962   1.682 -31.753  1.00  0.00     0.261 C 
HETATM   12  N   UNL     1      -3.907   2.942 -32.317  1.00  0.00    -0.323 N 
HETATM   13  H   UNL     1      -4.759   3.241 -32.782  1.00  0.00     0.169 HD
HETATM   14  O   UNL     1      -3.025   1.083 -31.239  1.00  0.00    -0.267 OA
BRANCH  12  15
HETATM   15  C   UNL     1      -2.823   3.841 -32.334  1.00  0.00     0.037 A 
HETATM   16  C   UNL     1      -2.163   4.284 -31.186  1.00  0.00     0.066 A 
HETATM   17  C   UNL     1      -1.114   5.196 -31.299  1.00  0.00     0.067 A 
HETATM   18  C   UNL     1      -0.713   5.681 -32.536  1.00  0.00     0.036 A 
HETATM   19  C   UNL     1      -1.363   5.241 -33.686  1.00  0.00     0.005 A 
HETATM   20  C   UNL     1      -2.412   4.321 -33.585  1.00  0.00     0.029 A 
BRANCH  17  21
HETATM   21  O   UNL     1      -0.448   5.646 -30.196  1.00  0.00    -0.361 OA
HETATM   22  H   UNL     1      -1.103   5.954 -29.546  1.00  0.00     0.217 HD
ENDBRANCH  17  21
ENDBRANCH  12  15
ENDBRANCH   7  11
BRANCH   1  23
HETATM   23  C   UNL     1      -5.999  -2.116 -34.736  1.00  0.00    -0.033 A 
HETATM   24  C   UNL     1      -4.771  -2.425 -34.122  1.00  0.00     0.046 A 
HETATM   25  C   UNL     1      -4.397  -3.745 -33.859  1.00  0.00     0.068 A 
HETATM   26  C   UNL     1      -5.216  -4.793 -34.265  1.00  0.00     0.037 A 
HETATM   27  C   UNL     1      -6.414  -4.515 -34.920  1.00  0.00     0.003 A 
HETATM   28  C   UNL     1      -6.798  -3.191 -35.160  1.00  0.00     0.009 A 
BRANCH  25  29
HETATM   29  O   UNL     1      -3.186  -3.910 -33.243  1.00  0.00    -0.356 OA
HETATM   30  C   UNL     1      -3.092  -3.277 -31.970  1.00  0.00     0.210 C 
ENDBRANCH  25  29
ENDBRANCH   1  23
BRANCH   8  31
HETATM   31  C   UNL     1      -9.573   0.073 -32.897  1.00  0.00     0.409 C 
HETATM   32  F   UNL     1      -9.503   1.108 -32.028  1.00  0.00    -0.169 F 
HETATM   33  F   UNL     1     -10.096   0.576 -34.050  1.00  0.00    -0.169 F 
HETATM   34  F   UNL     1     -10.476  -0.814 -32.435  1.00  0.00    -0.169 F 
ENDBRANCH   8  31
TORSDOF 6
ENDMDL
MODEL 2
REMARK VINA RESULT:      -9.9      2.025      2.612
REMARK  6 active torsions:
REMARK  status: ('A' for Active; 'I' for Inactive)
REMARK    1  A    between atoms: O_2  and  C_3 
REMARK    2  A    between atoms: C_5  and  C_6 
REMARK    3  A    between atoms: C_12  and  C_13 
REMARK       I    between atoms: C_13  and  N_14 
REMARK    4  A    between atoms: N_14  and  C_15 
REMARK    5  A    between atoms: C_17  and  O_18 
REMARK    6  A    between atoms: C_23  and  C_24 
ROOT
HETATM    1  C   UNL     1      -6.993   0.095 -35.001  1.00  0.00     0.118 C 
HETATM    2  N   UNL     1      -6.574   1.502 -34.826  1.00  0.00    -0.365 N 
HETATM    3  C   UNL     1      -6.738   2.082 -33.599  1.00  0.00     0.138 A 
HETATM    4  N   UNL     1      -7.553   1.510 -32.648  1.00  0.00    -0.240 N 
HETATM    5  N   UNL     1      -7.555   2.163 -31.479  1.00  0.00    -0.181 NA
HETATM    6  C   UNL     1      -6.784   3.228 -31.718  1.00  0.00     0.160 A 
HETATM    7  C   UNL     1      -6.240   3.238 -33.027  1.00  0.00     0.096 A 
HETATM    8  C   UNL     1      -8.334   0.303 -32.851  1.00  0.00     0.221 C 
HETATM    9  C   UNL     1      -8.379  -0.054 -34.353  1.00  0.00     0.066 C 
HETATM   10  H   UNL     1      -6.807   2.076 -35.640  1.00  0.00     0.161 HD
ENDROOT
BRANCH   7  11
HETATM   11  C   UNL     1      -5.341   4.244 -33.574  1.00  0.00     0.261 C 
HETATM   12  N   UNL     1      -4.309   4.588 -32.723  1.00  0.00    -0.323 N 
HETATM   13  H   UNL     1      -4.360   4.172 -31.798  1.00  0.00     0.169 HD
HETATM   14  O   UNL     1      -5.537   4.707 -34.691  1.00  0.00    -0.267 OA
BRANCH  12  15
HETATM   15  C   UNL     1      -3.220   5.443 -32.978  1.00  0.00     0.037 A 
HETATM   16  C   UNL     1      -3.131   6.752 -32.501  1.00  0.00     0.066 A 
HETATM   17  C   UNL     1      -2.023   7.535 -32.826  1.00  0.00     0.067 A 
HETATM   18  C   UNL     1      -1.002   7.038 -33.625  1.00  0.00     0.036 A 
HETATM   19  C   UNL     1      -1.081   5.732 -34.100  1.00  0.00     0.005 A 
HETATM   20  C   UNL     1      -2.184   4.937 -33.775  1.00  0.00     0.029 A 
BRANCH  17  21
HETATM   21  O   UNL     1      -1.907   8.818 -32.374  1.00  0.00    -0.361 OA
HETATM   22  H   UNL     1      -2.557   8.952 -31.662  1.00  0.00     0.217 HD
ENDBRANCH  17  21
ENDBRANCH  12  15
ENDBRANCH   7  11
BRANCH   1  23
HETATM   23  C   UNL     1      -5.936  -0.883 -34.487  1.00  0.00    -0.033 A 
HETATM   24  C   UNL     1      -6.000  -2.254 -34.794  1.00  0.00     0.046 A 
HETATM   25  C   UNL     1      -5.015  -3.147 -34.362  1.00  0.00     0.068 A 
HETATM   26  C   UNL     1      -3.976  -2.697 -33.554  1.00  0.00     0.037 A 
HETATM   27  C   UNL     1      -3.918  -1.352 -33.194  1.00  0.00     0.003 A 
HETATM   28  C   UNL     1      -4.891  -0.456 -33.650  1.00  0.00     0.009 A 
BRANCH  25  29
HETATM   29  O   UNL     1      -5.185  -4.450 -34.741  1.00  0.00    -0.356 OA
HETATM   30  C   UNL     1      -6.435  -4.713 -35.371  1.00  0.00     0.210 C 
ENDBRANCH  25  29
ENDBRANCH   1  23
BRANCH   8  31
HETATM   31  C   UNL     1      -9.749   0.447 -32.334  1.00  0.00     0.409 C 
HETATM   32  F   UNL     1     -10.545  -0.576 -32.723  1.00  0.00    -0.169 F 
HETATM   33  F   UNL     1      -9.735   0.422 -30.972  1.00  0.00    -0.169 F 
HETATM   34  F   UNL     1     -10.342   1.607 -32.678  1.00  0.00    -0.169 F 
ENDBRANCH   8  31
TORSDOF 6
ENDMDL
MODEL 3
REMARK VINA RESULT:      -9.8      3.894      7.124
REMARK  6 active torsions:
REMARK  status: ('A' for Active; 'I' for Inactive)
REMARK    1  A    between atoms: O_2  and  C_3 
REMARK    2  A    between atoms: C_5  and  C_6 
REMARK    3  A    between atoms: C_12  and  C_13 
REMARK       I    between atoms: C_13  and  N_14 
REMARK    4  A    between atoms: N_14  and  C_15 
REMARK    5  A    between atoms: C_17  and  O_18 
REMARK    6  A    between atoms: C_23  and  C_24 
ROOT
HETATM    1  C   UNL     1      -6.057  -0.119 -31.547  1.00  0.00     0.118 C 
HETATM    2  N   UNL     1      -7.205   0.787 -31.768  1.00  0.00    -0.365 N 
HETATM    3  C   UNL     1      -7.021   1.891 -32.552  1.00  0.00     0.138 A 
HETATM    4  N   UNL     1      -5.756   2.336 -32.864  1.00  0.00    -0.240 N 
HETATM    5  N   UNL     1      -5.745   3.386 -33.694  1.00  0.00    -0.181 NA
HETATM    6  C   UNL     1      -7.041   3.671 -33.850  1.00  0.00     0.160 A 
HETATM    7  C   UNL     1      -7.895   2.772 -33.163  1.00  0.00     0.096 A 
HETATM    8  C   UNL     1      -4.528   1.735 -32.375  1.00  0.00     0.221 C 
HETATM    9  C   UNL     1      -4.838   0.758 -31.220  1.00  0.00     0.066 C 
HETATM   10  H   UNL     1      -7.763   0.914 -30.919  1.00  0.00     0.161 HD
ENDROOT
BRANCH   7  11
HETATM   11  C   UNL     1      -9.350   2.801 -33.164  1.00  0.00     0.261 C 
HETATM   12  N   UNL     1      -9.924   1.773 -33.887  1.00  0.00    -0.323 N 
HETATM   13  H   UNL     1      -9.269   1.190 -34.398  1.00  0.00     0.169 HD
HETATM   14  O   UNL     1      -9.952   3.682 -32.563  1.00  0.00    -0.267 OA
BRANCH  12  15
HETATM   15  C   UNL     1     -11.290   1.452 -34.006  1.00  0.00     0.037 A 
HETATM   16  C   UNL     1     -11.860   0.282 -33.500  1.00  0.00     0.066 A 
HETATM   17  C   UNL     1     -13.221   0.036 -33.689  1.00  0.00     0.067 A 
HETATM   18  C   UNL     1     -14.024   0.932 -34.379  1.00  0.00     0.036 A 
HETATM   19  C   UNL     1     -13.464   2.103 -34.883  1.00  0.00     0.005 A 
HETATM   20  C   UNL     1     -12.103   2.363 -34.694  1.00  0.00     0.029 A 
BRANCH  17  21
HETATM   21  O   UNL     1     -13.807  -1.097 -33.203  1.00  0.00    -0.361 OA
HETATM   22  H   UNL     1     -13.688  -1.809 -33.857  1.00  0.00     0.217 HD
ENDBRANCH  17  21
ENDBRANCH  12  15
ENDBRANCH   7  11
BRANCH   1  23
HETATM   23  C   UNL     1      -5.859  -1.084 -32.717  1.00  0.00    -0.033 A 
HETATM   24  C   UNL     1      -4.709  -1.889 -32.813  1.00  0.00     0.046 A 
HETATM   25  C   UNL     1      -4.540  -2.801 -33.857  1.00  0.00     0.068 A 
HETATM   26  C   UNL     1      -5.491  -2.881 -34.870  1.00  0.00     0.037 A 
HETATM   27  C   UNL     1      -6.615  -2.059 -34.825  1.00  0.00     0.003 A 
HETATM   28  C   UNL     1      -6.794  -1.164 -33.764  1.00  0.00     0.009 A 
BRANCH  25  29
HETATM   29  O   UNL     1      -3.386  -3.535 -33.826  1.00  0.00    -0.356 OA
HETATM   30  C   UNL     1      -3.595  -4.937 -33.681  1.00  0.00     0.210 C 
ENDBRANCH  25  29
ENDBRANCH   1  23
BRANCH   8  31
HETATM   31  C   UNL     1      -3.539   2.774 -31.892  1.00  0.00     0.409 C 
HETATM   32  F   UNL     1      -4.147   3.812 -31.271  1.00  0.00    -0.169 F 
HETATM   33  F   UNL     1      -2.709   2.211 -30.970  1.00  0.00    -0.169 F 
HETATM   34  F   UNL     1      -2.741   3.263 -32.861  1.00  0.00    -0.169 F 
ENDBRANCH   8  31
TORSDOF 6
ENDMDL
MODEL 4
REMARK VINA RESULT:      -9.6      1.781      2.150
REMARK  6 active torsions:
REMARK  status: ('A' for Active; 'I' for Inactive)
REMARK    1  A    between atoms: O_2  and  C_3 
REMARK    2  A    between atoms: C_5  and  C_6 
REMARK    3  A    between atoms: C_12  and  C_13 
REMARK       I    between atoms: C_13  and  N_14 
REMARK    4  A    between atoms: N_14  and  C_15 
REMARK    5  A    between atoms: C_17  and  O_18 
REMARK    6  A    between atoms: C_23  and  C_24 
ROOT
HETATM    1  C   UNL     1      -6.754   0.486 -34.944  1.00  0.00     0.118 C 
HETATM    2  N   UNL     1      -6.359   1.742 -34.270  1.00  0.00    -0.365 N 
HETATM    3  C   UNL     1      -6.841   1.985 -33.014  1.00  0.00     0.138 A 
HETATM    4  N   UNL     1      -7.903   1.269 -32.511  1.00  0.00    -0.240 N 
HETATM    5  N   UNL     1      -8.210   1.580 -31.245  1.00  0.00    -0.181 NA
HETATM    6  C   UNL     1      -7.373   2.582 -30.961  1.00  0.00     0.160 A 
HETATM    7  C   UNL     1      -6.486   2.884 -32.025  1.00  0.00     0.096 A 
HETATM    8  C   UNL     1      -8.632   0.251 -33.247  1.00  0.00     0.221 C 
HETATM    9  C   UNL     1      -8.270   0.318 -34.746  1.00  0.00     0.066 C 
HETATM   10  H   UNL     1      -6.340   2.535 -34.916  1.00  0.00     0.161 HD
ENDROOT
BRANCH   7  11
HETATM   11  C   UNL     1      -5.442   3.898 -32.009  1.00  0.00     0.261 C 
HETATM   12  N   UNL     1      -4.214   3.436 -32.440  1.00  0.00    -0.323 N 
HETATM   13  H   UNL     1      -4.171   2.438 -32.621  1.00  0.00     0.169 HD
HETATM   14  O   UNL     1      -5.691   5.037 -31.634  1.00  0.00    -0.267 OA
BRANCH  12  15
HETATM   15  C   UNL     1      -3.030   4.171 -32.642  1.00  0.00     0.037 A 
HETATM   16  C   UNL     1      -2.573   4.579 -33.897  1.00  0.00     0.066 A 
HETATM   17  C   UNL     1      -1.374   5.284 -34.003  1.00  0.00     0.067 A 
HETATM   18  C   UNL     1      -0.616   5.585 -32.880  1.00  0.00     0.036 A 
HETATM   19  C   UNL     1      -1.067   5.186 -31.625  1.00  0.00     0.005 A 
HETATM   20  C   UNL     1      -2.271   4.485 -31.507  1.00  0.00     0.029 A 
BRANCH  17  21
HETATM   21  O   UNL     1      -0.903   5.698 -35.216  1.00  0.00    -0.361 OA
HETATM   22  H   UNL     1      -0.247   5.052 -35.528  1.00  0.00     0.217 HD
ENDBRANCH  17  21
ENDBRANCH  12  15
ENDBRANCH   7  11
BRANCH   1  23
HETATM   23  C   UNL     1      -5.910  -0.701 -34.479  1.00  0.00    -0.033 A 
HETATM   24  C   UNL     1      -4.836  -0.527 -33.587  1.00  0.00     0.046 A 
HETATM   25  C   UNL     1      -4.085  -1.612 -33.127  1.00  0.00     0.068 A 
HETATM   26  C   UNL     1      -4.352  -2.892 -33.601  1.00  0.00     0.037 A 
HETATM   27  C   UNL     1      -5.378  -3.084 -34.523  1.00  0.00     0.003 A 
HETATM   28  C   UNL     1      -6.145  -1.999 -34.963  1.00  0.00     0.009 A 
BRANCH  25  29
HETATM   29  O   UNL     1      -3.079  -1.311 -32.250  1.00  0.00    -0.356 OA
HETATM   30  C   UNL     1      -3.295  -0.115 -31.507  1.00  0.00     0.210 C 
ENDBRANCH  25  29
ENDBRANCH   1  23
BRANCH   8  31
HETATM   31  C   UNL     1     -10.131   0.402 -33.093  1.00  0.00     0.409 C 
HETATM   32  F   UNL     1     -10.463   1.452 -32.306  1.00  0.00    -0.169 F 
HETATM   33  F   UNL     1     -10.686   0.649 -34.313  1.00  0.00    -0.169 F 
HETATM   34  F   UNL     1     -10.746  -0.700 -32.620  1.00  0.00    -0.169 F 
ENDBRANCH   8  31
TORSDOF 6
ENDMDL
MODEL 5
REMARK VINA RESULT:      -9.4      2.440      7.883
REMARK  6 active torsions:
REMARK  status: ('A' for Active; 'I' for Inactive)
REMARK    1  A    between atoms: O_2  and  C_3 
REMARK    2  A    between atoms: C_5  and  C_6 
REMARK    3  A    between atoms: C_12  and  C_13 
REMARK       I    between atoms: C_13  and  N_14 
REMARK    4  A    between atoms: N_14  and  C_15 
REMARK    5  A    between atoms: C_17  and  O_18 
REMARK    6  A    between atoms: C_23  and  C_24 
ROOT
HETATM    1  C   UNL     1      -3.557   4.061 -31.196  1.00  0.00     0.118 C 
HETATM    2  N   UNL     1      -3.928   2.682 -31.582  1.00  0.00    -0.365 N 
HETATM    3  C   UNL     1      -5.067   2.496 -32.314  1.00  0.00     0.138 A 
HETATM    4  N   UNL     1      -6.013   3.491 -32.417  1.00  0.00    -0.240 N 
HETATM    5  N   UNL     1      -7.036   3.178 -33.223  1.00  0.00    -0.181 NA
HETATM    6  C   UNL     1      -6.777   1.916 -33.576  1.00  0.00     0.160 A 
HETATM    7  C   UNL     1      -5.557   1.428 -33.043  1.00  0.00     0.096 A 
HETATM    8  C   UNL     1      -5.931   4.778 -31.749  1.00  0.00     0.221 C 
HETATM    9  C   UNL     1      -4.828   4.746 -30.670  1.00  0.00     0.066 C 
HETATM   10  H   UNL     1      -3.750   2.012 -30.831  1.00  0.00     0.161 HD
ENDROOT
BRANCH   7  11
HETATM   11  C   UNL     1      -4.988   0.109 -33.273  1.00  0.00     0.261 C 
HETATM   12  N   UNL     1      -5.925  -0.847 -33.613  1.00  0.00    -0.323 N 
HETATM   13  H   UNL     1      -6.890  -0.537 -33.569  1.00  0.00     0.169 HD
HETATM   14  O   UNL     1      -3.783  -0.074 -33.156  1.00  0.00    -0.267 OA
BRANCH  12  15
HETATM   15  C   UNL     1      -5.703  -2.184 -33.997  1.00  0.00     0.037 A 
HETATM   16  C   UNL     1      -4.488  -2.851 -33.823  1.00  0.00     0.066 A 
HETATM   17  C   UNL     1      -4.353  -4.170 -34.257  1.00  0.00     0.067 A 
HETATM   18  C   UNL     1      -5.406  -4.836 -34.869  1.00  0.00     0.036 A 
HETATM   19  C   UNL     1      -6.622  -4.180 -35.042  1.00  0.00     0.005 A 
HETATM   20  C   UNL     1      -6.770  -2.860 -34.604  1.00  0.00     0.029 A 
BRANCH  17  21
HETATM   21  O   UNL     1      -3.180  -4.849 -34.099  1.00  0.00    -0.361 OA
HETATM   22  H   UNL     1      -3.094  -5.488 -34.828  1.00  0.00     0.217 HD
ENDBRANCH  17  21
ENDBRANCH  12  15
ENDBRANCH   7  11
BRANCH   1  23
HETATM   23  C   UNL     1      -2.851   4.801 -32.332  1.00  0.00    -0.033 A 
HETATM   24  C   UNL     1      -2.595   6.182 -32.254  1.00  0.00     0.046 A 
HETATM   25  C   UNL     1      -1.914   6.858 -33.270  1.00  0.00     0.068 A 
HETATM   26  C   UNL     1      -1.532   6.177 -34.422  1.00  0.00     0.037 A 
HETATM   27  C   UNL     1      -1.819   4.819 -34.545  1.00  0.00     0.003 A 
HETATM   28  C   UNL     1      -2.477   4.140 -33.514  1.00  0.00     0.009 A 
BRANCH  25  29
HETATM   29  O   UNL     1      -1.714   8.196 -33.067  1.00  0.00    -0.356 OA
HETATM   30  C   UNL     1      -2.120   8.653 -31.780  1.00  0.00     0.210 C 
ENDBRANCH  25  29
ENDBRANCH   1  23
BRANCH   8  31
HETATM   31  C   UNL     1      -7.245   5.167 -31.103  1.00  0.00     0.409 C 
HETATM   32  F   UNL     1      -7.840   4.123 -30.480  1.00  0.00    -0.169 F 
HETATM   33  F   UNL     1      -7.012   6.104 -30.141  1.00  0.00    -0.169 F 
HETATM   34  F   UNL     1      -8.130   5.720 -31.955  1.00  0.00    -0.169 F 
ENDBRANCH   8  31
TORSDOF 6
ENDMDL
MODEL 6
REMARK VINA RESULT:      -8.7      4.323      7.299
REMARK  6 active torsions:
REMARK  status: ('A' for Active; 'I' for Inactive)
REMARK    1  A    between atoms: O_2  and  C_3 
REMARK    2  A    between atoms: C_5  and  C_6 
REMARK    3  A    between atoms: C_12  and  C_13 
REMARK       I    between atoms: C_13  and  N_14 
REMARK    4  A    between atoms: N_14  and  C_15 
REMARK    5  A    between atoms: C_17  and  O_18 
REMARK    6  A    between atoms: C_23  and  C_24 
ROOT
HETATM    1  C   UNL     1      -5.429   1.417 -31.165  1.00  0.00     0.118 C 
HETATM    2  N   UNL     1      -6.528   2.323 -31.563  1.00  0.00    -0.365 N 
HETATM    3  C   UNL     1      -6.286   3.249 -32.540  1.00  0.00     0.138 A 
HETATM    4  N   UNL     1      -5.000   3.562 -32.916  1.00  0.00    -0.240 N 
HETATM    5  N   UNL     1      -4.935   4.436 -33.930  1.00  0.00    -0.181 NA
HETATM    6  C   UNL     1      -6.214   4.752 -34.149  1.00  0.00     0.160 A 
HETATM    7  C   UNL     1      -7.113   4.042 -33.314  1.00  0.00     0.096 A 
HETATM    8  C   UNL     1      -3.805   3.002 -32.310  1.00  0.00     0.221 C 
HETATM    9  C   UNL     1      -4.166   2.278 -30.996  1.00  0.00     0.066 C 
HETATM   10  H   UNL     1      -7.078   2.635 -30.760  1.00  0.00     0.161 HD
ENDROOT
BRANCH   7  11
HETATM   11  C   UNL     1      -8.565   4.144 -33.335  1.00  0.00     0.261 C 
HETATM   12  N   UNL     1      -9.176   3.194 -34.131  1.00  0.00    -0.323 N 
HETATM   13  H   UNL     1      -8.540   2.612 -34.668  1.00  0.00     0.169 HD
HETATM   14  O   UNL     1      -9.134   5.015 -32.688  1.00  0.00    -0.267 OA
BRANCH  12  15
HETATM   15  C   UNL     1     -10.553   2.950 -34.291  1.00  0.00     0.037 A 
HETATM   16  C   UNL     1     -11.334   2.259 -33.362  1.00  0.00     0.066 A 
HETATM   17  C   UNL     1     -12.688   2.043 -33.618  1.00  0.00     0.067 A 
HETATM   18  C   UNL     1     -13.279   2.496 -34.789  1.00  0.00     0.036 A 
HETATM   19  C   UNL     1     -12.509   3.189 -35.719  1.00  0.00     0.005 A 
HETATM   20  C   UNL     1     -11.152   3.417 -35.469  1.00  0.00     0.029 A 
BRANCH  17  21
HETATM   21  O   UNL     1     -13.477   1.374 -32.727  1.00  0.00    -0.361 OA
HETATM   22  H   UNL     1     -13.196   0.443 -32.707  1.00  0.00     0.217 HD
ENDBRANCH  17  21
ENDBRANCH  12  15
ENDBRANCH   7  11
BRANCH   1  23
HETATM   23  C   UNL     1      -5.280   0.241 -32.130  1.00  0.00    -0.033 A 
HETATM   24  C   UNL     1      -6.251  -0.023 -33.113  1.00  0.00     0.046 A 
HETATM   25  C   UNL     1      -6.103  -1.071 -34.025  1.00  0.00     0.068 A 
HETATM   26  C   UNL     1      -5.008  -1.924 -33.931  1.00  0.00     0.037 A 
HETATM   27  C   UNL     1      -4.057  -1.714 -32.934  1.00  0.00     0.003 A 
HETATM   28  C   UNL     1      -4.195  -0.647 -32.039  1.00  0.00     0.009 A 
BRANCH  25  29
HETATM   29  O   UNL     1      -7.110  -1.212 -34.941  1.00  0.00    -0.356 OA
HETATM   30  C   UNL     1      -7.805  -0.002 -35.228  1.00  0.00     0.210 C 
ENDBRANCH  25  29
ENDBRANCH   1  23
BRANCH   8  31
HETATM   31  C   UNL     1      -2.764   4.063 -32.021  1.00  0.00     0.409 C 
HETATM   32  F   UNL     1      -3.317   5.221 -31.591  1.00  0.00    -0.169 F 
HETATM   33  F   UNL     1      -1.950   3.632 -31.017  1.00  0.00    -0.169 F 
HETATM   34  F   UNL     1      -1.956   4.335 -33.065  1.00  0.00    -0.169 F 
ENDBRANCH   8  31
TORSDOF 6
ENDMDL
MODEL 7
REMARK VINA RESULT:      -8.6      4.744      7.958
REMARK  6 active torsions:
REMARK  status: ('A' for Active; 'I' for Inactive)
REMARK    1  A    between atoms: O_2  and  C_3 
REMARK    2  A    between atoms: C_5  and  C_6 
REMARK    3  A    between atoms: C_12  and  C_13 
REMARK       I    between atoms: C_13  and  N_14 
REMARK    4  A    between atoms: N_14  and  C_15 
REMARK    5  A    between atoms: C_17  and  O_18 
REMARK    6  A    between atoms: C_23  and  C_24 
ROOT
HETATM    1  C   UNL     1      -7.627   1.306 -31.698  1.00  0.00     0.118 C 
HETATM    2  N   UNL     1      -8.818   2.089 -32.094  1.00  0.00    -0.365 N 
HETATM    3  C   UNL     1      -8.638   3.196 -32.875  1.00  0.00     0.138 A 
HETATM    4  N   UNL     1      -7.393   3.762 -33.025  1.00  0.00    -0.240 N 
HETATM    5  N   UNL     1      -7.373   4.798 -33.874  1.00  0.00    -0.181 NA
HETATM    6  C   UNL     1      -8.657   4.949 -34.209  1.00  0.00     0.160 A 
HETATM    7  C   UNL     1      -9.503   3.977 -33.620  1.00  0.00     0.096 A 
HETATM    8  C   UNL     1      -6.190   3.294 -32.361  1.00  0.00     0.221 C 
HETATM    9  C   UNL     1      -6.556   2.306 -31.233  1.00  0.00     0.066 C 
HETATM   10  H   UNL     1      -9.495   2.169 -31.332  1.00  0.00     0.161 HD
ENDROOT
BRANCH   7  11
HETATM   11  C   UNL     1     -10.941   3.858 -33.817  1.00  0.00     0.261 C 
HETATM   12  N   UNL     1     -11.477   2.695 -33.300  1.00  0.00    -0.323 N 
HETATM   13  H   UNL     1     -10.797   2.034 -32.937  1.00  0.00     0.169 HD
HETATM   14  O   UNL     1     -11.561   4.741 -34.398  1.00  0.00    -0.267 OA
BRANCH  12  15
HETATM   15  C   UNL     1     -12.832   2.319 -33.230  1.00  0.00     0.037 A 
HETATM   16  C   UNL     1     -13.439   1.428 -34.118  1.00  0.00     0.066 A 
HETATM   17  C   UNL     1     -14.796   1.133 -33.986  1.00  0.00     0.067 A 
HETATM   18  C   UNL     1     -15.563   1.716 -32.987  1.00  0.00     0.036 A 
HETATM   19  C   UNL     1     -14.966   2.602 -32.095  1.00  0.00     0.005 A 
HETATM   20  C   UNL     1     -13.604   2.899 -32.214  1.00  0.00     0.029 A 
BRANCH  17  21
HETATM   21  O   UNL     1     -15.416   0.265 -34.837  1.00  0.00    -0.361 OA
HETATM   22  H   UNL     1     -15.760  -0.482 -34.317  1.00  0.00     0.217 HD
ENDBRANCH  17  21
ENDBRANCH  12  15
ENDBRANCH   7  11
BRANCH   1  23
HETATM   23  C   UNL     1      -7.178   0.352 -32.806  1.00  0.00    -0.033 A 
HETATM   24  C   UNL     1      -5.949  -0.328 -32.729  1.00  0.00     0.046 A 
HETATM   25  C   UNL     1      -5.550  -1.232 -33.717  1.00  0.00     0.068 A 
HETATM   26  C   UNL     1      -6.345  -1.425 -34.842  1.00  0.00     0.037 A 
HETATM   27  C   UNL     1      -7.544  -0.726 -34.966  1.00  0.00     0.003 A 
HETATM   28  C   UNL     1      -7.953   0.159 -33.962  1.00  0.00     0.009 A 
BRANCH  25  29
HETATM   29  O   UNL     1      -4.341  -1.840 -33.516  1.00  0.00    -0.356 OA
HETATM   30  C   UNL     1      -3.823  -1.678 -32.199  1.00  0.00     0.210 C 
ENDBRANCH  25  29
ENDBRANCH   1  23
BRANCH   8  31
HETATM   31  C   UNL     1      -5.383   4.435 -31.777  1.00  0.00     0.409 C 
HETATM   32  F   UNL     1      -4.676   5.099 -32.720  1.00  0.00    -0.169 F 
HETATM   33  F   UNL     1      -6.229   5.346 -31.221  1.00  0.00    -0.169 F 
HETATM   34  F   UNL     1      -4.541   4.062 -30.793  1.00  0.00    -0.169 F 
ENDBRANCH   8  31
TORSDOF 6
ENDMDL
MODEL 8
REMARK VINA RESULT:      -8.4     14.768     16.241
REMARK  6 active torsions:
REMARK  status: ('A' for Active; 'I' for Inactive)
REMARK    1  A    between atoms: O_2  and  C_3 
REMARK    2  A    between atoms: C_5  and  C_6 
REMARK    3  A    between atoms: C_12  and  C_13 
REMARK       I    between atoms: C_13  and  N_14 
REMARK    4  A    between atoms: N_14  and  C_15 
REMARK    5  A    between atoms: C_17  and  O_18 
REMARK    6  A    between atoms: C_23  and  C_24 
ROOT
HETATM    1  C   UNL     1      -5.737 -12.126 -39.562  1.00  0.00     0.118 C 
HETATM    2  N   UNL     1      -5.759 -12.493 -38.130  1.00  0.00    -0.365 N 
HETATM    3  C   UNL     1      -6.555 -13.532 -37.736  1.00  0.00     0.138 A 
HETATM    4  N   UNL     1      -7.547 -14.015 -38.560  1.00  0.00    -0.240 N 
HETATM    5  N   UNL     1      -8.192 -15.076 -38.057  1.00  0.00    -0.181 NA
HETATM    6  C   UNL     1      -7.653 -15.220 -36.843  1.00  0.00     0.160 A 
HETATM    7  C   UNL     1      -6.620 -14.286 -36.579  1.00  0.00     0.096 A 
HETATM    8  C   UNL     1      -7.874 -13.468 -39.864  1.00  0.00     0.221 C 
HETATM    9  C   UNL     1      -7.195 -12.094 -40.049  1.00  0.00     0.066 C 
HETATM   10  H   UNL     1      -5.744 -11.670 -37.522  1.00  0.00     0.161 HD
ENDROOT
BRANCH   7  11
HETATM   11  C   UNL     1      -5.825 -14.209 -35.363  1.00  0.00     0.261 C 
HETATM   12  N   UNL     1      -6.003 -15.284 -34.515  1.00  0.00    -0.323 N 
HETATM   13  H   UNL     1      -6.727 -15.937 -34.797  1.00  0.00     0.169 HD
HETATM   14  O   UNL     1      -5.086 -13.252 -35.166  1.00  0.00    -0.267 OA
BRANCH  12  15
HETATM   15  C   UNL     1      -5.319 -15.570 -33.317  1.00  0.00     0.037 A 
HETATM   16  C   UNL     1      -5.852 -15.349 -32.045  1.00  0.00     0.066 A 
HETATM   17  C   UNL     1      -5.089 -15.640 -30.914  1.00  0.00     0.067 A 
HETATM   18  C   UNL     1      -3.800 -16.142 -31.026  1.00  0.00     0.036 A 
HETATM   19  C   UNL     1      -3.263 -16.369 -32.291  1.00  0.00     0.005 A 
HETATM   20  C   UNL     1      -4.021 -16.087 -33.431  1.00  0.00     0.029 A 
BRANCH  17  21
HETATM   21  O   UNL     1      -5.584 -15.438 -29.658  1.00  0.00    -0.361 OA
HETATM   22  H   UNL     1      -6.472 -15.833 -29.610  1.00  0.00     0.217 HD
ENDBRANCH  17  21
ENDBRANCH  12  15
ENDBRANCH   7  11
BRANCH   1  23
HETATM   23  C   UNL     1      -4.810 -13.035 -40.369  1.00  0.00    -0.033 A 
HETATM   24  C   UNL     1      -3.601 -13.509 -39.829  1.00  0.00     0.046 A 
HETATM   25  C   UNL     1      -2.768 -14.373 -40.545  1.00  0.00     0.068 A 
HETATM   26  C   UNL     1      -3.095 -14.730 -41.849  1.00  0.00     0.037 A 
HETATM   27  C   UNL     1      -4.263 -14.234 -42.425  1.00  0.00     0.003 A 
HETATM   28  C   UNL     1      -5.107 -13.390 -41.696  1.00  0.00     0.009 A 
BRANCH  25  29
HETATM   29  O   UNL     1      -1.629 -14.774 -39.901  1.00  0.00    -0.356 OA
HETATM   30  C   UNL     1      -0.428 -14.293 -40.495  1.00  0.00     0.210 C 
ENDBRANCH  25  29
ENDBRANCH   1  23
BRANCH   8  31
HETATM   31  C   UNL     1      -9.368 -13.311 -40.056  1.00  0.00     0.409 C 
HETATM   32  F   UNL     1     -10.034 -13.260 -38.879  1.00  0.00    -0.169 F 
HETATM   33  F   UNL     1      -9.619 -12.130 -40.687  1.00  0.00    -0.169 F 
HETATM   34  F   UNL     1      -9.925 -14.268 -40.823  1.00  0.00    -0.169 F 
ENDBRANCH   8  31
TORSDOF 6
ENDMDL
MODEL 9
REMARK VINA RESULT:      -8.4      3.881      7.780
REMARK  6 active torsions:
REMARK  status: ('A' for Active; 'I' for Inactive)
REMARK    1  A    between atoms: O_2  and  C_3 
REMARK    2  A    between atoms: C_5  and  C_6 
REMARK    3  A    between atoms: C_12  and  C_13 
REMARK       I    between atoms: C_13  and  N_14 
REMARK    4  A    between atoms: N_14  and  C_15 
REMARK    5  A    between atoms: C_17  and  O_18 
REMARK    6  A    between atoms: C_23  and  C_24 
ROOT
HETATM    1  C   UNL     1      -9.924   3.671 -30.452  1.00  0.00     0.118 C 
HETATM    2  N   UNL     1      -9.399   2.377 -30.940  1.00  0.00    -0.365 N 
HETATM    3  C   UNL     1      -9.720   1.982 -32.209  1.00  0.00     0.138 A 
HETATM    4  N   UNL     1     -10.746   2.584 -32.900  1.00  0.00    -0.240 N 
HETATM    5  N   UNL     1     -10.889   2.130 -34.152  1.00  0.00    -0.181 NA
HETATM    6  C   UNL     1      -9.983   1.152 -34.233  1.00  0.00     0.160 A 
HETATM    7  C   UNL     1      -9.214   1.008 -33.050  1.00  0.00     0.096 A 
HETATM    8  C   UNL     1     -11.599   3.630 -32.363  1.00  0.00     0.221 C 
HETATM    9  C   UNL     1     -11.411   3.735 -30.835  1.00  0.00     0.066 C 
HETATM   10  H   UNL     1      -9.422   1.656 -30.215  1.00  0.00     0.161 HD
ENDROOT
BRANCH   7  11
HETATM   11  C   UNL     1      -8.133   0.056 -32.841  1.00  0.00     0.261 C 
HETATM   12  N   UNL     1      -7.809  -0.672 -33.969  1.00  0.00    -0.323 N 
HETATM   13  H   UNL     1      -8.420  -0.522 -34.766  1.00  0.00     0.169 HD
HETATM   14  O   UNL     1      -7.602  -0.046 -31.742  1.00  0.00    -0.267 OA
BRANCH  12  15
HETATM   15  C   UNL     1      -6.756  -1.592 -34.138  1.00  0.00     0.037 A 
HETATM   16  C   UNL     1      -6.932  -2.898 -34.601  1.00  0.00     0.066 A 
HETATM   17  C   UNL     1      -5.831  -3.747 -34.712  1.00  0.00     0.067 A 
HETATM   18  C   UNL     1      -4.557  -3.321 -34.365  1.00  0.00     0.036 A 
HETATM   19  C   UNL     1      -4.372  -2.019 -33.907  1.00  0.00     0.005 A 
HETATM   20  C   UNL     1      -5.468  -1.157 -33.798  1.00  0.00     0.029 A 
BRANCH  17  21
HETATM   21  O   UNL     1      -5.971  -5.028 -35.164  1.00  0.00    -0.361 OA
HETATM   22  H   UNL     1      -6.920  -5.230 -35.226  1.00  0.00     0.217 HD
ENDBRANCH  17  21
ENDBRANCH  12  15
ENDBRANCH   7  11
BRANCH   1  23
HETATM   23  C   UNL     1      -9.083   4.849 -30.944  1.00  0.00    -0.033 A 
HETATM   24  C   UNL     1      -7.784   4.657 -31.451  1.00  0.00     0.046 A 
HETATM   25  C   UNL     1      -7.025   5.723 -31.939  1.00  0.00     0.068 A 
HETATM   26  C   UNL     1      -7.524   7.020 -31.870  1.00  0.00     0.037 A 
HETATM   27  C   UNL     1      -8.787   7.243 -31.326  1.00  0.00     0.003 A 
HETATM   28  C   UNL     1      -9.555   6.170 -30.861  1.00  0.00     0.009 A 
BRANCH  25  29
HETATM   29  O   UNL     1      -5.785   5.401 -32.420  1.00  0.00    -0.356 OA
HETATM   30  C   UNL     1      -5.766   5.086 -33.809  1.00  0.00     0.210 C 
ENDBRANCH  25  29
ENDBRANCH   1  23
BRANCH   8  31
HETATM   31  C   UNL     1     -13.061   3.383 -32.667  1.00  0.00     0.409 C 
HETATM   32  F   UNL     1     -13.880   3.989 -31.776  1.00  0.00    -0.169 F 
HETATM   33  F   UNL     1     -13.364   3.913 -33.885  1.00  0.00    -0.169 F 
HETATM   34  F   UNL     1     -13.393   2.079 -32.736  1.00  0.00    -0.169 F 
ENDBRANCH   8  31
TORSDOF 6
ENDMDL
MODEL 10
REMARK VINA RESULT:      -8.4      4.336      6.876
REMARK  6 active torsions:
REMARK  status: ('A' for Active; 'I' for Inactive)
REMARK    1  A    between atoms: O_2  and  C_3 
REMARK    2  A    between atoms: C_5  and  C_6 
REMARK    3  A    between atoms: C_12  and  C_13 
REMARK       I    between atoms: C_13  and  N_14 
REMARK    4  A    between atoms: N_14  and  C_15 
REMARK    5  A    between atoms: C_17  and  O_18 
REMARK    6  A    between atoms: C_23  and  C_24 
ROOT
HETATM    1  C   UNL     1      -6.317   0.620 -31.548  1.00  0.00     0.118 C 
HETATM    2  N   UNL     1      -7.309   1.681 -31.828  1.00  0.00    -0.365 N 
HETATM    3  C   UNL     1      -6.934   2.728 -32.623  1.00  0.00     0.138 A 
HETATM    4  N   UNL     1      -5.607   2.973 -32.893  1.00  0.00    -0.240 N 
HETATM    5  N   UNL     1      -5.410   3.992 -33.740  1.00  0.00    -0.181 NA
HETATM    6  C   UNL     1      -6.643   4.462 -33.950  1.00  0.00     0.160 A 
HETATM    7  C   UNL     1      -7.645   3.715 -33.281  1.00  0.00     0.096 A 
HETATM    8  C   UNL     1      -4.500   2.208 -32.347  1.00  0.00     0.221 C 
HETATM    9  C   UNL     1      -4.994   1.314 -31.189  1.00  0.00     0.066 C 
HETATM   10  H   UNL     1      -7.871   1.908 -31.004  1.00  0.00     0.161 HD
ENDROOT
BRANCH   7  11
HETATM   11  C   UNL     1      -9.078   3.959 -33.339  1.00  0.00     0.261 C 
HETATM   12  N   UNL     1      -9.772   3.446 -32.261  1.00  0.00    -0.323 N 
HETATM   13  H   UNL     1      -9.216   2.889 -31.619  1.00  0.00     0.169 HD
HETATM   14  O   UNL     1      -9.566   4.566 -34.285  1.00  0.00    -0.267 OA
BRANCH  12  15
HETATM   15  C   UNL     1     -11.139   3.592 -31.957  1.00  0.00     0.037 A 
HETATM   16  C   UNL     1     -11.618   4.249 -30.821  1.00  0.00     0.066 A 
HETATM   17  C   UNL     1     -12.992   4.323 -30.590  1.00  0.00     0.067 A 
HETATM   18  C   UNL     1     -13.900   3.747 -31.468  1.00  0.00     0.036 A 
HETATM   19  C   UNL     1     -13.431   3.095 -32.605  1.00  0.00     0.005 A 
HETATM   20  C   UNL     1     -12.056   3.021 -32.850  1.00  0.00     0.029 A 
BRANCH  17  21
HETATM   21  O   UNL     1     -13.489   4.960 -29.490  1.00  0.00    -0.361 OA
HETATM   22  H   UNL     1     -14.364   5.322 -29.714  1.00  0.00     0.217 HD
ENDBRANCH  17  21
ENDBRANCH  12  15
ENDBRANCH   7  11
BRANCH   1  23
HETATM   23  C   UNL     1      -6.223  -0.389 -32.693  1.00  0.00    -0.033 A 
HETATM   24  C   UNL     1      -5.119  -1.252 -32.817  1.00  0.00     0.046 A 
HETATM   25  C   UNL     1      -5.045  -2.204 -33.837  1.00  0.00     0.068 A 
HETATM   26  C   UNL     1      -6.047  -2.268 -34.800  1.00  0.00     0.037 A 
HETATM   27  C   UNL     1      -7.127  -1.391 -34.729  1.00  0.00     0.003 A 
HETATM   28  C   UNL     1      -7.211  -0.456 -33.691  1.00  0.00     0.009 A 
BRANCH  25  29
HETATM   29  O   UNL     1      -3.928  -2.993 -33.836  1.00  0.00    -0.356 OA
HETATM   30  C   UNL     1      -4.183  -4.359 -34.147  1.00  0.00     0.210 C 
ENDBRANCH  25  29
ENDBRANCH   1  23
BRANCH   8  31
HETATM   31  C   UNL     1      -3.386   3.100 -31.843  1.00  0.00     0.409 C 
HETATM   32  F   UNL     1      -2.595   2.474 -30.941  1.00  0.00    -0.169 F 
HETATM   33  F   UNL     1      -2.578   3.443 -32.886  1.00  0.00    -0.169 F 
HETATM   34  F   UNL     1      -3.813   4.260 -31.307  1.00  0.00    -0.169 F 
ENDBRANCH   8  31
TORSDOF 6
ENDMDL
