MODEL 1
REMARK VINA RESULT:      -9.4      0.000      0.000
REMARK  4 active torsions:
REMARK  status: ('A' for Active; 'I' for Inactive)
REMARK    1  A    between atoms: C_5  and  N_6 
REMARK       I    between atoms: N_6  and  C_7 
REMARK    2  A    between atoms: C_7  and  C_8 
REMARK    3  A    between atoms: N_10  and  C_11 
REMARK    4  A    between atoms: C_12  and  O_13 
ROOT
HETATM    1  C   UNL     1      -5.275   2.671 -30.926  1.00  0.00     0.086 A 
HETATM    2  C   UNL     1      -4.350   3.688 -31.489  1.00  0.00     0.186 A 
HETATM    3  N   UNL     1      -3.464   3.385 -32.391  1.00  0.00    -0.221 NA
HETATM    4  O   UNL     1      -4.467   4.993 -31.025  1.00  0.00    -0.290 OA
HETATM    5  C   UNL     1      -5.451   5.360 -30.094  1.00  0.00     0.088 A 
HETATM    6  C   UNL     1      -6.340   4.415 -29.597  1.00  0.00    -0.001 A 
HETATM    7  C   UNL     1      -5.498   6.693 -29.696  1.00  0.00     0.038 A 
HETATM    8  C   UNL     1      -6.464   7.090 -28.775  1.00  0.00     0.003 A 
HETATM    9  C   UNL     1      -7.370   6.155 -28.266  1.00  0.00     0.001 A 
HETATM   10  C   UNL     1      -7.308   4.819 -28.676  1.00  0.00     0.014 A 
HETATM   11  C   UNL     1      -6.216   3.037 -30.039  1.00  0.00     0.035 A 
ENDROOT
BRANCH   1  12
HETATM   12  C   UNL     1      -5.209   1.201 -31.263  1.00  0.00     0.260 C 
HETATM   13  N   UNL     1      -5.743   0.866 -32.487  1.00  0.00    -0.323 N 
HETATM   14  H   UNL     1      -6.189   1.621 -33.010  1.00  0.00     0.169 HD
HETATM   15  O   UNL     1      -4.692   0.413 -30.473  1.00  0.00    -0.267 OA
BRANCH  13  16
HETATM   16  C   UNL     1      -5.718  -0.382 -33.141  1.00  0.00     0.035 A 
HETATM   17  C   UNL     1      -4.553  -1.073 -33.471  1.00  0.00     0.030 A 
HETATM   18  C   UNL     1      -4.621  -2.289 -34.162  1.00  0.00     0.009 A 
HETATM   19  C   UNL     1      -5.855  -2.839 -34.523  1.00  0.00    -0.062 A 
HETATM   20  C   UNL     1      -5.915  -4.116 -35.306  1.00  0.00     0.048 C 
HETATM   21  C   UNL     1      -7.023  -2.146 -34.194  1.00  0.00     0.009 A 
HETATM   22  C   UNL     1      -6.953  -0.932 -33.504  1.00  0.00     0.030 A 
ENDBRANCH  13  16
ENDBRANCH   1  12
BRANCH   3  23
HETATM   23  C   UNL     1      -2.607   4.397 -32.861  1.00  0.00     0.093 A 
HETATM   24  C   UNL     1      -1.474   4.816 -32.143  1.00  0.00     0.097 A 
HETATM   25  C   UNL     1      -0.706   5.895 -32.593  1.00  0.00     0.039 A 
HETATM   26  C   UNL     1      -1.044   6.549 -33.777  1.00  0.00     0.003 A 
HETATM   27  C   UNL     1      -2.162   6.140 -34.501  1.00  0.00     0.002 A 
HETATM   28  C   UNL     1      -2.943   5.078 -34.039  1.00  0.00     0.034 A 
BRANCH  24  29
HETATM   29  O   UNL     1      -1.104   4.273 -30.939  1.00  0.00    -0.354 OA
HETATM   30  C   UNL     1      -0.131   5.074 -30.270  1.00  0.00     0.210 C 
ENDBRANCH  24  29
ENDBRANCH   3  23
TORSDOF 4
ENDMDL
MODEL 2
REMARK VINA RESULT:      -9.3      2.508      8.291
REMARK  4 active torsions:
REMARK  status: ('A' for Active; 'I' for Inactive)
REMARK    1  A    between atoms: C_5  and  N_6 
REMARK       I    between atoms: N_6  and  C_7 
REMARK    2  A    between atoms: C_7  and  C_8 
REMARK    3  A    between atoms: N_10  and  C_11 
REMARK    4  A    between atoms: C_12  and  O_13 
ROOT
HETATM    1  C   UNL     1      -4.670   0.040 -32.901  1.00  0.00     0.086 A 
HETATM    2  C   UNL     1      -6.119   0.193 -33.188  1.00  0.00     0.186 A 
HETATM    3  N   UNL     1      -6.749   1.308 -32.964  1.00  0.00    -0.221 NA
HETATM    4  O   UNL     1      -6.791  -0.902 -33.718  1.00  0.00    -0.290 OA
HETATM    5  C   UNL     1      -6.125  -2.100 -34.023  1.00  0.00     0.088 A 
HETATM    6  C   UNL     1      -4.761  -2.228 -33.790  1.00  0.00    -0.001 A 
HETATM    7  C   UNL     1      -6.879  -3.138 -34.561  1.00  0.00     0.038 A 
HETATM    8  C   UNL     1      -6.248  -4.339 -34.877  1.00  0.00     0.003 A 
HETATM    9  C   UNL     1      -4.876  -4.487 -34.653  1.00  0.00     0.001 A 
HETATM   10  C   UNL     1      -4.134  -3.433 -34.110  1.00  0.00     0.014 A 
HETATM   11  C   UNL     1      -4.044  -1.110 -33.202  1.00  0.00     0.035 A 
ENDROOT
BRANCH   1  12
HETATM   12  C   UNL     1      -3.830   1.106 -32.242  1.00  0.00     0.260 C 
HETATM   13  N   UNL     1      -4.019   2.378 -32.737  1.00  0.00    -0.323 N 
HETATM   14  H   UNL     1      -4.647   2.464 -33.537  1.00  0.00     0.169 HD
HETATM   15  O   UNL     1      -3.064   0.806 -31.327  1.00  0.00    -0.267 OA
BRANCH  13  16
HETATM   16  C   UNL     1      -3.491   3.592 -32.255  1.00  0.00     0.035 A 
HETATM   17  C   UNL     1      -4.070   4.352 -31.240  1.00  0.00     0.030 A 
HETATM   18  C   UNL     1      -3.499   5.572 -30.854  1.00  0.00     0.009 A 
HETATM   19  C   UNL     1      -2.336   6.044 -31.470  1.00  0.00    -0.062 A 
HETATM   20  C   UNL     1      -1.762   7.375 -31.084  1.00  0.00     0.048 C 
HETATM   21  C   UNL     1      -1.757   5.284 -32.488  1.00  0.00     0.009 A 
HETATM   22  C   UNL     1      -2.327   4.066 -32.872  1.00  0.00     0.030 A 
ENDBRANCH  13  16
ENDBRANCH   1  12
BRANCH   3  23
HETATM   23  C   UNL     1      -8.128   1.371 -33.238  1.00  0.00     0.093 A 
HETATM   24  C   UNL     1      -8.727   2.498 -33.825  1.00  0.00     0.097 A 
HETATM   25  C   UNL     1     -10.114   2.563 -33.987  1.00  0.00     0.039 A 
HETATM   26  C   UNL     1     -10.915   1.493 -33.591  1.00  0.00     0.003 A 
HETATM   27  C   UNL     1     -10.333   0.367 -33.013  1.00  0.00     0.002 A 
HETATM   28  C   UNL     1      -8.950   0.313 -32.829  1.00  0.00     0.034 A 
BRANCH  24  29
HETATM   29  O   UNL     1      -8.025   3.621 -34.186  1.00  0.00    -0.354 OA
HETATM   30  C   UNL     1      -8.713   4.818 -33.827  1.00  0.00     0.210 C 
ENDBRANCH  24  29
ENDBRANCH   3  23
TORSDOF 4
ENDMDL
MODEL 3
REMARK VINA RESULT:      -9.2      4.008      7.118
REMARK  4 active torsions:
REMARK  status: ('A' for Active; 'I' for Inactive)
REMARK    1  A    between atoms: C_5  and  N_6 
REMARK       I    between atoms: N_6  and  C_7 
REMARK    2  A    between atoms: C_7  and  C_8 
REMARK    3  A    between atoms: N_10  and  C_11 
REMARK    4  A    between atoms: C_12  and  O_13 
ROOT
HETATM    1  C   UNL     1      -8.006   0.151 -33.017  1.00  0.00     0.086 A 
HETATM    2  C   UNL     1      -6.707   0.863 -32.898  1.00  0.00     0.186 A 
HETATM    3  N   UNL     1      -6.623   2.051 -32.375  1.00  0.00    -0.221 NA
HETATM    4  O   UNL     1      -5.570   0.212 -33.359  1.00  0.00    -0.290 OA
HETATM    5  C   UNL     1      -5.623  -1.092 -33.876  1.00  0.00     0.088 A 
HETATM    6  C   UNL     1      -6.833  -1.772 -33.951  1.00  0.00    -0.001 A 
HETATM    7  C   UNL     1      -4.430  -1.666 -34.303  1.00  0.00     0.038 A 
HETATM    8  C   UNL     1      -4.449  -2.960 -34.819  1.00  0.00     0.003 A 
HETATM    9  C   UNL     1      -5.655  -3.662 -34.900  1.00  0.00     0.001 A 
HETATM   10  C   UNL     1      -6.845  -3.069 -34.467  1.00  0.00     0.014 A 
HETATM   11  C   UNL     1      -8.042  -1.099 -33.509  1.00  0.00     0.035 A 
ENDROOT
BRANCH   1  12
HETATM   12  C   UNL     1      -9.334   0.763 -32.646  1.00  0.00     0.260 C 
HETATM   13  N   UNL     1     -10.298   0.689 -33.627  1.00  0.00    -0.323 N 
HETATM   14  H   UNL     1     -10.004   0.297 -34.523  1.00  0.00     0.169 HD
HETATM   15  O   UNL     1      -9.490   1.261 -31.532  1.00  0.00    -0.267 OA
BRANCH  13  16
HETATM   16  C   UNL     1     -11.659   1.045 -33.546  1.00  0.00     0.035 A 
HETATM   17  C   UNL     1     -12.120   2.348 -33.368  1.00  0.00     0.030 A 
HETATM   18  C   UNL     1     -13.492   2.605 -33.254  1.00  0.00     0.009 A 
HETATM   19  C   UNL     1     -14.424   1.565 -33.329  1.00  0.00    -0.062 A 
HETATM   20  C   UNL     1     -15.887   1.844 -33.155  1.00  0.00     0.048 C 
HETATM   21  C   UNL     1     -13.962   0.259 -33.506  1.00  0.00     0.009 A 
HETATM   22  C   UNL     1     -12.591   0.003 -33.619  1.00  0.00     0.030 A 
ENDBRANCH  13  16
ENDBRANCH   1  12
BRANCH   3  23
HETATM   23  C   UNL     1      -5.362   2.673 -32.317  1.00  0.00     0.093 A 
HETATM   24  C   UNL     1      -4.982   3.688 -33.212  1.00  0.00     0.097 A 
HETATM   25  C   UNL     1      -3.685   4.209 -33.188  1.00  0.00     0.039 A 
HETATM   26  C   UNL     1      -2.761   3.743 -32.252  1.00  0.00     0.003 A 
HETATM   27  C   UNL     1      -3.126   2.741 -31.357  1.00  0.00     0.002 A 
HETATM   28  C   UNL     1      -4.415   2.204 -31.397  1.00  0.00     0.034 A 
BRANCH  24  29
HETATM   29  O   UNL     1      -5.803   4.161 -34.204  1.00  0.00    -0.354 OA
HETATM   30  C   UNL     1      -6.698   5.163 -33.724  1.00  0.00     0.210 C 
ENDBRANCH  24  29
ENDBRANCH   3  23
TORSDOF 4
ENDMDL
MODEL 4
REMARK VINA RESULT:      -9.2      4.174      7.192
REMARK  4 active torsions:
REMARK  status: ('A' for Active; 'I' for Inactive)
REMARK    1  A    between atoms: C_5  and  N_6 
REMARK       I    between atoms: N_6  and  C_7 
REMARK    2  A    between atoms: C_7  and  C_8 
REMARK    3  A    between atoms: N_10  and  C_11 
REMARK    4  A    between atoms: C_12  and  O_13 
ROOT
HETATM    1  C   UNL     1      -7.924   0.689 -33.659  1.00  0.00     0.086 A 
HETATM    2  C   UNL     1      -6.606   1.266 -33.289  1.00  0.00     0.186 A 
HETATM    3  N   UNL     1      -6.493   2.477 -32.831  1.00  0.00    -0.221 NA
HETATM    4  O   UNL     1      -5.483   0.461 -33.442  1.00  0.00    -0.290 OA
HETATM    5  C   UNL     1      -5.582  -0.869 -33.881  1.00  0.00     0.088 A 
HETATM    6  C   UNL     1      -6.820  -1.420 -34.189  1.00  0.00    -0.001 A 
HETATM    7  C   UNL     1      -4.404  -1.601 -33.992  1.00  0.00     0.038 A 
HETATM    8  C   UNL     1      -4.468  -2.924 -34.423  1.00  0.00     0.003 A 
HETATM    9  C   UNL     1      -5.704  -3.497 -34.734  1.00  0.00     0.001 A 
HETATM   10  C   UNL     1      -6.878  -2.747 -34.618  1.00  0.00     0.014 A 
HETATM   11  C   UNL     1      -8.005  -0.587 -34.073  1.00  0.00     0.035 A 
ENDROOT
BRANCH   1  12
HETATM   12  C   UNL     1      -9.216   1.467 -33.635  1.00  0.00     0.260 C 
HETATM   13  N   UNL     1      -9.262   2.536 -34.502  1.00  0.00    -0.323 N 
HETATM   14  H   UNL     1      -8.404   2.738 -35.018  1.00  0.00     0.169 HD
HETATM   15  O   UNL     1     -10.129   1.118 -32.889  1.00  0.00    -0.267 OA
BRANCH  13  16
HETATM   16  C   UNL     1     -10.356   3.370 -34.808  1.00  0.00     0.035 A 
HETATM   17  C   UNL     1     -11.619   2.905 -35.171  1.00  0.00     0.030 A 
HETATM   18  C   UNL     1     -12.639   3.807 -35.502  1.00  0.00     0.009 A 
HETATM   19  C   UNL     1     -12.413   5.187 -35.464  1.00  0.00    -0.062 A 
HETATM   20  C   UNL     1     -13.495   6.142 -35.869  1.00  0.00     0.048 C 
HETATM   21  C   UNL     1     -11.147   5.652 -35.102  1.00  0.00     0.009 A 
HETATM   22  C   UNL     1     -10.130   4.751 -34.772  1.00  0.00     0.030 A 
ENDBRANCH  13  16
ENDBRANCH   1  12
BRANCH   3  23
HETATM   23  C   UNL     1      -5.209   2.965 -32.524  1.00  0.00     0.093 A 
HETATM   24  C   UNL     1      -4.548   3.905 -33.333  1.00  0.00     0.097 A 
HETATM   25  C   UNL     1      -3.232   4.286 -33.052  1.00  0.00     0.039 A 
HETATM   26  C   UNL     1      -2.572   3.755 -31.944  1.00  0.00     0.003 A 
HETATM   27  C   UNL     1      -3.218   2.826 -31.130  1.00  0.00     0.002 A 
HETATM   28  C   UNL     1      -4.523   2.428 -31.426  1.00  0.00     0.034 A 
BRANCH  24  29
HETATM   29  O   UNL     1      -5.096   4.430 -34.476  1.00  0.00    -0.354 OA
HETATM   30  C   UNL     1      -4.120   5.091 -35.280  1.00  0.00     0.210 C 
ENDBRANCH  24  29
ENDBRANCH   3  23
TORSDOF 4
ENDMDL
MODEL 5
REMARK VINA RESULT:      -9.1      1.536      4.899
REMARK  4 active torsions:
REMARK  status: ('A' for Active; 'I' for Inactive)
REMARK    1  A    between atoms: C_5  and  N_6 
REMARK       I    between atoms: N_6  and  C_7 
REMARK    2  A    between atoms: C_7  and  C_8 
REMARK    3  A    between atoms: N_10  and  C_11 
REMARK    4  A    between atoms: C_12  and  O_13 
ROOT
HETATM    1  C   UNL     1      -3.745   2.897 -32.103  1.00  0.00     0.086 A 
HETATM    2  C   UNL     1      -4.614   3.777 -31.279  1.00  0.00     0.186 A 
HETATM    3  N   UNL     1      -5.566   3.298 -30.535  1.00  0.00    -0.221 NA
HETATM    4  O   UNL     1      -4.371   5.145 -31.320  1.00  0.00    -0.290 OA
HETATM    5  C   UNL     1      -3.314   5.685 -32.071  1.00  0.00     0.088 A 
HETATM    6  C   UNL     1      -2.478   4.856 -32.809  1.00  0.00    -0.001 A 
HETATM    7  C   UNL     1      -3.142   7.065 -32.041  1.00  0.00     0.038 A 
HETATM    8  C   UNL     1      -2.101   7.632 -32.773  1.00  0.00     0.003 A 
HETATM    9  C   UNL     1      -1.247   6.816 -33.520  1.00  0.00     0.001 A 
HETATM   10  C   UNL     1      -1.435   5.430 -33.539  1.00  0.00     0.014 A 
HETATM   11  C   UNL     1      -2.734   3.426 -32.812  1.00  0.00     0.035 A 
ENDROOT
BRANCH   1  12
HETATM   12  C   UNL     1      -3.945   1.407 -32.231  1.00  0.00     0.260 C 
HETATM   13  N   UNL     1      -4.965   1.032 -33.077  1.00  0.00    -0.323 N 
HETATM   14  H   UNL     1      -5.525   1.788 -33.474  1.00  0.00     0.169 HD
HETATM   15  O   UNL     1      -3.211   0.634 -31.617  1.00  0.00    -0.267 OA
BRANCH  13  16
HETATM   16  C   UNL     1      -5.315  -0.263 -33.507  1.00  0.00     0.035 A 
HETATM   17  C   UNL     1      -4.398  -1.282 -33.758  1.00  0.00     0.030 A 
HETATM   18  C   UNL     1      -4.832  -2.529 -34.225  1.00  0.00     0.009 A 
HETATM   19  C   UNL     1      -6.192  -2.779 -34.438  1.00  0.00    -0.062 A 
HETATM   20  C   UNL     1      -6.642  -4.099 -34.986  1.00  0.00     0.048 C 
HETATM   21  C   UNL     1      -7.111  -1.757 -34.188  1.00  0.00     0.009 A 
HETATM   22  C   UNL     1      -6.676  -0.513 -33.721  1.00  0.00     0.030 A 
ENDBRANCH  13  16
ENDBRANCH   1  12
BRANCH   3  23
HETATM   23  C   UNL     1      -6.364   4.195 -29.801  1.00  0.00     0.093 A 
HETATM   24  C   UNL     1      -7.702   4.461 -30.137  1.00  0.00     0.097 A 
HETATM   25  C   UNL     1      -8.429   5.435 -29.447  1.00  0.00     0.039 A 
HETATM   26  C   UNL     1      -7.838   6.134 -28.394  1.00  0.00     0.003 A 
HETATM   27  C   UNL     1      -6.514   5.876 -28.047  1.00  0.00     0.002 A 
HETATM   28  C   UNL     1      -5.781   4.920 -28.753  1.00  0.00     0.034 A 
BRANCH  24  29
HETATM   29  O   UNL     1      -8.343   3.868 -31.196  1.00  0.00    -0.354 OA
HETATM   30  C   UNL     1      -9.352   2.957 -30.766  1.00  0.00     0.210 C 
ENDBRANCH  24  29
ENDBRANCH   3  23
TORSDOF 4
ENDMDL
MODEL 6
REMARK VINA RESULT:      -9.1     16.515     18.876
REMARK  4 active torsions:
REMARK  status: ('A' for Active; 'I' for Inactive)
REMARK    1  A    between atoms: C_5  and  N_6 
REMARK       I    between atoms: N_6  and  C_7 
REMARK    2  A    between atoms: C_7  and  C_8 
REMARK    3  A    between atoms: N_10  and  C_11 
REMARK    4  A    between atoms: C_12  and  O_13 
ROOT
HETATM    1  C   UNL     1      -5.573 -13.004 -38.368  1.00  0.00     0.086 A 
HETATM    2  C   UNL     1      -6.264 -13.767 -37.298  1.00  0.00     0.186 A 
HETATM    3  N   UNL     1      -5.616 -14.283 -36.295  1.00  0.00    -0.221 NA
HETATM    4  O   UNL     1      -7.643 -13.909 -37.395  1.00  0.00    -0.290 OA
HETATM    5  C   UNL     1      -8.375 -13.316 -38.435  1.00  0.00     0.088 A 
HETATM    6  C   UNL     1      -7.732 -12.569 -39.414  1.00  0.00    -0.001 A 
HETATM    7  C   UNL     1      -9.754 -13.505 -38.443  1.00  0.00     0.038 A 
HETATM    8  C   UNL     1     -10.510 -12.927 -39.461  1.00  0.00     0.003 A 
HETATM    9  C   UNL     1      -9.882 -12.170 -40.453  1.00  0.00     0.001 A 
HETATM   10  C   UNL     1      -8.494 -11.991 -40.431  1.00  0.00     0.014 A 
HETATM   11  C   UNL     1      -6.286 -12.437 -39.356  1.00  0.00     0.035 A 
ENDROOT
BRANCH   1  12
HETATM   12  C   UNL     1      -4.074 -12.843 -38.448  1.00  0.00     0.260 C 
HETATM   13  N   UNL     1      -3.371 -14.024 -38.532  1.00  0.00    -0.323 N 
HETATM   14  H   UNL     1      -3.918 -14.884 -38.461  1.00  0.00     0.169 HD
HETATM   15  O   UNL     1      -3.577 -11.718 -38.451  1.00  0.00    -0.267 OA
BRANCH  13  16
HETATM   16  C   UNL     1      -1.991 -14.209 -38.747  1.00  0.00     0.035 A 
HETATM   17  C   UNL     1      -1.373 -14.126 -39.994  1.00  0.00     0.030 A 
HETATM   18  C   UNL     1       0.001 -14.367 -40.123  1.00  0.00     0.009 A 
HETATM   19  C   UNL     1       0.779 -14.684 -39.005  1.00  0.00    -0.062 A 
HETATM   20  C   UNL     1       2.238 -14.990 -39.160  1.00  0.00     0.048 C 
HETATM   21  C   UNL     1       0.160 -14.769 -37.755  1.00  0.00     0.009 A 
HETATM   22  C   UNL     1      -1.212 -14.527 -37.629  1.00  0.00     0.030 A 
ENDBRANCH  13  16
ENDBRANCH   1  12
BRANCH   3  23
HETATM   23  C   UNL     1      -6.335 -15.013 -35.332  1.00  0.00     0.093 A 
HETATM   24  C   UNL     1      -6.852 -14.418 -34.168  1.00  0.00     0.097 A 
HETATM   25  C   UNL     1      -7.471 -15.197 -33.185  1.00  0.00     0.039 A 
HETATM   26  C   UNL     1      -7.606 -16.573 -33.366  1.00  0.00     0.003 A 
HETATM   27  C   UNL     1      -7.103 -17.175 -34.517  1.00  0.00     0.002 A 
HETATM   28  C   UNL     1      -6.463 -16.400 -35.487  1.00  0.00     0.034 A 
BRANCH  24  29
HETATM   29  O   UNL     1      -6.708 -13.085 -33.878  1.00  0.00    -0.354 OA
HETATM   30  C   UNL     1      -5.547 -12.833 -33.090  1.00  0.00     0.210 C 
ENDBRANCH  24  29
ENDBRANCH   3  23
TORSDOF 4
ENDMDL
MODEL 7
REMARK VINA RESULT:      -9.0      4.229      7.062
REMARK  4 active torsions:
REMARK  status: ('A' for Active; 'I' for Inactive)
REMARK    1  A    between atoms: C_5  and  N_6 
REMARK       I    between atoms: N_6  and  C_7 
REMARK    2  A    between atoms: C_7  and  C_8 
REMARK    3  A    between atoms: N_10  and  C_11 
REMARK    4  A    between atoms: C_12  and  O_13 
ROOT
HETATM    1  C   UNL     1      -8.184   0.827 -33.978  1.00  0.00     0.086 A 
HETATM    2  C   UNL     1      -6.971   1.543 -33.506  1.00  0.00     0.186 A 
HETATM    3  N   UNL     1      -7.017   2.778 -33.102  1.00  0.00    -0.221 NA
HETATM    4  O   UNL     1      -5.770   0.843 -33.502  1.00  0.00    -0.290 OA
HETATM    5  C   UNL     1      -5.701  -0.507 -33.879  1.00  0.00     0.088 A 
HETATM    6  C   UNL     1      -6.843  -1.187 -34.282  1.00  0.00    -0.001 A 
HETATM    7  C   UNL     1      -4.455  -1.127 -33.832  1.00  0.00     0.038 A 
HETATM    8  C   UNL     1      -4.353  -2.467 -34.198  1.00  0.00     0.003 A 
HETATM    9  C   UNL     1      -5.492  -3.169 -34.603  1.00  0.00     0.001 A 
HETATM   10  C   UNL     1      -6.735  -2.530 -34.646  1.00  0.00     0.014 A 
HETATM   11  C   UNL     1      -8.105  -0.467 -34.331  1.00  0.00     0.035 A 
ENDROOT
BRANCH   1  12
HETATM   12  C   UNL     1      -9.537   1.479 -34.126  1.00  0.00     0.260 C 
HETATM   13  N   UNL     1     -10.586   0.758 -33.599  1.00  0.00    -0.323 N 
HETATM   14  H   UNL     1     -10.359  -0.166 -33.227  1.00  0.00     0.169 HD
HETATM   15  O   UNL     1      -9.633   2.578 -34.670  1.00  0.00    -0.267 OA
BRANCH  13  16
HETATM   16  C   UNL     1     -11.933   1.145 -33.462  1.00  0.00     0.035 A 
HETATM   17  C   UNL     1     -12.349   2.422 -33.088  1.00  0.00     0.030 A 
HETATM   18  C   UNL     1     -13.712   2.708 -32.933  1.00  0.00     0.009 A 
HETATM   19  C   UNL     1     -14.679   1.723 -33.161  1.00  0.00    -0.062 A 
HETATM   20  C   UNL     1     -16.132   2.025 -32.944  1.00  0.00     0.048 C 
HETATM   21  C   UNL     1     -14.263   0.443 -33.534  1.00  0.00     0.009 A 
HETATM   22  C   UNL     1     -12.902   0.160 -33.688  1.00  0.00     0.030 A 
ENDBRANCH  13  16
ENDBRANCH   1  12
BRANCH   3  23
HETATM   23  C   UNL     1      -5.823   3.398 -32.693  1.00  0.00     0.093 A 
HETATM   24  C   UNL     1      -5.416   3.433 -31.348  1.00  0.00     0.097 A 
HETATM   25  C   UNL     1      -4.277   4.148 -30.968  1.00  0.00     0.039 A 
HETATM   26  C   UNL     1      -3.514   4.812 -31.928  1.00  0.00     0.003 A 
HETATM   27  C   UNL     1      -3.903   4.781 -33.266  1.00  0.00     0.002 A 
HETATM   28  C   UNL     1      -5.055   4.087 -33.642  1.00  0.00     0.034 A 
BRANCH  24  29
HETATM   29  O   UNL     1      -6.138   2.864 -30.329  1.00  0.00    -0.354 OA
HETATM   30  C   UNL     1      -5.645   1.571 -29.985  1.00  0.00     0.210 C 
ENDBRANCH  24  29
ENDBRANCH   3  23
TORSDOF 4
ENDMDL
MODEL 8
REMARK VINA RESULT:      -8.8      1.851      4.602
REMARK  4 active torsions:
REMARK  status: ('A' for Active; 'I' for Inactive)
REMARK    1  A    between atoms: C_5  and  N_6 
REMARK       I    between atoms: N_6  and  C_7 
REMARK    2  A    between atoms: C_7  and  C_8 
REMARK    3  A    between atoms: N_10  and  C_11 
REMARK    4  A    between atoms: C_12  and  O_13 
ROOT
HETATM    1  C   UNL     1      -4.265   2.700 -32.185  1.00  0.00     0.086 A 
HETATM    2  C   UNL     1      -5.353   3.670 -31.898  1.00  0.00     0.186 A 
HETATM    3  N   UNL     1      -6.554   3.281 -31.588  1.00  0.00    -0.221 NA
HETATM    4  O   UNL     1      -5.044   5.023 -31.964  1.00  0.00    -0.290 OA
HETATM    5  C   UNL     1      -3.743   5.471 -32.241  1.00  0.00     0.088 A 
HETATM    6  C   UNL     1      -2.717   4.562 -32.470  1.00  0.00    -0.001 A 
HETATM    7  C   UNL     1      -3.527   6.846 -32.275  1.00  0.00     0.038 A 
HETATM    8  C   UNL     1      -2.246   7.323 -32.546  1.00  0.00     0.003 A 
HETATM    9  C   UNL     1      -1.201   6.424 -32.776  1.00  0.00     0.001 A 
HETATM   10  C   UNL     1      -1.436   5.046 -32.739  1.00  0.00     0.014 A 
HETATM   11  C   UNL     1      -3.022   3.142 -32.444  1.00  0.00     0.035 A 
ENDROOT
BRANCH   1  12
HETATM   12  C   UNL     1      -4.468   1.206 -32.242  1.00  0.00     0.260 C 
HETATM   13  N   UNL     1      -5.182   0.762 -33.333  1.00  0.00    -0.323 N 
HETATM   14  H   UNL     1      -5.559   1.482 -33.951  1.00  0.00     0.169 HD
HETATM   15  O   UNL     1      -3.997   0.488 -31.361  1.00  0.00    -0.267 OA
BRANCH  13  16
HETATM   16  C   UNL     1      -5.427  -0.565 -33.738  1.00  0.00     0.035 A 
HETATM   17  C   UNL     1      -4.440  -1.543 -33.862  1.00  0.00     0.030 A 
HETATM   18  C   UNL     1      -4.768  -2.827 -34.315  1.00  0.00     0.009 A 
HETATM   19  C   UNL     1      -6.087  -3.156 -34.640  1.00  0.00    -0.062 A 
HETATM   20  C   UNL     1      -6.419  -4.518 -35.173  1.00  0.00     0.048 C 
HETATM   21  C   UNL     1      -7.075  -2.176 -34.519  1.00  0.00     0.009 A 
HETATM   22  C   UNL     1      -6.747  -0.894 -34.066  1.00  0.00     0.030 A 
ENDBRANCH  13  16
ENDBRANCH   1  12
BRANCH   3  23
HETATM   23  C   UNL     1      -7.539   4.258 -31.353  1.00  0.00     0.093 A 
HETATM   24  C   UNL     1      -7.782   4.789 -30.075  1.00  0.00     0.097 A 
HETATM   25  C   UNL     1      -8.838   5.681 -29.864  1.00  0.00     0.039 A 
HETATM   26  C   UNL     1      -9.645   6.075 -30.931  1.00  0.00     0.003 A 
HETATM   27  C   UNL     1      -9.411   5.560 -32.204  1.00  0.00     0.002 A 
HETATM   28  C   UNL     1      -8.372   4.650 -32.410  1.00  0.00     0.034 A 
BRANCH  24  29
HETATM   29  O   UNL     1      -7.081   4.411 -28.958  1.00  0.00    -0.354 OA
HETATM   30  C   UNL     1      -6.140   5.405 -28.556  1.00  0.00     0.210 C 
ENDBRANCH  24  29
ENDBRANCH   3  23
TORSDOF 4
ENDMDL
MODEL 9
REMARK VINA RESULT:      -8.7      2.921      7.223
REMARK  4 active torsions:
REMARK  status: ('A' for Active; 'I' for Inactive)
REMARK    1  A    between atoms: C_5  and  N_6 
REMARK       I    between atoms: N_6  and  C_7 
REMARK    2  A    between atoms: C_7  and  C_8 
REMARK    3  A    between atoms: N_10  and  C_11 
REMARK    4  A    between atoms: C_12  and  O_13 
ROOT
HETATM    1  C   UNL     1      -7.005   3.227 -33.506  1.00  0.00     0.086 A 
HETATM    2  C   UNL     1      -6.830   1.759 -33.646  1.00  0.00     0.186 A 
HETATM    3  N   UNL     1      -5.653   1.211 -33.702  1.00  0.00    -0.221 NA
HETATM    4  O   UNL     1      -7.977   0.976 -33.707  1.00  0.00    -0.290 OA
HETATM    5  C   UNL     1      -9.260   1.534 -33.593  1.00  0.00     0.088 A 
HETATM    6  C   UNL     1      -9.421   2.903 -33.422  1.00  0.00    -0.001 A 
HETATM    7  C   UNL     1     -10.348   0.668 -33.655  1.00  0.00     0.038 A 
HETATM    8  C   UNL     1     -11.634   1.191 -33.542  1.00  0.00     0.003 A 
HETATM    9  C   UNL     1     -11.817   2.565 -33.367  1.00  0.00     0.001 A 
HETATM   10  C   UNL     1     -10.712   3.421 -33.308  1.00  0.00     0.014 A 
HETATM   11  C   UNL     1      -8.239   3.748 -33.392  1.00  0.00     0.035 A 
ENDROOT
BRANCH   1  12
HETATM   12  C   UNL     1      -5.862   4.212 -33.518  1.00  0.00     0.260 C 
HETATM   13  N   UNL     1      -4.912   4.005 -32.542  1.00  0.00    -0.323 N 
HETATM   14  H   UNL     1      -5.106   3.260 -31.871  1.00  0.00     0.169 HD
HETATM   15  O   UNL     1      -5.826   5.101 -34.367  1.00  0.00    -0.267 OA
BRANCH  13  16
HETATM   16  C   UNL     1      -3.677   4.660 -32.370  1.00  0.00     0.035 A 
HETATM   17  C   UNL     1      -2.531   4.382 -33.114  1.00  0.00     0.030 A 
HETATM   18  C   UNL     1      -1.331   5.053 -32.844  1.00  0.00     0.009 A 
HETATM   19  C   UNL     1      -1.262   6.019 -31.835  1.00  0.00    -0.062 A 
HETATM   20  C   UNL     1       0.039   6.694 -31.521  1.00  0.00     0.048 C 
HETATM   21  C   UNL     1      -2.410   6.296 -31.089  1.00  0.00     0.009 A 
HETATM   22  C   UNL     1      -3.607   5.626 -31.359  1.00  0.00     0.030 A 
ENDBRANCH  13  16
ENDBRANCH   1  12
BRANCH   3  23
HETATM   23  C   UNL     1      -5.565  -0.185 -33.859  1.00  0.00     0.093 A 
HETATM   24  C   UNL     1      -4.459  -0.924 -33.408  1.00  0.00     0.097 A 
HETATM   25  C   UNL     1      -4.362  -2.293 -33.675  1.00  0.00     0.039 A 
HETATM   26  C   UNL     1      -5.381  -2.945 -34.368  1.00  0.00     0.003 A 
HETATM   27  C   UNL     1      -6.486  -2.224 -34.816  1.00  0.00     0.002 A 
HETATM   28  C   UNL     1      -6.571  -0.852 -34.571  1.00  0.00     0.034 A 
BRANCH  24  29
HETATM   29  O   UNL     1      -3.382  -0.356 -32.775  1.00  0.00    -0.354 OA
HETATM   30  C   UNL     1      -3.464  -0.493 -31.358  1.00  0.00     0.210 C 
ENDBRANCH  24  29
ENDBRANCH   3  23
TORSDOF 4
ENDMDL
MODEL 10
REMARK VINA RESULT:      -8.7      3.555      6.411
REMARK  4 active torsions:
REMARK  status: ('A' for Active; 'I' for Inactive)
REMARK    1  A    between atoms: C_5  and  N_6 
REMARK       I    between atoms: N_6  and  C_7 
REMARK    2  A    between atoms: C_7  and  C_8 
REMARK    3  A    between atoms: N_10  and  C_11 
REMARK    4  A    between atoms: C_12  and  O_13 
ROOT
HETATM    1  C   UNL     1      -6.890   3.172 -32.803  1.00  0.00     0.086 A 
HETATM    2  C   UNL     1      -5.919   2.048 -32.784  1.00  0.00     0.186 A 
HETATM    3  N   UNL     1      -6.307   0.808 -32.734  1.00  0.00    -0.221 NA
HETATM    4  O   UNL     1      -4.566   2.364 -32.829  1.00  0.00    -0.290 OA
HETATM    5  C   UNL     1      -4.121   3.691 -32.939  1.00  0.00     0.088 A 
HETATM    6  C   UNL     1      -5.031   4.738 -32.997  1.00  0.00    -0.001 A 
HETATM    7  C   UNL     1      -2.747   3.907 -32.989  1.00  0.00     0.038 A 
HETATM    8  C   UNL     1      -2.272   5.212 -33.100  1.00  0.00     0.003 A 
HETATM    9  C   UNL     1      -3.172   6.280 -33.163  1.00  0.00     0.001 A 
HETATM   10  C   UNL     1      -4.550   6.044 -33.111  1.00  0.00     0.014 A 
HETATM   11  C   UNL     1      -6.450   4.437 -32.914  1.00  0.00     0.035 A 
ENDROOT
BRANCH   1  12
HETATM   12  C   UNL     1      -8.382   2.993 -32.668  1.00  0.00     0.260 C 
HETATM   13  N   UNL     1      -8.977   2.309 -33.705  1.00  0.00    -0.323 N 
HETATM   14  H   UNL     1      -8.372   2.055 -34.487  1.00  0.00     0.169 HD
HETATM   15  O   UNL     1      -8.966   3.431 -31.678  1.00  0.00    -0.267 OA
BRANCH  13  16
HETATM   16  C   UNL     1     -10.312   1.870 -33.812  1.00  0.00     0.035 A 
HETATM   17  C   UNL     1     -10.773   0.639 -33.347  1.00  0.00     0.030 A 
HETATM   18  C   UNL     1     -12.110   0.265 -33.537  1.00  0.00     0.009 A 
HETATM   19  C   UNL     1     -13.007   1.121 -34.183  1.00  0.00    -0.062 A 
HETATM   20  C   UNL     1     -14.423   0.691 -34.426  1.00  0.00     0.048 C 
HETATM   21  C   UNL     1     -12.544   2.353 -34.651  1.00  0.00     0.009 A 
HETATM   22  C   UNL     1     -11.210   2.725 -34.461  1.00  0.00     0.030 A 
ENDBRANCH  13  16
ENDBRANCH   1  12
BRANCH   3  23
HETATM   23  C   UNL     1      -5.328  -0.203 -32.695  1.00  0.00     0.093 A 
HETATM   24  C   UNL     1      -5.280  -1.240 -33.641  1.00  0.00     0.097 A 
HETATM   25  C   UNL     1      -4.358  -2.282 -33.508  1.00  0.00     0.039 A 
HETATM   26  C   UNL     1      -3.455  -2.286 -32.446  1.00  0.00     0.003 A 
HETATM   27  C   UNL     1      -3.489  -1.261 -31.503  1.00  0.00     0.002 A 
HETATM   28  C   UNL     1      -4.426  -0.233 -31.623  1.00  0.00     0.034 A 
BRANCH  24  29
HETATM   29  O   UNL     1      -6.169  -1.351 -34.681  1.00  0.00    -0.354 OA
HETATM   30  C   UNL     1      -6.776  -2.641 -34.728  1.00  0.00     0.210 C 
ENDBRANCH  24  29
ENDBRANCH   3  23
TORSDOF 4
ENDMDL
