MODEL 1
REMARK VINA RESULT:      -8.1      0.000      0.000
REMARK  3 active torsions:
REMARK  status: ('A' for Active; 'I' for Inactive)
REMARK    1  A    between atoms: C_6  and  C_7 
REMARK       I    between atoms: C_7  and  N_8 
REMARK    2  A    between atoms: N_8  and  C_9 
REMARK    3  A    between atoms: C_12  and  C_13 
REMARK       I    between atoms: C_13  and  N_14 
ROOT
HETATM    1  C   UNL     1      -3.667   1.399 -32.204  1.00  0.00     0.280 C 
HETATM    2  N   UNL     1      -3.927   2.626 -32.788  1.00  0.00    -0.321 N 
HETATM    3  O   UNL     1      -2.900   1.206 -31.266  1.00  0.00    -0.265 OA
HETATM    4  H   UNL     1      -4.621   2.603 -33.528  1.00  0.00     0.169 HD
ENDROOT
BRANCH   2   5
HETATM    5  C   UNL     1      -3.324   3.867 -32.514  1.00  0.00     0.035 A 
HETATM    6  C   UNL     1      -2.208   4.361 -33.194  1.00  0.00     0.030 A 
HETATM    7  C   UNL     1      -1.690   5.628 -32.892  1.00  0.00     0.019 A 
HETATM    8  C   UNL     1      -2.288   6.418 -31.906  1.00  0.00     0.032 A 
HETATM    9  C   UNL     1      -3.388   5.915 -31.204  1.00  0.00     0.019 A 
HETATM   10  C   UNL     1      -3.904   4.652 -31.510  1.00  0.00     0.030 A 
BRANCH   8  11
HETATM   11  C   UNL     1      -1.788   7.775 -31.561  1.00  0.00     0.249 C 
HETATM   12  N   UNL     1      -1.305   7.970 -30.297  1.00  0.00    -0.366 N 
HETATM   13  H   UNL     1      -1.085   7.210 -29.671  1.00  0.00     0.159 HD
HETATM   14  H   UNL     1      -0.874   8.867 -30.116  1.00  0.00     0.159 HD
HETATM   15  O   UNL     1      -1.772   8.682 -32.383  1.00  0.00    -0.268 OA
ENDBRANCH   8  11
ENDBRANCH   2   5
BRANCH   1  16
HETATM   16  C   UNL     1      -4.398   0.313 -32.831  1.00  0.00     0.144 A 
HETATM   17  O   UNL     1      -3.710  -0.770 -33.319  1.00  0.00    -0.304 OA
HETATM   18  C   UNL     1      -4.634  -1.647 -33.802  1.00  0.00     0.086 A 
HETATM   19  C   UNL     1      -5.916  -1.136 -33.643  1.00  0.00     0.001 A 
HETATM   20  C   UNL     1      -4.352  -2.887 -34.369  1.00  0.00     0.038 A 
HETATM   21  C   UNL     1      -7.007  -1.909 -34.077  1.00  0.00     0.014 A 
HETATM   22  C   UNL     1      -5.754   0.130 -33.026  1.00  0.00     0.057 A 
HETATM   23  C   UNL     1      -6.756  -3.165 -34.648  1.00  0.00     0.001 A 
HETATM   24  C   UNL     1      -5.451  -3.643 -34.791  1.00  0.00     0.003 A 
ENDBRANCH   1  16
TORSDOF 3
ENDMDL
MODEL 2
REMARK VINA RESULT:      -8.0      2.580      8.609
REMARK  3 active torsions:
REMARK  status: ('A' for Active; 'I' for Inactive)
REMARK    1  A    between atoms: C_6  and  C_7 
REMARK       I    between atoms: C_7  and  N_8 
REMARK    2  A    between atoms: N_8  and  C_9 
REMARK    3  A    between atoms: C_12  and  C_13 
REMARK       I    between atoms: C_13  and  N_14 
ROOT
HETATM    1  C   UNL     1      -4.332   0.993 -31.557  1.00  0.00     0.280 C 
HETATM    2  N   UNL     1      -4.504   0.595 -32.871  1.00  0.00    -0.321 N 
HETATM    3  O   UNL     1      -4.463   0.274 -30.572  1.00  0.00    -0.265 OA
HETATM    4  H   UNL     1      -4.314   1.315 -33.559  1.00  0.00     0.169 HD
ENDROOT
BRANCH   2   5
HETATM    5  C   UNL     1      -4.945  -0.651 -33.353  1.00  0.00     0.035 A 
HETATM    6  C   UNL     1      -6.254  -0.910 -33.766  1.00  0.00     0.030 A 
HETATM    7  C   UNL     1      -6.608  -2.167 -34.275  1.00  0.00     0.019 A 
HETATM    8  C   UNL     1      -5.651  -3.180 -34.380  1.00  0.00     0.032 A 
HETATM    9  C   UNL     1      -4.346  -2.934 -33.940  1.00  0.00     0.019 A 
HETATM   10  C   UNL     1      -3.996  -1.677 -33.436  1.00  0.00     0.030 A 
BRANCH   8  11
HETATM   11  C   UNL     1      -5.969  -4.525 -34.930  1.00  0.00     0.249 C 
HETATM   12  N   UNL     1      -7.154  -4.672 -35.596  1.00  0.00    -0.366 N 
HETATM   13  H   UNL     1      -7.712  -3.889 -35.903  1.00  0.00     0.159 HD
HETATM   14  H   UNL     1      -7.304  -5.562 -36.053  1.00  0.00     0.159 HD
HETATM   15  O   UNL     1      -5.189  -5.462 -34.828  1.00  0.00    -0.268 OA
ENDBRANCH   8  11
ENDBRANCH   2   5
BRANCH   1  16
HETATM   16  C   UNL     1      -3.981   2.397 -31.439  1.00  0.00     0.144 A 
HETATM   17  O   UNL     1      -2.687   2.791 -31.674  1.00  0.00    -0.304 OA
HETATM   18  C   UNL     1      -2.652   4.146 -31.544  1.00  0.00     0.086 A 
HETATM   19  C   UNL     1      -3.909   4.635 -31.213  1.00  0.00     0.001 A 
HETATM   20  C   UNL     1      -1.525   4.945 -31.722  1.00  0.00     0.038 A 
HETATM   21  C   UNL     1      -4.070   6.022 -31.045  1.00  0.00     0.014 A 
HETATM   22  C   UNL     1      -4.756   3.501 -31.138  1.00  0.00     0.057 A 
HETATM   23  C   UNL     1      -2.955   6.854 -31.223  1.00  0.00     0.001 A 
HETATM   24  C   UNL     1      -1.706   6.323 -31.554  1.00  0.00     0.003 A 
ENDBRANCH   1  16
TORSDOF 3
ENDMDL
MODEL 3
REMARK VINA RESULT:      -7.8      5.845      7.255
REMARK  3 active torsions:
REMARK  status: ('A' for Active; 'I' for Inactive)
REMARK    1  A    between atoms: C_6  and  C_7 
REMARK       I    between atoms: C_7  and  N_8 
REMARK    2  A    between atoms: N_8  and  C_9 
REMARK    3  A    between atoms: C_12  and  C_13 
REMARK       I    between atoms: C_13  and  N_14 
ROOT
HETATM    1  C   UNL     1      -7.373   0.078 -34.788  1.00  0.00     0.280 C 
HETATM    2  N   UNL     1      -8.405   0.224 -33.877  1.00  0.00    -0.321 N 
HETATM    3  O   UNL     1      -7.178   0.796 -35.763  1.00  0.00    -0.265 OA
HETATM    4  H   UNL     1      -8.387  -0.438 -33.108  1.00  0.00     0.169 HD
ENDROOT
BRANCH   2   5
HETATM    5  C   UNL     1      -9.478   1.133 -33.914  1.00  0.00     0.035 A 
HETATM    6  C   UNL     1      -9.346   2.486 -34.235  1.00  0.00     0.030 A 
HETATM    7  C   UNL     1     -10.470   3.321 -34.293  1.00  0.00     0.019 A 
HETATM    8  C   UNL     1     -11.743   2.808 -34.031  1.00  0.00     0.032 A 
HETATM    9  C   UNL     1     -11.877   1.461 -33.681  1.00  0.00     0.019 A 
HETATM   10  C   UNL     1     -10.753   0.629 -33.628  1.00  0.00     0.030 A 
BRANCH   8  11
HETATM   11  C   UNL     1     -12.969   3.646 -34.096  1.00  0.00     0.249 C 
HETATM   12  N   UNL     1     -14.062   3.226 -33.391  1.00  0.00    -0.366 N 
HETATM   13  H   UNL     1     -14.016   2.507 -32.684  1.00  0.00     0.159 HD
HETATM   14  H   UNL     1     -14.849   3.862 -33.362  1.00  0.00     0.159 HD
HETATM   15  O   UNL     1     -12.997   4.696 -34.726  1.00  0.00    -0.268 OA
ENDBRANCH   8  11
ENDBRANCH   2   5
BRANCH   1  16
HETATM   16  C   UNL     1      -6.514  -1.052 -34.485  1.00  0.00     0.144 A 
HETATM   17  O   UNL     1      -6.870  -2.305 -34.920  1.00  0.00    -0.304 OA
HETATM   18  C   UNL     1      -5.874  -3.156 -34.545  1.00  0.00     0.086 A 
HETATM   19  C   UNL     1      -4.881  -2.469 -33.858  1.00  0.00     0.001 A 
HETATM   20  C   UNL     1      -5.837  -4.522 -34.811  1.00  0.00     0.038 A 
HETATM   21  C   UNL     1      -3.762  -3.184 -33.398  1.00  0.00     0.014 A 
HETATM   22  C   UNL     1      -5.307  -1.117 -33.816  1.00  0.00     0.057 A 
HETATM   23  C   UNL     1      -3.693  -4.561 -33.655  1.00  0.00     0.001 A 
HETATM   24  C   UNL     1      -4.713  -5.216 -34.348  1.00  0.00     0.003 A 
ENDBRANCH   1  16
TORSDOF 3
ENDMDL
MODEL 4
REMARK VINA RESULT:      -7.8     16.533     17.811
REMARK  3 active torsions:
REMARK  status: ('A' for Active; 'I' for Inactive)
REMARK    1  A    between atoms: C_6  and  C_7 
REMARK       I    between atoms: C_7  and  N_8 
REMARK    2  A    between atoms: N_8  and  C_9 
REMARK    3  A    between atoms: C_12  and  C_13 
REMARK       I    between atoms: C_13  and  N_14 
ROOT
HETATM    1  C   UNL     1      -4.355 -12.530 -39.032  1.00  0.00     0.280 C 
HETATM    2  N   UNL     1      -3.695 -13.683 -39.421  1.00  0.00    -0.321 N 
HETATM    3  O   UNL     1      -3.826 -11.543 -38.532  1.00  0.00    -0.265 OA
HETATM    4  H   UNL     1      -4.288 -14.382 -39.855  1.00  0.00     0.169 HD
ENDROOT
BRANCH   2   5
HETATM    5  C   UNL     1      -2.338 -14.011 -39.250  1.00  0.00     0.035 A 
HETATM    6  C   UNL     1      -1.397 -14.005 -40.283  1.00  0.00     0.030 A 
HETATM    7  C   UNL     1      -0.052 -14.302 -40.026  1.00  0.00     0.019 A 
HETATM    8  C   UNL     1       0.367 -14.607 -38.728  1.00  0.00     0.032 A 
HETATM    9  C   UNL     1      -0.577 -14.643 -37.697  1.00  0.00     0.019 A 
HETATM   10  C   UNL     1      -1.918 -14.341 -37.956  1.00  0.00     0.030 A 
BRANCH   8  11
HETATM   11  C   UNL     1       1.785 -14.912 -38.399  1.00  0.00     0.249 C 
HETATM   12  N   UNL     1       2.032 -16.003 -37.613  1.00  0.00    -0.366 N 
HETATM   13  H   UNL     1       1.338 -16.710 -37.421  1.00  0.00     0.159 HD
HETATM   14  H   UNL     1       3.005 -16.255 -37.489  1.00  0.00     0.159 HD
HETATM   15  O   UNL     1       2.707 -14.239 -38.841  1.00  0.00    -0.268 OA
ENDBRANCH   8  11
ENDBRANCH   2   5
BRANCH   1  16
HETATM   16  C   UNL     1      -5.786 -12.597 -39.264  1.00  0.00     0.144 A 
HETATM   17  O   UNL     1      -6.562 -13.394 -38.460  1.00  0.00    -0.304 OA
HETATM   18  C   UNL     1      -7.854 -13.231 -38.863  1.00  0.00     0.086 A 
HETATM   19  C   UNL     1      -7.921 -12.346 -39.931  1.00  0.00     0.001 A 
HETATM   20  C   UNL     1      -8.962 -13.851 -38.291  1.00  0.00     0.038 A 
HETATM   21  C   UNL     1      -9.180 -12.046 -40.480  1.00  0.00     0.014 A 
HETATM   22  C   UNL     1      -6.584 -11.951 -40.189  1.00  0.00     0.057 A 
HETATM   23  C   UNL     1     -10.316 -12.650 -39.922  1.00  0.00     0.001 A 
HETATM   24  C   UNL     1     -10.207 -13.536 -38.848  1.00  0.00     0.003 A 
ENDBRANCH   1  16
TORSDOF 3
ENDMDL
MODEL 5
REMARK VINA RESULT:      -7.7     16.523     18.094
REMARK  3 active torsions:
REMARK  status: ('A' for Active; 'I' for Inactive)
REMARK    1  A    between atoms: C_6  and  C_7 
REMARK       I    between atoms: C_7  and  N_8 
REMARK    2  A    between atoms: N_8  and  C_9 
REMARK    3  A    between atoms: C_12  and  C_13 
REMARK       I    between atoms: C_13  and  N_14 
ROOT
HETATM    1  C   UNL     1      -3.807 -12.924 -37.996  1.00  0.00     0.280 C 
HETATM    2  N   UNL     1      -4.648 -13.583 -38.875  1.00  0.00    -0.321 N 
HETATM    3  O   UNL     1      -4.124 -11.981 -37.279  1.00  0.00    -0.265 OA
HETATM    4  H   UNL     1      -4.224 -14.368 -39.358  1.00  0.00     0.169 HD
ENDROOT
BRANCH   2   5
HETATM    5  C   UNL     1      -5.980 -13.273 -39.204  1.00  0.00     0.035 A 
HETATM    6  C   UNL     1      -6.364 -12.622 -40.379  1.00  0.00     0.030 A 
HETATM    7  C   UNL     1      -7.717 -12.385 -40.657  1.00  0.00     0.019 A 
HETATM    8  C   UNL     1      -8.704 -12.803 -39.760  1.00  0.00     0.032 A 
HETATM    9  C   UNL     1      -8.323 -13.430 -38.570  1.00  0.00     0.019 A 
HETATM   10  C   UNL     1      -6.972 -13.668 -38.298  1.00  0.00     0.030 A 
BRANCH   8  11
HETATM   11  C   UNL     1     -10.154 -12.594 -40.016  1.00  0.00     0.249 C 
HETATM   12  N   UNL     1     -10.533 -11.405 -40.575  1.00  0.00    -0.366 N 
HETATM   13  H   UNL     1      -9.878 -10.765 -41.001  1.00  0.00     0.159 HD
HETATM   14  H   UNL     1     -11.507 -11.325 -40.838  1.00  0.00     0.159 HD
HETATM   15  O   UNL     1     -10.981 -13.462 -39.773  1.00  0.00    -0.268 OA
ENDBRANCH   8  11
ENDBRANCH   2   5
BRANCH   1  16
HETATM   16  C   UNL     1      -2.457 -13.458 -38.006  1.00  0.00     0.144 A 
HETATM   17  O   UNL     1      -2.094 -14.391 -37.066  1.00  0.00    -0.304 OA
HETATM   18  C   UNL     1      -0.807 -14.750 -37.335  1.00  0.00     0.086 A 
HETATM   19  C   UNL     1      -0.328 -14.049 -38.435  1.00  0.00     0.001 A 
HETATM   20  C   UNL     1      -0.066 -15.691 -36.625  1.00  0.00     0.038 A 
HETATM   21  C   UNL     1       0.986 -14.295 -38.869  1.00  0.00     0.014 A 
HETATM   22  C   UNL     1      -1.393 -13.213 -38.853  1.00  0.00     0.057 A 
HETATM   23  C   UNL     1       1.756 -15.242 -38.178  1.00  0.00     0.001 A 
HETATM   24  C   UNL     1       1.238 -15.926 -37.075  1.00  0.00     0.003 A 
ENDBRANCH   1  16
TORSDOF 3
ENDMDL
MODEL 6
REMARK VINA RESULT:      -7.7      1.610      2.340
REMARK  3 active torsions:
REMARK  status: ('A' for Active; 'I' for Inactive)
REMARK    1  A    between atoms: C_6  and  C_7 
REMARK       I    between atoms: C_7  and  N_8 
REMARK    2  A    between atoms: N_8  and  C_9 
REMARK    3  A    between atoms: C_12  and  C_13 
REMARK       I    between atoms: C_13  and  N_14 
ROOT
HETATM    1  C   UNL     1      -5.682   0.997 -33.655  1.00  0.00     0.280 C 
HETATM    2  N   UNL     1      -4.622   1.348 -32.837  1.00  0.00    -0.321 N 
HETATM    3  O   UNL     1      -6.541   1.766 -34.075  1.00  0.00    -0.265 OA
HETATM    4  H   UNL     1      -3.986   0.587 -32.621  1.00  0.00     0.169 HD
ENDROOT
BRANCH   2   5
HETATM    5  C   UNL     1      -4.351   2.596 -32.248  1.00  0.00     0.035 A 
HETATM    6  C   UNL     1      -5.171   3.204 -31.293  1.00  0.00     0.030 A 
HETATM    7  C   UNL     1      -4.812   4.431 -30.719  1.00  0.00     0.019 A 
HETATM    8  C   UNL     1      -3.623   5.064 -31.094  1.00  0.00     0.032 A 
HETATM    9  C   UNL     1      -2.815   4.473 -32.071  1.00  0.00     0.019 A 
HETATM   10  C   UNL     1      -3.174   3.246 -32.638  1.00  0.00     0.030 A 
BRANCH   8  11
HETATM   11  C   UNL     1      -3.187   6.356 -30.503  1.00  0.00     0.249 C 
HETATM   12  N   UNL     1      -2.157   6.327 -29.605  1.00  0.00    -0.366 N 
HETATM   13  H   UNL     1      -1.558   5.523 -29.483  1.00  0.00     0.159 HD
HETATM   14  H   UNL     1      -1.806   7.224 -29.296  1.00  0.00     0.159 HD
HETATM   15  O   UNL     1      -3.701   7.418 -30.829  1.00  0.00    -0.268 OA
ENDBRANCH   8  11
ENDBRANCH   2   5
BRANCH   1  16
HETATM   16  C   UNL     1      -5.700  -0.419 -33.973  1.00  0.00     0.144 A 
HETATM   17  O   UNL     1      -4.605  -1.191 -33.672  1.00  0.00    -0.304 OA
HETATM   18  C   UNL     1      -4.908  -2.471 -34.028  1.00  0.00     0.086 A 
HETATM   19  C   UNL     1      -6.186  -2.534 -34.570  1.00  0.00     0.001 A 
HETATM   20  C   UNL     1      -4.071  -3.572 -33.871  1.00  0.00     0.038 A 
HETATM   21  C   UNL     1      -6.679  -3.782 -34.989  1.00  0.00     0.014 A 
HETATM   22  C   UNL     1      -6.684  -1.206 -34.539  1.00  0.00     0.057 A 
HETATM   23  C   UNL     1      -5.862  -4.912 -34.839  1.00  0.00     0.001 A 
HETATM   24  C   UNL     1      -4.581  -4.806 -34.290  1.00  0.00     0.003 A 
ENDBRANCH   1  16
TORSDOF 3
ENDMDL
MODEL 7
REMARK VINA RESULT:      -7.5      3.763      4.224
REMARK  3 active torsions:
REMARK  status: ('A' for Active; 'I' for Inactive)
REMARK    1  A    between atoms: C_6  and  C_7 
REMARK       I    between atoms: C_7  and  N_8 
REMARK    2  A    between atoms: N_8  and  C_9 
REMARK    3  A    between atoms: C_12  and  C_13 
REMARK       I    between atoms: C_13  and  N_14 
ROOT
HETATM    1  C   UNL     1      -6.101   1.116 -32.952  1.00  0.00     0.280 C 
HETATM    2  N   UNL     1      -6.411   1.171 -31.605  1.00  0.00    -0.321 N 
HETATM    3  O   UNL     1      -5.908   2.085 -33.678  1.00  0.00    -0.265 OA
HETATM    4  H   UNL     1      -6.496   0.266 -31.154  1.00  0.00     0.169 HD
ENDROOT
BRANCH   2   5
HETATM    5  C   UNL     1      -6.661   2.307 -30.813  1.00  0.00     0.035 A 
HETATM    6  C   UNL     1      -5.660   3.080 -30.219  1.00  0.00     0.030 A 
HETATM    7  C   UNL     1      -5.986   4.224 -29.478  1.00  0.00     0.019 A 
HETATM    8  C   UNL     1      -7.321   4.610 -29.327  1.00  0.00     0.032 A 
HETATM    9  C   UNL     1      -8.327   3.822 -29.896  1.00  0.00     0.019 A 
HETATM   10  C   UNL     1      -7.998   2.683 -30.638  1.00  0.00     0.030 A 
BRANCH   8  11
HETATM   11  C   UNL     1      -7.719   5.824 -28.567  1.00  0.00     0.249 C 
HETATM   12  N   UNL     1      -8.991   6.293 -28.744  1.00  0.00    -0.366 N 
HETATM   13  H   UNL     1      -9.718   5.754 -29.191  1.00  0.00     0.159 HD
HETATM   14  H   UNL     1      -9.275   7.054 -28.140  1.00  0.00     0.159 HD
HETATM   15  O   UNL     1      -6.955   6.370 -27.782  1.00  0.00    -0.268 OA
ENDBRANCH   8  11
ENDBRANCH   2   5
BRANCH   1  16
HETATM   16  C   UNL     1      -6.034  -0.244 -33.457  1.00  0.00     0.144 A 
HETATM   17  O   UNL     1      -4.859  -0.946 -33.348  1.00  0.00    -0.304 OA
HETATM   18  C   UNL     1      -5.090  -2.192 -33.849  1.00  0.00     0.086 A 
HETATM   19  C   UNL     1      -6.401  -2.300 -34.294  1.00  0.00     0.001 A 
HETATM   20  C   UNL     1      -4.158  -3.225 -33.906  1.00  0.00     0.038 A 
HETATM   21  C   UNL     1      -6.828  -3.524 -34.839  1.00  0.00     0.014 A 
HETATM   22  C   UNL     1      -6.998  -1.038 -34.047  1.00  0.00     0.057 A 
HETATM   23  C   UNL     1      -5.914  -4.585 -34.905  1.00  0.00     0.001 A 
HETATM   24  C   UNL     1      -4.603  -4.436 -34.447  1.00  0.00     0.003 A 
ENDBRANCH   1  16
TORSDOF 3
ENDMDL
MODEL 8
REMARK VINA RESULT:      -7.5      2.579      8.628
REMARK  3 active torsions:
REMARK  status: ('A' for Active; 'I' for Inactive)
REMARK    1  A    between atoms: C_6  and  C_7 
REMARK       I    between atoms: C_7  and  N_8 
REMARK    2  A    between atoms: N_8  and  C_9 
REMARK    3  A    between atoms: C_12  and  C_13 
REMARK       I    between atoms: C_13  and  N_14 
ROOT
HETATM    1  C   UNL     1      -2.641   3.886 -32.420  1.00  0.00     0.280 C 
HETATM    2  N   UNL     1      -3.466   2.976 -31.782  1.00  0.00    -0.321 N 
HETATM    3  O   UNL     1      -2.388   3.898 -33.620  1.00  0.00    -0.265 OA
HETATM    4  H   UNL     1      -3.592   3.143 -30.790  1.00  0.00     0.169 HD
ENDROOT
BRANCH   2   5
HETATM    5  C   UNL     1      -4.102   1.845 -32.327  1.00  0.00     0.035 A 
HETATM    6  C   UNL     1      -5.368   1.869 -32.916  1.00  0.00     0.030 A 
HETATM    7  C   UNL     1      -5.919   0.708 -33.475  1.00  0.00     0.019 A 
HETATM    8  C   UNL     1      -5.203  -0.492 -33.454  1.00  0.00     0.032 A 
HETATM    9  C   UNL     1      -3.947  -0.527 -32.841  1.00  0.00     0.019 A 
HETATM   10  C   UNL     1      -3.400   0.634 -32.287  1.00  0.00     0.030 A 
BRANCH   8  11
HETATM   11  C   UNL     1      -5.734  -1.747 -34.050  1.00  0.00     0.249 C 
HETATM   12  N   UNL     1      -4.829  -2.645 -34.545  1.00  0.00    -0.366 N 
HETATM   13  H   UNL     1      -3.841  -2.595 -34.346  1.00  0.00     0.159 HD
HETATM   14  H   UNL     1      -5.203  -3.536 -34.848  1.00  0.00     0.159 HD
HETATM   15  O   UNL     1      -6.933  -1.993 -34.068  1.00  0.00    -0.268 OA
ENDBRANCH   8  11
ENDBRANCH   2   5
BRANCH   1  16
HETATM   16  C   UNL     1      -2.065   4.856 -31.506  1.00  0.00     0.144 A 
HETATM   17  O   UNL     1      -0.921   4.536 -30.817  1.00  0.00    -0.304 OA
HETATM   18  C   UNL     1      -0.579   5.631 -30.081  1.00  0.00     0.086 A 
HETATM   19  C   UNL     1      -1.498   6.654 -30.277  1.00  0.00     0.001 A 
HETATM   20  C   UNL     1       0.535   5.730 -29.252  1.00  0.00     0.038 A 
HETATM   21  C   UNL     1      -1.304   7.872 -29.602  1.00  0.00     0.014 A 
HETATM   22  C   UNL     1      -2.457   6.142 -31.188  1.00  0.00     0.057 A 
HETATM   23  C   UNL     1      -0.188   8.005 -28.764  1.00  0.00     0.001 A 
HETATM   24  C   UNL     1       0.714   6.952 -28.593  1.00  0.00     0.003 A 
ENDBRANCH   1  16
TORSDOF 3
ENDMDL
MODEL 9
REMARK VINA RESULT:      -7.4      6.189      8.790
REMARK  3 active torsions:
REMARK  status: ('A' for Active; 'I' for Inactive)
REMARK    1  A    between atoms: C_6  and  C_7 
REMARK       I    between atoms: C_7  and  N_8 
REMARK    2  A    between atoms: N_8  and  C_9 
REMARK    3  A    between atoms: C_12  and  C_13 
REMARK       I    between atoms: C_13  and  N_14 
ROOT
HETATM    1  C   UNL     1     -10.202   1.596 -33.840  1.00  0.00     0.280 C 
HETATM    2  N   UNL     1      -9.687   0.381 -33.425  1.00  0.00    -0.321 N 
HETATM    3  O   UNL     1      -9.572   2.475 -34.419  1.00  0.00    -0.265 OA
HETATM    4  H   UNL     1     -10.365  -0.241 -32.997  1.00  0.00     0.169 HD
ENDROOT
BRANCH   2   5
HETATM    5  C   UNL     1      -8.355  -0.069 -33.486  1.00  0.00     0.035 A 
HETATM    6  C   UNL     1      -7.733  -0.511 -34.655  1.00  0.00     0.030 A 
HETATM    7  C   UNL     1      -6.387  -0.904 -34.644  1.00  0.00     0.019 A 
HETATM    8  C   UNL     1      -5.648  -0.854 -33.459  1.00  0.00     0.032 A 
HETATM    9  C   UNL     1      -6.276  -0.440 -32.280  1.00  0.00     0.019 A 
HETATM   10  C   UNL     1      -7.617  -0.045 -32.296  1.00  0.00     0.030 A 
BRANCH   8  11
HETATM   11  C   UNL     1      -4.214  -1.242 -33.398  1.00  0.00     0.249 C 
HETATM   12  N   UNL     1      -3.915  -2.575 -33.453  1.00  0.00    -0.366 N 
HETATM   13  H   UNL     1      -4.585  -3.276 -33.734  1.00  0.00     0.159 HD
HETATM   14  H   UNL     1      -2.933  -2.812 -33.517  1.00  0.00     0.159 HD
HETATM   15  O   UNL     1      -3.324  -0.404 -33.337  1.00  0.00    -0.268 OA
ENDBRANCH   8  11
ENDBRANCH   2   5
BRANCH   1  16
HETATM   16  C   UNL     1     -11.605   1.755 -33.503  1.00  0.00     0.144 A 
HETATM   17  O   UNL     1     -12.014   2.880 -32.832  1.00  0.00    -0.304 OA
HETATM   18  C   UNL     1     -13.367   2.793 -32.692  1.00  0.00     0.086 A 
HETATM   19  C   UNL     1     -13.838   1.614 -33.256  1.00  0.00     0.001 A 
HETATM   20  C   UNL     1     -14.179   3.745 -32.081  1.00  0.00     0.038 A 
HETATM   21  C   UNL     1     -15.218   1.352 -33.216  1.00  0.00     0.014 A 
HETATM   22  C   UNL     1     -12.695   0.948 -33.767  1.00  0.00     0.057 A 
HETATM   23  C   UNL     1     -16.063   2.295 -32.612  1.00  0.00     0.001 A 
HETATM   24  C   UNL     1     -15.551   3.469 -32.055  1.00  0.00     0.003 A 
ENDBRANCH   1  16
TORSDOF 3
ENDMDL
MODEL 10
REMARK VINA RESULT:      -7.4      5.362      7.585
REMARK  3 active torsions:
REMARK  status: ('A' for Active; 'I' for Inactive)
REMARK    1  A    between atoms: C_6  and  C_7 
REMARK       I    between atoms: C_7  and  N_8 
REMARK    2  A    between atoms: N_8  and  C_9 
REMARK    3  A    between atoms: C_12  and  C_13 
REMARK       I    between atoms: C_13  and  N_14 
ROOT
HETATM    1  C   UNL     1      -9.113   1.862 -33.196  1.00  0.00     0.280 C 
HETATM    2  N   UNL     1      -8.599   0.631 -32.830  1.00  0.00    -0.321 N 
HETATM    3  O   UNL     1      -8.452   2.868 -33.429  1.00  0.00    -0.265 OA
HETATM    4  H   UNL     1      -9.294  -0.100 -32.717  1.00  0.00     0.169 HD
ENDROOT
BRANCH   2   5
HETATM    5  C   UNL     1      -7.261   0.290 -32.559  1.00  0.00     0.035 A 
HETATM    6  C   UNL     1      -6.307   0.027 -33.544  1.00  0.00     0.030 A 
HETATM    7  C   UNL     1      -4.981  -0.264 -33.196  1.00  0.00     0.019 A 
HETATM    8  C   UNL     1      -4.594  -0.292 -31.854  1.00  0.00     0.032 A 
HETATM    9  C   UNL     1      -5.553  -0.058 -30.863  1.00  0.00     0.019 A 
HETATM   10  C   UNL     1      -6.874   0.236 -31.214  1.00  0.00     0.030 A 
BRANCH   8  11
HETATM   11  C   UNL     1      -3.197  -0.578 -31.432  1.00  0.00     0.249 C 
HETATM   12  N   UNL     1      -2.734  -1.853 -31.599  1.00  0.00    -0.366 N 
HETATM   13  H   UNL     1      -3.207  -2.539 -32.167  1.00  0.00     0.159 HD
HETATM   14  H   UNL     1      -1.751  -2.001 -31.406  1.00  0.00     0.159 HD
HETATM   15  O   UNL     1      -2.469   0.299 -30.985  1.00  0.00    -0.268 OA
ENDBRANCH   8  11
ENDBRANCH   2   5
BRANCH   1  16
HETATM   16  C   UNL     1     -10.563   1.864 -33.270  1.00  0.00     0.144 A 
HETATM   17  O   UNL     1     -11.209   0.810 -33.867  1.00  0.00    -0.304 OA
HETATM   18  C   UNL     1     -12.546   1.045 -33.754  1.00  0.00     0.086 A 
HETATM   19  C   UNL     1     -12.774   2.249 -33.101  1.00  0.00     0.001 A 
HETATM   20  C   UNL     1     -13.555   0.203 -34.215  1.00  0.00     0.038 A 
HETATM   21  C   UNL     1     -14.102   2.657 -32.884  1.00  0.00     0.014 A 
HETATM   22  C   UNL     1     -11.491   2.774 -32.802  1.00  0.00     0.057 A 
HETATM   23  C   UNL     1     -15.141   1.828 -33.332  1.00  0.00     0.001 A 
HETATM   24  C   UNL     1     -14.870   0.624 -33.986  1.00  0.00     0.003 A 
ENDBRANCH   1  16
TORSDOF 3
ENDMDL
