MODEL 1
REMARK VINA RESULT:      -8.8      0.000      0.000
REMARK  7 active torsions:
REMARK  status: ('A' for Active; 'I' for Inactive)
REMARK    1  A    between atoms: C_5  and  C_6 
REMARK    2  A    between atoms: C_9  and  C_10 
REMARK       I    between atoms: C_10  and  N_11 
REMARK    3  A    between atoms: N_11  and  N_12 
REMARK       I    between atoms: N_12  and  C_13 
REMARK    4  A    between atoms: C_13  and  C_14 
REMARK    5  A    between atoms: C_14  and  N_15 
REMARK    6  A    between atoms: N_15  and  C_16 
REMARK    7  A    between atoms: C_18  and  O_19 
ROOT
HETATM    1  C   UNL     1      -2.907   3.275 -32.132  1.00  0.00     0.289 C 
HETATM    2  N   UNL     1      -2.768   3.723 -33.433  1.00  0.00    -0.262 N 
HETATM    3  O   UNL     1      -2.233   3.708 -31.199  1.00  0.00    -0.264 OA
HETATM    4  H   UNL     1      -3.510   3.511 -34.099  1.00  0.00     0.190 HD
ENDROOT
BRANCH   2   5
HETATM    5  N   UNL     1      -1.990   4.871 -33.655  1.00  0.00    -0.266 N 
HETATM    6  C   UNL     1      -2.656   6.074 -33.827  1.00  0.00     0.253 C 
HETATM    7  O   UNL     1      -3.868   6.151 -34.031  1.00  0.00    -0.270 OA
HETATM    8  H   UNL     1      -1.073   4.859 -33.213  1.00  0.00     0.190 HD
BRANCH   6   9
HETATM    9  C   UNL     1      -1.743   7.306 -33.779  1.00  0.00     0.224 C 
BRANCH   9  10
HETATM   10  N   UNL     1      -1.856   7.939 -32.465  1.00  0.00    -0.381 N 
HETATM   11  H   UNL     1      -2.812   8.253 -32.284  1.00  0.00     0.160 HD
BRANCH  10  12
HETATM   12  C   UNL     1      -1.253   7.365 -31.344  1.00  0.00     0.030 A 
HETATM   13  C   UNL     1      -1.910   7.477 -30.107  1.00  0.00     0.065 A 
HETATM   14  C   UNL     1      -1.331   7.008 -28.924  1.00  0.00     0.070 A 
HETATM   15  C   UNL     1      -0.060   6.438 -28.968  1.00  0.00     0.037 A 
HETATM   16  C   UNL     1       0.626   6.349 -30.178  1.00  0.00     0.005 A 
HETATM   17  C   UNL     1       0.037   6.822 -31.353  1.00  0.00     0.029 A 
BRANCH  14  18
HETATM   18  O   UNL     1      -1.890   7.059 -27.676  1.00  0.00    -0.356 OA
HETATM   19  C   UNL     1      -1.044   7.474 -26.611  1.00  0.00     0.210 C 
ENDBRANCH  14  18
ENDBRANCH  10  12
ENDBRANCH   9  10
ENDBRANCH   6   9
ENDBRANCH   2   5
BRANCH   1  20
HETATM   20  C   UNL     1      -3.928   2.239 -31.981  1.00  0.00     0.134 A 
HETATM   21  C   UNL     1      -4.827   2.193 -30.936  1.00  0.00     0.089 A 
HETATM   22  S   UNL     1      -5.837   0.825 -31.087  1.00  0.00    -0.079 SA
HETATM   23  C   UNL     1      -5.003   0.350 -32.522  1.00  0.00     0.108 A 
HETATM   24  N   UNL     1      -4.056   1.194 -32.900  1.00  0.00    -0.235 NA
BRANCH  23  25
HETATM   25  C   UNL     1      -5.338  -0.895 -33.246  1.00  0.00    -0.000 A 
HETATM   26  C   UNL     1      -4.373  -1.814 -33.688  1.00  0.00     0.015 A 
HETATM   27  C   UNL     1      -4.741  -2.965 -34.397  1.00  0.00     0.007 A 
HETATM   28  C   UNL     1      -6.082  -3.222 -34.690  1.00  0.00    -0.062 A 
HETATM   29  C   UNL     1      -6.485  -4.454 -35.443  1.00  0.00     0.048 C 
HETATM   30  C   UNL     1      -7.053  -2.321 -34.246  1.00  0.00     0.007 A 
HETATM   31  C   UNL     1      -6.684  -1.172 -33.539  1.00  0.00     0.015 A 
ENDBRANCH  23  25
ENDBRANCH   1  20
TORSDOF 7
ENDMDL
MODEL 2
REMARK VINA RESULT:      -8.5      1.854      2.294
REMARK  7 active torsions:
REMARK  status: ('A' for Active; 'I' for Inactive)
REMARK    1  A    between atoms: C_5  and  C_6 
REMARK    2  A    between atoms: C_9  and  C_10 
REMARK       I    between atoms: C_10  and  N_11 
REMARK    3  A    between atoms: N_11  and  N_12 
REMARK       I    between atoms: N_12  and  C_13 
REMARK    4  A    between atoms: C_13  and  C_14 
REMARK    5  A    between atoms: C_14  and  N_15 
REMARK    6  A    between atoms: N_15  and  C_16 
REMARK    7  A    between atoms: C_18  and  O_19 
ROOT
HETATM    1  C   UNL     1      -4.385   3.701 -31.493  1.00  0.00     0.289 C 
HETATM    2  N   UNL     1      -3.070   3.278 -31.427  1.00  0.00    -0.262 N 
HETATM    3  O   UNL     1      -4.798   4.699 -30.906  1.00  0.00    -0.264 OA
HETATM    4  H   UNL     1      -2.742   2.605 -32.119  1.00  0.00     0.190 HD
ENDROOT
BRANCH   2   5
HETATM    5  N   UNL     1      -2.126   4.148 -30.855  1.00  0.00    -0.266 N 
HETATM    6  C   UNL     1      -1.412   4.972 -31.709  1.00  0.00     0.253 C 
HETATM    7  O   UNL     1      -1.386   4.817 -32.931  1.00  0.00    -0.270 OA
HETATM    8  H   UNL     1      -2.354   4.468 -29.916  1.00  0.00     0.190 HD
BRANCH   6   9
HETATM    9  C   UNL     1      -0.621   6.076 -30.996  1.00  0.00     0.224 C 
BRANCH   9  10
HETATM   10  N   UNL     1      -1.253   6.369 -29.710  1.00  0.00    -0.381 N 
HETATM   11  H   UNL     1      -1.756   5.556 -29.349  1.00  0.00     0.160 HD
BRANCH  10  12
HETATM   12  C   UNL     1      -0.558   7.062 -28.718  1.00  0.00     0.030 A 
HETATM   13  C   UNL     1      -1.232   7.357 -27.519  1.00  0.00     0.065 A 
HETATM   14  C   UNL     1      -0.637   8.124 -26.513  1.00  0.00     0.070 A 
HETATM   15  C   UNL     1       0.646   8.630 -26.713  1.00  0.00     0.037 A 
HETATM   16  C   UNL     1       1.319   8.382 -27.907  1.00  0.00     0.005 A 
HETATM   17  C   UNL     1       0.713   7.615 -28.905  1.00  0.00     0.029 A 
BRANCH  14  18
HETATM   18  O   UNL     1      -1.201   8.455 -25.311  1.00  0.00    -0.356 OA
HETATM   19  C   UNL     1      -2.512   7.963 -25.061  1.00  0.00     0.210 C 
ENDBRANCH  14  18
ENDBRANCH  10  12
ENDBRANCH   9  10
ENDBRANCH   6   9
ENDBRANCH   2   5
BRANCH   1  20
HETATM   20  C   UNL     1      -5.229   2.842 -32.323  1.00  0.00     0.134 A 
HETATM   21  C   UNL     1      -6.426   3.246 -32.875  1.00  0.00     0.089 A 
HETATM   22  S   UNL     1      -7.135   1.963 -33.750  1.00  0.00    -0.079 SA
HETATM   23  C   UNL     1      -5.822   0.928 -33.321  1.00  0.00     0.108 A 
HETATM   24  N   UNL     1      -4.877   1.520 -32.609  1.00  0.00    -0.235 NA
BRANCH  23  25
HETATM   25  C   UNL     1      -5.780  -0.493 -33.729  1.00  0.00    -0.000 A 
HETATM   26  C   UNL     1      -4.602  -1.256 -33.751  1.00  0.00     0.015 A 
HETATM   27  C   UNL     1      -4.611  -2.592 -34.175  1.00  0.00     0.007 A 
HETATM   28  C   UNL     1      -5.798  -3.196 -34.596  1.00  0.00    -0.062 A 
HETATM   29  C   UNL     1      -5.817  -4.626 -35.046  1.00  0.00     0.048 C 
HETATM   30  C   UNL     1      -6.979  -2.451 -34.569  1.00  0.00     0.007 A 
HETATM   31  C   UNL     1      -6.968  -1.117 -34.146  1.00  0.00     0.015 A 
ENDBRANCH  23  25
ENDBRANCH   1  20
TORSDOF 7
ENDMDL
MODEL 3
REMARK VINA RESULT:      -8.3      1.799      2.247
REMARK  7 active torsions:
REMARK  status: ('A' for Active; 'I' for Inactive)
REMARK    1  A    between atoms: C_5  and  C_6 
REMARK    2  A    between atoms: C_9  and  C_10 
REMARK       I    between atoms: C_10  and  N_11 
REMARK    3  A    between atoms: N_11  and  N_12 
REMARK       I    between atoms: N_12  and  C_13 
REMARK    4  A    between atoms: C_13  and  C_14 
REMARK    5  A    between atoms: C_14  and  N_15 
REMARK    6  A    between atoms: N_15  and  C_16 
REMARK    7  A    between atoms: C_18  and  O_19 
ROOT
HETATM    1  C   UNL     1      -5.935   4.073 -33.431  1.00  0.00     0.289 C 
HETATM    2  N   UNL     1      -4.806   4.378 -32.692  1.00  0.00    -0.262 N 
HETATM    3  O   UNL     1      -6.437   4.852 -34.238  1.00  0.00    -0.264 OA
HETATM    4  H   UNL     1      -4.306   3.615 -32.236  1.00  0.00     0.190 HD
ENDROOT
BRANCH   2   5
HETATM    5  N   UNL     1      -4.078   5.526 -33.044  1.00  0.00    -0.266 N 
HETATM    6  C   UNL     1      -2.833   5.344 -33.622  1.00  0.00     0.253 C 
HETATM    7  O   UNL     1      -2.240   4.264 -33.623  1.00  0.00    -0.270 OA
HETATM    8  H   UNL     1      -4.646   6.328 -33.308  1.00  0.00     0.190 HD
BRANCH   6   9
HETATM    9  C   UNL     1      -2.233   6.618 -34.230  1.00  0.00     0.224 C 
BRANCH   9  10
HETATM   10  N   UNL     1      -1.002   6.960 -33.518  1.00  0.00    -0.381 N 
HETATM   11  H   UNL     1      -0.361   7.488 -34.113  1.00  0.00     0.160 HD
BRANCH  10  12
HETATM   12  C   UNL     1      -1.049   7.444 -32.209  1.00  0.00     0.030 A 
HETATM   13  C   UNL     1      -0.176   6.881 -31.262  1.00  0.00     0.065 A 
HETATM   14  C   UNL     1      -0.221   7.246 -29.914  1.00  0.00     0.070 A 
HETATM   15  C   UNL     1      -1.173   8.173 -29.492  1.00  0.00     0.037 A 
HETATM   16  C   UNL     1      -2.074   8.718 -30.405  1.00  0.00     0.005 A 
HETATM   17  C   UNL     1      -2.018   8.343 -31.751  1.00  0.00     0.029 A 
BRANCH  14  18
HETATM   18  O   UNL     1       0.589   6.768 -28.920  1.00  0.00    -0.356 OA
HETATM   19  C   UNL     1       0.977   7.691 -27.910  1.00  0.00     0.210 C 
ENDBRANCH  14  18
ENDBRANCH  10  12
ENDBRANCH   9  10
ENDBRANCH   6   9
ENDBRANCH   2   5
BRANCH   1  20
HETATM   20  C   UNL     1      -6.469   2.741 -33.151  1.00  0.00     0.134 A 
HETATM   21  C   UNL     1      -7.497   2.497 -32.264  1.00  0.00     0.089 A 
HETATM   22  S   UNL     1      -7.821   0.823 -32.182  1.00  0.00    -0.079 SA
HETATM   23  C   UNL     1      -6.554   0.509 -33.311  1.00  0.00     0.108 A 
HETATM   24  N   UNL     1      -5.955   1.597 -33.767  1.00  0.00    -0.235 NA
BRANCH  23  25
HETATM   25  C   UNL     1      -6.191  -0.866 -33.717  1.00  0.00    -0.000 A 
HETATM   26  C   UNL     1      -4.873  -1.350 -33.710  1.00  0.00     0.015 A 
HETATM   27  C   UNL     1      -4.577  -2.653 -34.133  1.00  0.00     0.007 A 
HETATM   28  C   UNL     1      -5.591  -3.502 -34.582  1.00  0.00    -0.062 A 
HETATM   29  C   UNL     1      -5.285  -4.899 -35.032  1.00  0.00     0.048 C 
HETATM   30  C   UNL     1      -6.909  -3.036 -34.584  1.00  0.00     0.007 A 
HETATM   31  C   UNL     1      -7.202  -1.735 -34.162  1.00  0.00     0.015 A 
ENDBRANCH  23  25
ENDBRANCH   1  20
TORSDOF 7
ENDMDL
MODEL 4
REMARK VINA RESULT:      -8.1      2.909     10.319
REMARK  7 active torsions:
REMARK  status: ('A' for Active; 'I' for Inactive)
REMARK    1  A    between atoms: C_5  and  C_6 
REMARK    2  A    between atoms: C_9  and  C_10 
REMARK       I    between atoms: C_10  and  N_11 
REMARK    3  A    between atoms: N_11  and  N_12 
REMARK       I    between atoms: N_12  and  C_13 
REMARK    4  A    between atoms: C_13  and  C_14 
REMARK    5  A    between atoms: C_14  and  N_15 
REMARK    6  A    between atoms: N_15  and  C_16 
REMARK    7  A    between atoms: C_18  and  O_19 
ROOT
HETATM    1  C   UNL     1      -2.858   4.451 -32.063  1.00  0.00     0.289 C 
HETATM    2  N   UNL     1      -3.158   3.655 -30.973  1.00  0.00    -0.262 N 
HETATM    3  O   UNL     1      -2.887   4.038 -33.221  1.00  0.00    -0.264 OA
HETATM    4  H   UNL     1      -3.355   4.110 -30.082  1.00  0.00     0.190 HD
ENDROOT
BRANCH   2   5
HETATM    5  N   UNL     1      -3.738   2.398 -31.213  1.00  0.00    -0.266 N 
HETATM    6  C   UNL     1      -4.994   2.158 -30.681  1.00  0.00     0.253 C 
HETATM    7  O   UNL     1      -5.515   2.879 -29.829  1.00  0.00    -0.270 OA
HETATM    8  H   UNL     1      -3.470   1.965 -32.095  1.00  0.00     0.190 HD
BRANCH   6   9
HETATM    9  C   UNL     1      -5.670   0.891 -31.220  1.00  0.00     0.224 C 
BRANCH   9  10
HETATM   10  N   UNL     1      -4.747   0.197 -32.118  1.00  0.00    -0.381 N 
HETATM   11  H   UNL     1      -3.886  -0.070 -31.635  1.00  0.00     0.160 HD
BRANCH  10  12
HETATM   12  C   UNL     1      -5.209  -0.793 -32.987  1.00  0.00     0.030 A 
HETATM   13  C   UNL     1      -4.369  -1.889 -33.251  1.00  0.00     0.065 A 
HETATM   14  C   UNL     1      -4.720  -2.876 -34.177  1.00  0.00     0.070 A 
HETATM   15  C   UNL     1      -5.922  -2.757 -34.874  1.00  0.00     0.037 A 
HETATM   16  C   UNL     1      -6.753  -1.661 -34.656  1.00  0.00     0.005 A 
HETATM   17  C   UNL     1      -6.390  -0.681 -33.729  1.00  0.00     0.029 A 
BRANCH  14  18
HETATM   18  O   UNL     1      -3.982  -3.983 -34.496  1.00  0.00    -0.356 OA
HETATM   19  C   UNL     1      -3.403  -4.700 -33.413  1.00  0.00     0.210 C 
ENDBRANCH  14  18
ENDBRANCH  10  12
ENDBRANCH   9  10
ENDBRANCH   6   9
ENDBRANCH   2   5
BRANCH   1  20
HETATM   20  C   UNL     1      -2.499   5.821 -31.701  1.00  0.00     0.134 A 
HETATM   21  C   UNL     1      -2.810   6.924 -32.468  1.00  0.00     0.089 A 
HETATM   22  S   UNL     1      -2.201   8.342 -31.737  1.00  0.00    -0.079 SA
HETATM   23  C   UNL     1      -1.530   7.406 -30.451  1.00  0.00     0.108 A 
HETATM   24  N   UNL     1      -1.791   6.111 -30.532  1.00  0.00    -0.235 NA
BRANCH  23  25
HETATM   25  C   UNL     1      -0.739   8.023 -29.365  1.00  0.00    -0.000 A 
HETATM   26  C   UNL     1       0.566   7.622 -29.037  1.00  0.00     0.015 A 
HETATM   27  C   UNL     1       1.264   8.219 -27.978  1.00  0.00     0.007 A 
HETATM   28  C   UNL     1       0.670   9.227 -27.215  1.00  0.00    -0.062 A 
HETATM   29  C   UNL     1       1.411   9.875 -26.083  1.00  0.00     0.048 C 
HETATM   30  C   UNL     1      -0.624   9.642 -27.537  1.00  0.00     0.007 A 
HETATM   31  C   UNL     1      -1.319   9.045 -28.594  1.00  0.00     0.015 A 
ENDBRANCH  23  25
ENDBRANCH   1  20
TORSDOF 7
ENDMDL
MODEL 5
REMARK VINA RESULT:      -7.9      1.982      2.575
REMARK  7 active torsions:
REMARK  status: ('A' for Active; 'I' for Inactive)
REMARK    1  A    between atoms: C_5  and  C_6 
REMARK    2  A    between atoms: C_9  and  C_10 
REMARK       I    between atoms: C_10  and  N_11 
REMARK    3  A    between atoms: N_11  and  N_12 
REMARK       I    between atoms: N_12  and  C_13 
REMARK    4  A    between atoms: C_13  and  C_14 
REMARK    5  A    between atoms: C_14  and  N_15 
REMARK    6  A    between atoms: N_15  and  C_16 
REMARK    7  A    between atoms: C_18  and  O_19 
ROOT
HETATM    1  C   UNL     1      -4.557   3.651 -31.897  1.00  0.00     0.289 C 
HETATM    2  N   UNL     1      -4.020   4.302 -30.801  1.00  0.00    -0.262 N 
HETATM    3  O   UNL     1      -5.193   4.232 -32.775  1.00  0.00    -0.264 OA
HETATM    4  H   UNL     1      -3.308   3.818 -30.253  1.00  0.00     0.190 HD
ENDROOT
BRANCH   2   5
HETATM    5  N   UNL     1      -4.004   5.706 -30.810  1.00  0.00    -0.266 N 
HETATM    6  C   UNL     1      -4.478   6.360 -29.685  1.00  0.00     0.253 C 
HETATM    7  O   UNL     1      -5.122   5.797 -28.798  1.00  0.00    -0.270 OA
HETATM    8  H   UNL     1      -3.253   6.122 -31.358  1.00  0.00     0.190 HD
BRANCH   6   9
HETATM    9  C   UNL     1      -4.166   7.862 -29.656  1.00  0.00     0.224 C 
BRANCH   9  10
HETATM   10  N   UNL     1      -2.913   8.108 -30.370  1.00  0.00    -0.381 N 
HETATM   11  H   UNL     1      -2.976   8.942 -30.956  1.00  0.00     0.160 HD
BRANCH  10  12
HETATM   12  C   UNL     1      -1.687   7.999 -29.711  1.00  0.00     0.030 A 
HETATM   13  C   UNL     1      -1.460   8.819 -28.592  1.00  0.00     0.065 A 
HETATM   14  C   UNL     1      -0.227   8.835 -27.932  1.00  0.00     0.070 A 
HETATM   15  C   UNL     1       0.810   8.036 -28.411  1.00  0.00     0.037 A 
HETATM   16  C   UNL     1       0.620   7.242 -29.540  1.00  0.00     0.005 A 
HETATM   17  C   UNL     1      -0.616   7.237 -30.191  1.00  0.00     0.029 A 
BRANCH  14  18
HETATM   18  O   UNL     1       0.090   9.584 -26.832  1.00  0.00    -0.356 OA
HETATM   19  C   UNL     1       0.600   8.884 -25.705  1.00  0.00     0.210 C 
ENDBRANCH  14  18
ENDBRANCH  10  12
ENDBRANCH   9  10
ENDBRANCH   6   9
ENDBRANCH   2   5
BRANCH   1  20
HETATM   20  C   UNL     1      -4.299   2.212 -31.902  1.00  0.00     0.134 A 
HETATM   21  C   UNL     1      -3.318   1.606 -31.145  1.00  0.00     0.089 A 
HETATM   22  S   UNL     1      -3.300  -0.075 -31.440  1.00  0.00    -0.079 SA
HETATM   23  C   UNL     1      -4.583   0.098 -32.582  1.00  0.00     0.108 A 
HETATM   24  N   UNL     1      -5.038   1.335 -32.700  1.00  0.00    -0.235 NA
BRANCH  23  25
HETATM   25  C   UNL     1      -5.109  -1.053 -33.347  1.00  0.00    -0.000 A 
HETATM   26  C   UNL     1      -6.453  -1.170 -33.738  1.00  0.00     0.015 A 
HETATM   27  C   UNL     1      -6.908  -2.296 -34.437  1.00  0.00     0.007 A 
HETATM   28  C   UNL     1      -6.033  -3.337 -34.755  1.00  0.00    -0.062 A 
HETATM   29  C   UNL     1      -6.511  -4.544 -35.507  1.00  0.00     0.048 C 
HETATM   30  C   UNL     1      -4.692  -3.228 -34.381  1.00  0.00     0.007 A 
HETATM   31  C   UNL     1      -4.239  -2.104 -33.683  1.00  0.00     0.015 A 
ENDBRANCH  23  25
ENDBRANCH   1  20
TORSDOF 7
ENDMDL
MODEL 6
REMARK VINA RESULT:      -7.8      2.373      3.365
REMARK  7 active torsions:
REMARK  status: ('A' for Active; 'I' for Inactive)
REMARK    1  A    between atoms: C_5  and  C_6 
REMARK    2  A    between atoms: C_9  and  C_10 
REMARK       I    between atoms: C_10  and  N_11 
REMARK    3  A    between atoms: N_11  and  N_12 
REMARK       I    between atoms: N_12  and  C_13 
REMARK    4  A    between atoms: C_13  and  C_14 
REMARK    5  A    between atoms: C_14  and  N_15 
REMARK    6  A    between atoms: N_15  and  C_16 
REMARK    7  A    between atoms: C_18  and  O_19 
ROOT
HETATM    1  C   UNL     1      -3.389   4.540 -31.998  1.00  0.00     0.289 C 
HETATM    2  N   UNL     1      -3.060   4.840 -30.688  1.00  0.00    -0.262 N 
HETATM    3  O   UNL     1      -3.033   5.228 -32.952  1.00  0.00    -0.264 OA
HETATM    4  H   UNL     1      -3.171   4.112 -29.983  1.00  0.00     0.190 HD
ENDROOT
BRANCH   2   5
HETATM    5  N   UNL     1      -2.096   5.836 -30.462  1.00  0.00    -0.266 N 
HETATM    6  C   UNL     1      -0.763   5.466 -30.528  1.00  0.00     0.253 C 
HETATM    7  O   UNL     1      -0.388   4.292 -30.535  1.00  0.00    -0.270 OA
HETATM    8  H   UNL     1      -2.376   6.773 -30.744  1.00  0.00     0.190 HD
BRANCH   6   9
HETATM    9  C   UNL     1       0.214   6.648 -30.554  1.00  0.00     0.224 C 
BRANCH   9  10
HETATM   10  N   UNL     1       0.802   6.816 -29.225  1.00  0.00    -0.381 N 
HETATM   11  H   UNL     1       1.794   6.569 -29.223  1.00  0.00     0.160 HD
BRANCH  10  12
HETATM   12  C   UNL     1       0.526   7.953 -28.463  1.00  0.00     0.030 A 
HETATM   13  C   UNL     1       1.444   8.320 -27.464  1.00  0.00     0.065 A 
HETATM   14  C   UNL     1       1.197   9.392 -26.600  1.00  0.00     0.070 A 
HETATM   15  C   UNL     1       0.001  10.097 -26.716  1.00  0.00     0.037 A 
HETATM   16  C   UNL     1      -0.940   9.729 -27.675  1.00  0.00     0.005 A 
HETATM   17  C   UNL     1      -0.682   8.655 -28.531  1.00  0.00     0.029 A 
BRANCH  14  18
HETATM   18  O   UNL     1       2.028   9.835 -25.607  1.00  0.00    -0.356 OA
HETATM   19  C   UNL     1       2.251   8.951 -24.516  1.00  0.00     0.210 C 
ENDBRANCH  14  18
ENDBRANCH  10  12
ENDBRANCH   9  10
ENDBRANCH   6   9
ENDBRANCH   2   5
BRANCH   1  20
HETATM   20  C   UNL     1      -4.202   3.332 -32.129  1.00  0.00     0.134 A 
HETATM   21  C   UNL     1      -5.570   3.304 -31.950  1.00  0.00     0.089 A 
HETATM   22  S   UNL     1      -6.160   1.715 -32.155  1.00  0.00    -0.079 SA
HETATM   23  C   UNL     1      -4.557   1.143 -32.444  1.00  0.00     0.108 A 
HETATM   24  N   UNL     1      -3.636   2.093 -32.441  1.00  0.00    -0.235 NA
BRANCH  23  25
HETATM   25  C   UNL     1      -4.267  -0.289 -32.674  1.00  0.00    -0.000 A 
HETATM   26  C   UNL     1      -4.837  -1.034 -33.718  1.00  0.00     0.015 A 
HETATM   27  C   UNL     1      -4.552  -2.397 -33.874  1.00  0.00     0.007 A 
HETATM   28  C   UNL     1      -3.697  -3.052 -32.985  1.00  0.00    -0.062 A 
HETATM   29  C   UNL     1      -3.383  -4.509 -33.147  1.00  0.00     0.048 C 
HETATM   30  C   UNL     1      -3.115  -2.319 -31.947  1.00  0.00     0.007 A 
HETATM   31  C   UNL     1      -3.400  -0.958 -31.793  1.00  0.00     0.015 A 
ENDBRANCH  23  25
ENDBRANCH   1  20
TORSDOF 7
ENDMDL
MODEL 7
REMARK VINA RESULT:      -7.7      2.726      9.661
REMARK  7 active torsions:
REMARK  status: ('A' for Active; 'I' for Inactive)
REMARK    1  A    between atoms: C_5  and  C_6 
REMARK    2  A    between atoms: C_9  and  C_10 
REMARK       I    between atoms: C_10  and  N_11 
REMARK    3  A    between atoms: N_11  and  N_12 
REMARK       I    between atoms: N_12  and  C_13 
REMARK    4  A    between atoms: C_13  and  C_14 
REMARK    5  A    between atoms: C_14  and  N_15 
REMARK    6  A    between atoms: N_15  and  C_16 
REMARK    7  A    between atoms: C_18  and  O_19 
ROOT
HETATM    1  C   UNL     1      -3.574   4.252 -32.639  1.00  0.00     0.289 C 
HETATM    2  N   UNL     1      -4.918   4.408 -32.926  1.00  0.00    -0.262 N 
HETATM    3  O   UNL     1      -3.022   3.154 -32.594  1.00  0.00    -0.264 OA
HETATM    4  H   UNL     1      -5.251   5.336 -33.188  1.00  0.00     0.190 HD
ENDROOT
BRANCH   2   5
HETATM    5  N   UNL     1      -5.624   3.293 -33.407  1.00  0.00    -0.266 N 
HETATM    6  C   UNL     1      -6.526   2.686 -32.549  1.00  0.00     0.253 C 
HETATM    7  O   UNL     1      -6.566   2.914 -31.339  1.00  0.00    -0.270 OA
HETATM    8  H   UNL     1      -5.805   3.302 -34.409  1.00  0.00     0.190 HD
BRANCH   6   9
HETATM    9  C   UNL     1      -7.451   1.670 -33.231  1.00  0.00     0.224 C 
BRANCH   9  10
HETATM   10  N   UNL     1      -6.743   1.048 -34.349  1.00  0.00    -0.381 N 
HETATM   11  H   UNL     1      -6.107   1.708 -34.802  1.00  0.00     0.160 HD
BRANCH  10  12
HETATM   12  C   UNL     1      -6.196  -0.230 -34.221  1.00  0.00     0.030 A 
HETATM   13  C   UNL     1      -5.074  -0.391 -33.389  1.00  0.00     0.065 A 
HETATM   14  C   UNL     1      -4.413  -1.618 -33.277  1.00  0.00     0.070 A 
HETATM   15  C   UNL     1      -4.863  -2.703 -34.028  1.00  0.00     0.037 A 
HETATM   16  C   UNL     1      -5.950  -2.559 -34.887  1.00  0.00     0.005 A 
HETATM   17  C   UNL     1      -6.601  -1.326 -34.991  1.00  0.00     0.029 A 
BRANCH  14  18
HETATM   18  O   UNL     1      -3.325  -1.880 -32.490  1.00  0.00    -0.356 OA
HETATM   19  C   UNL     1      -2.783  -0.786 -31.761  1.00  0.00     0.210 C 
ENDBRANCH  14  18
ENDBRANCH  10  12
ENDBRANCH   9  10
ENDBRANCH   6   9
ENDBRANCH   2   5
BRANCH   1  20
HETATM   20  C   UNL     1      -2.883   5.516 -32.390  1.00  0.00     0.134 A 
HETATM   21  C   UNL     1      -2.674   6.479 -33.355  1.00  0.00     0.089 A 
HETATM   22  S   UNL     1      -1.808   7.795 -32.698  1.00  0.00    -0.079 SA
HETATM   23  C   UNL     1      -1.732   6.998 -31.168  1.00  0.00     0.108 A 
HETATM   24  N   UNL     1      -2.364   5.836 -31.133  1.00  0.00    -0.235 NA
BRANCH  23  25
HETATM   25  C   UNL     1      -1.018   7.586 -30.015  1.00  0.00    -0.000 A 
HETATM   26  C   UNL     1      -1.560   8.595 -29.203  1.00  0.00     0.015 A 
HETATM   27  C   UNL     1      -0.829   9.140 -28.139  1.00  0.00     0.007 A 
HETATM   28  C   UNL     1       0.466   8.696 -27.865  1.00  0.00    -0.062 A 
HETATM   29  C   UNL     1       1.254   9.270 -26.725  1.00  0.00     0.048 C 
HETATM   30  C   UNL     1       1.014   7.685 -28.659  1.00  0.00     0.007 A 
HETATM   31  C   UNL     1       0.283   7.142 -29.721  1.00  0.00     0.015 A 
ENDBRANCH  23  25
ENDBRANCH   1  20
TORSDOF 7
ENDMDL
MODEL 8
REMARK VINA RESULT:      -7.7      2.717      3.830
REMARK  7 active torsions:
REMARK  status: ('A' for Active; 'I' for Inactive)
REMARK    1  A    between atoms: C_5  and  C_6 
REMARK    2  A    between atoms: C_9  and  C_10 
REMARK       I    between atoms: C_10  and  N_11 
REMARK    3  A    between atoms: N_11  and  N_12 
REMARK       I    between atoms: N_12  and  C_13 
REMARK    4  A    between atoms: C_13  and  C_14 
REMARK    5  A    between atoms: C_14  and  N_15 
REMARK    6  A    between atoms: N_15  and  C_16 
REMARK    7  A    between atoms: C_18  and  O_19 
ROOT
HETATM    1  C   UNL     1      -5.529   3.835 -30.201  1.00  0.00     0.289 C 
HETATM    2  N   UNL     1      -5.963   4.161 -28.929  1.00  0.00    -0.262 N 
HETATM    3  O   UNL     1      -4.542   4.349 -30.724  1.00  0.00    -0.264 OA
HETATM    4  H   UNL     1      -6.622   3.535 -28.468  1.00  0.00     0.190 HD
ENDROOT
BRANCH   2   5
HETATM    5  N   UNL     1      -5.115   4.938 -28.122  1.00  0.00    -0.266 N 
HETATM    6  C   UNL     1      -5.481   6.253 -27.886  1.00  0.00     0.253 C 
HETATM    7  O   UNL     1      -6.358   6.835 -28.525  1.00  0.00    -0.270 OA
HETATM    8  H   UNL     1      -4.610   4.416 -27.407  1.00  0.00     0.190 HD
BRANCH   6   9
HETATM    9  C   UNL     1      -4.668   6.939 -26.780  1.00  0.00     0.224 C 
BRANCH   9  10
HETATM   10  N   UNL     1      -3.633   7.774 -27.389  1.00  0.00    -0.381 N 
HETATM   11  H   UNL     1      -3.663   8.728 -27.025  1.00  0.00     0.160 HD
BRANCH  10  12
HETATM   12  C   UNL     1      -2.332   7.293 -27.546  1.00  0.00     0.030 A 
HETATM   13  C   UNL     1      -1.862   7.066 -28.851  1.00  0.00     0.065 A 
HETATM   14  C   UNL     1      -0.605   6.502 -29.090  1.00  0.00     0.070 A 
HETATM   15  C   UNL     1       0.192   6.133 -28.006  1.00  0.00     0.037 A 
HETATM   16  C   UNL     1      -0.268   6.315 -26.704  1.00  0.00     0.005 A 
HETATM   17  C   UNL     1      -1.527   6.878 -26.479  1.00  0.00     0.029 A 
BRANCH  14  18
HETATM   18  O   UNL     1      -0.052   6.252 -30.316  1.00  0.00    -0.356 OA
HETATM   19  C   UNL     1      -0.846   5.515 -31.238  1.00  0.00     0.210 C 
ENDBRANCH  14  18
ENDBRANCH  10  12
ENDBRANCH   9  10
ENDBRANCH   6   9
ENDBRANCH   2   5
BRANCH   1  20
HETATM   20  C   UNL     1      -6.361   2.828 -30.857  1.00  0.00     0.134 A 
HETATM   21  C   UNL     1      -7.731   2.756 -30.719  1.00  0.00     0.089 A 
HETATM   22  S   UNL     1      -8.346   1.434 -31.608  1.00  0.00    -0.079 SA
HETATM   23  C   UNL     1      -6.748   1.010 -32.107  1.00  0.00     0.108 A 
HETATM   24  N   UNL     1      -5.811   1.840 -31.678  1.00  0.00    -0.235 NA
BRANCH  23  25
HETATM   25  C   UNL     1      -6.480  -0.181 -32.941  1.00  0.00    -0.000 A 
HETATM   26  C   UNL     1      -7.462  -0.820 -33.713  1.00  0.00     0.015 A 
HETATM   27  C   UNL     1      -7.164  -1.965 -34.464  1.00  0.00     0.007 A 
HETATM   28  C   UNL     1      -5.876  -2.505 -34.453  1.00  0.00    -0.062 A 
HETATM   29  C   UNL     1      -5.546  -3.727 -35.257  1.00  0.00     0.048 C 
HETATM   30  C   UNL     1      -4.886  -1.873 -33.697  1.00  0.00     0.007 A 
HETATM   31  C   UNL     1      -5.186  -0.730 -32.948  1.00  0.00     0.015 A 
ENDBRANCH  23  25
ENDBRANCH   1  20
TORSDOF 7
ENDMDL
MODEL 9
REMARK VINA RESULT:      -7.5      2.797      4.015
REMARK  7 active torsions:
REMARK  status: ('A' for Active; 'I' for Inactive)
REMARK    1  A    between atoms: C_5  and  C_6 
REMARK    2  A    between atoms: C_9  and  C_10 
REMARK       I    between atoms: C_10  and  N_11 
REMARK    3  A    between atoms: N_11  and  N_12 
REMARK       I    between atoms: N_12  and  C_13 
REMARK    4  A    between atoms: C_13  and  C_14 
REMARK    5  A    between atoms: C_14  and  N_15 
REMARK    6  A    between atoms: N_15  and  C_16 
REMARK    7  A    between atoms: C_18  and  O_19 
ROOT
HETATM    1  C   UNL     1      -2.603   4.773 -31.927  1.00  0.00     0.289 C 
HETATM    2  N   UNL     1      -2.375   5.032 -30.588  1.00  0.00    -0.262 N 
HETATM    3  O   UNL     1      -1.800   5.067 -32.812  1.00  0.00    -0.264 OA
HETATM    4  H   UNL     1      -2.951   4.551 -29.898  1.00  0.00     0.190 HD
ENDROOT
BRANCH   2   5
HETATM    5  N   UNL     1      -1.086   5.437 -30.204  1.00  0.00    -0.266 N 
HETATM    6  C   UNL     1      -0.917   6.754 -29.810  1.00  0.00     0.253 C 
HETATM    7  O   UNL     1      -1.761   7.630 -30.005  1.00  0.00    -0.270 OA
HETATM    8  H   UNL     1      -0.517   4.705 -29.782  1.00  0.00     0.190 HD
BRANCH   6   9
HETATM    9  C   UNL     1       0.434   7.039 -29.143  1.00  0.00     0.224 C 
BRANCH   9  10
HETATM   10  N   UNL     1       0.329   6.773 -27.708  1.00  0.00    -0.381 N 
HETATM   11  H   UNL     1       0.790   5.896 -27.457  1.00  0.00     0.160 HD
BRANCH  10  12
HETATM   12  C   UNL     1       0.554   7.789 -26.778  1.00  0.00     0.030 A 
HETATM   13  C   UNL     1       1.847   7.924 -26.243  1.00  0.00     0.065 A 
HETATM   14  C   UNL     1       2.134   8.857 -25.242  1.00  0.00     0.070 A 
HETATM   15  C   UNL     1       1.106   9.657 -24.744  1.00  0.00     0.037 A 
HETATM   16  C   UNL     1      -0.191   9.516 -25.233  1.00  0.00     0.005 A 
HETATM   17  C   UNL     1      -0.464   8.578 -26.232  1.00  0.00     0.029 A 
BRANCH  14  18
HETATM   18  O   UNL     1       3.356   9.074 -24.666  1.00  0.00    -0.356 OA
HETATM   19  C   UNL     1       3.485   8.739 -23.290  1.00  0.00     0.210 C 
ENDBRANCH  14  18
ENDBRANCH  10  12
ENDBRANCH   9  10
ENDBRANCH   6   9
ENDBRANCH   2   5
BRANCH   1  20
HETATM   20  C   UNL     1      -3.888   4.125 -32.183  1.00  0.00     0.134 A 
HETATM   21  C   UNL     1      -5.107   4.687 -31.867  1.00  0.00     0.089 A 
HETATM   22  S   UNL     1      -6.374   3.621 -32.286  1.00  0.00    -0.079 SA
HETATM   23  C   UNL     1      -5.227   2.455 -32.839  1.00  0.00     0.108 A 
HETATM   24  N   UNL     1      -3.969   2.858 -32.766  1.00  0.00    -0.235 NA
BRANCH  23  25
HETATM   25  C   UNL     1      -5.643   1.129 -33.346  1.00  0.00    -0.000 A 
HETATM   26  C   UNL     1      -6.613   0.955 -34.345  1.00  0.00     0.015 A 
HETATM   27  C   UNL     1      -6.994  -0.325 -34.771  1.00  0.00     0.007 A 
HETATM   28  C   UNL     1      -6.420  -1.463 -34.201  1.00  0.00    -0.062 A 
HETATM   29  C   UNL     1      -6.817  -2.837 -34.653  1.00  0.00     0.048 C 
HETATM   30  C   UNL     1      -5.445  -1.304 -33.213  1.00  0.00     0.007 A 
HETATM   31  C   UNL     1      -5.067  -0.025 -32.789  1.00  0.00     0.015 A 
ENDBRANCH  23  25
ENDBRANCH   1  20
TORSDOF 7
ENDMDL
MODEL 10
REMARK VINA RESULT:      -7.4      6.304      9.214
REMARK  7 active torsions:
REMARK  status: ('A' for Active; 'I' for Inactive)
REMARK    1  A    between atoms: C_5  and  C_6 
REMARK    2  A    between atoms: C_9  and  C_10 
REMARK       I    between atoms: C_10  and  N_11 
REMARK    3  A    between atoms: N_11  and  N_12 
REMARK       I    between atoms: N_12  and  C_13 
REMARK    4  A    between atoms: C_13  and  C_14 
REMARK    5  A    between atoms: C_14  and  N_15 
REMARK    6  A    between atoms: N_15  and  C_16 
REMARK    7  A    between atoms: C_18  and  O_19 
ROOT
HETATM    1  C   UNL     1      -8.664   2.466 -32.541  1.00  0.00     0.289 C 
HETATM    2  N   UNL     1      -8.688   3.849 -32.501  1.00  0.00    -0.262 N 
HETATM    3  O   UNL     1      -9.683   1.781 -32.609  1.00  0.00    -0.264 OA
HETATM    4  H   UNL     1      -7.822   4.353 -32.692  1.00  0.00     0.190 HD
ENDROOT
BRANCH   2   5
HETATM    5  N   UNL     1      -9.903   4.496 -32.779  1.00  0.00    -0.266 N 
HETATM    6  C   UNL     1     -10.094   4.979 -34.063  1.00  0.00     0.253 C 
HETATM    7  O   UNL     1      -9.184   5.084 -34.887  1.00  0.00    -0.270 OA
HETATM    8  H   UNL     1     -10.699   4.160 -32.241  1.00  0.00     0.190 HD
BRANCH   6   9
HETATM    9  C   UNL     1     -11.536   5.410 -34.361  1.00  0.00     0.224 C 
BRANCH   9  10
HETATM   10  N   UNL     1     -12.417   4.909 -33.306  1.00  0.00    -0.381 N 
HETATM   11  H   UNL     1     -12.959   5.665 -32.883  1.00  0.00     0.160 HD
BRANCH  10  12
HETATM   12  C   UNL     1     -13.165   3.746 -33.497  1.00  0.00     0.030 A 
HETATM   13  C   UNL     1     -14.202   3.469 -32.589  1.00  0.00     0.065 A 
HETATM   14  C   UNL     1     -14.939   2.282 -32.658  1.00  0.00     0.070 A 
HETATM   15  C   UNL     1     -14.622   1.340 -33.635  1.00  0.00     0.037 A 
HETATM   16  C   UNL     1     -13.574   1.577 -34.523  1.00  0.00     0.005 A 
HETATM   17  C   UNL     1     -12.844   2.766 -34.442  1.00  0.00     0.029 A 
BRANCH  14  18
HETATM   18  O   UNL     1     -15.971   1.925 -31.834  1.00  0.00    -0.356 OA
HETATM   19  C   UNL     1     -17.162   2.697 -31.925  1.00  0.00     0.210 C 
ENDBRANCH  14  18
ENDBRANCH  10  12
ENDBRANCH   9  10
ENDBRANCH   6   9
ENDBRANCH   2   5
BRANCH   1  20
HETATM   20  C   UNL     1      -7.314   1.908 -32.487  1.00  0.00     0.134 A 
HETATM   21  C   UNL     1      -6.196   2.635 -32.137  1.00  0.00     0.089 A 
HETATM   22  S   UNL     1      -4.802   1.652 -32.220  1.00  0.00    -0.079 SA
HETATM   23  C   UNL     1      -5.761   0.316 -32.746  1.00  0.00     0.108 A 
HETATM   24  N   UNL     1      -7.057   0.572 -32.807  1.00  0.00    -0.235 NA
BRANCH  23  25
HETATM   25  C   UNL     1      -5.159  -0.990 -33.092  1.00  0.00    -0.000 A 
HETATM   26  C   UNL     1      -5.617  -1.796 -34.146  1.00  0.00     0.015 A 
HETATM   27  C   UNL     1      -5.031  -3.041 -34.414  1.00  0.00     0.007 A 
HETATM   28  C   UNL     1      -3.978  -3.515 -33.629  1.00  0.00    -0.062 A 
HETATM   29  C   UNL     1      -3.342  -4.843 -33.912  1.00  0.00     0.048 C 
HETATM   30  C   UNL     1      -3.506  -2.718 -32.583  1.00  0.00     0.007 A 
HETATM   31  C   UNL     1      -4.092  -1.476 -32.317  1.00  0.00     0.015 A 
ENDBRANCH  23  25
ENDBRANCH   1  20
TORSDOF 7
ENDMDL
