MODEL 1
REMARK VINA RESULT:     -10.1      0.000      0.000
REMARK  7 active torsions:
REMARK  status: ('A' for Active; 'I' for Inactive)
REMARK    1  A    between atoms: C_9  and  C_10 
REMARK       I    between atoms: C_10  and  N_11 
REMARK    2  A    between atoms: N_11  and  C_12 
REMARK    3  A    between atoms: C_12  and  C_13 
REMARK    4  A    between atoms: C_12  and  C_22 
REMARK       I    between atoms: C_13  and  N_14 
REMARK    5  A    between atoms: N_14  and  C_15 
REMARK    6  A    between atoms: C_15  and  C_16 
REMARK    7  A    between atoms: C_22  and  C_23 
ROOT
HETATM    1  C   UNL     1      -5.513   1.162 -32.357  1.00  0.00     0.180 C 
ENDROOT
BRANCH   1   2
HETATM    2  N   UNL     1      -6.836   1.630 -32.845  1.00  0.00    -0.346 N 
HETATM    3  C   UNL     1      -8.004   1.042 -32.422  1.00  0.00     0.249 C 
HETATM    4  O   UNL     1      -8.098   0.288 -31.455  1.00  0.00    -0.271 OA
HETATM    5  H   UNL     1      -6.803   1.956 -33.806  1.00  0.00     0.163 HD
BRANCH   3   6
HETATM    6  C   UNL     1      -9.284   1.426 -33.174  1.00  0.00     0.281 C 
HETATM    7  N   UNL     1      -9.857   2.668 -32.521  1.00  0.00    -0.058 N 
HETATM    8  C   UNL     1     -11.064   3.182 -33.198  1.00  0.00     0.272 C 
HETATM    9  H   UNL     1     -10.066   2.425 -31.540  1.00  0.00     0.278 HD
HETATM   10  H   UNL     1      -9.124   3.385 -32.450  1.00  0.00     0.278 HD
HETATM   11  C   UNL     1     -12.085   2.109 -33.428  1.00  0.00    -0.026 A 
HETATM   12  C   UNL     1     -11.728   0.744 -33.414  1.00  0.00    -0.048 A 
HETATM   13  C   UNL     1     -13.413   2.474 -33.700  1.00  0.00     0.009 A 
HETATM   14  C   UNL     1     -12.715  -0.226 -33.634  1.00  0.00     0.008 A 
HETATM   15  C   UNL     1     -10.318   0.297 -33.096  1.00  0.00     0.082 C 
HETATM   16  C   UNL     1     -14.034   0.151 -33.889  1.00  0.00     0.001 A 
HETATM   17  C   UNL     1     -14.381   1.498 -33.925  1.00  0.00     0.001 A 
ENDBRANCH   3   6
ENDBRANCH   1   2
BRANCH   1  18
HETATM   18  C   UNL     1      -4.810   2.411 -31.774  1.00  0.00     0.241 C 
HETATM   19  N   UNL     1      -3.519   2.631 -32.166  1.00  0.00    -0.353 N 
HETATM   20  H   UNL     1      -3.095   2.103 -32.924  1.00  0.00     0.162 HD
HETATM   21  O   UNL     1      -5.372   3.117 -30.929  1.00  0.00    -0.271 OA
BRANCH  19  22
HETATM   22  C   UNL     1      -2.778   3.778 -31.687  1.00  0.00     0.187 C 
BRANCH  22  23
HETATM   23  C   UNL     1      -2.254   4.558 -32.834  1.00  0.00     0.070 A 
HETATM   24  O   UNL     1      -2.938   4.463 -34.012  1.00  0.00    -0.325 OA
HETATM   25  C   UNL     1      -2.301   5.256 -34.910  1.00  0.00     0.142 A 
HETATM   26  C   UNL     1      -1.220   5.871 -34.325  1.00  0.00     0.027 A 
HETATM   27  C   UNL     1      -1.186   5.420 -32.983  1.00  0.00     0.036 A 
ENDBRANCH  22  23
ENDBRANCH  19  22
ENDBRANCH   1  18
BRANCH   1  28
HETATM   28  C   UNL     1      -4.696   0.407 -33.420  1.00  0.00     0.075 C 
BRANCH  28  29
HETATM   29  C   UNL     1      -4.017  -0.838 -32.931  1.00  0.00    -0.028 A 
HETATM   30  C   UNL     1      -4.222  -2.170 -33.424  1.00  0.00    -0.002 A 
HETATM   31  C   UNL     1      -3.473  -3.032 -32.623  1.00  0.00     0.042 A 
HETATM   32  C   UNL     1      -4.997  -2.726 -34.462  1.00  0.00     0.014 A 
HETATM   33  C   UNL     1      -3.465  -4.420 -32.803  1.00  0.00     0.030 A 
HETATM   34  N   UNL     1      -2.823  -2.259 -31.692  1.00  0.00    -0.365 N 
HETATM   35  C   UNL     1      -4.245  -4.946 -33.835  1.00  0.00     0.002 A 
HETATM   36  C   UNL     1      -4.999  -4.113 -34.657  1.00  0.00     0.001 A 
HETATM   37  H   UNL     1      -2.218  -2.627 -30.968  1.00  0.00     0.165 HD
HETATM   38  C   UNL     1      -3.151  -0.940 -31.859  1.00  0.00     0.096 A 
ENDBRANCH  28  29
ENDBRANCH   1  28
TORSDOF 7
ENDMDL
MODEL 2
REMARK VINA RESULT:     -10.1      1.029      1.673
REMARK  7 active torsions:
REMARK  status: ('A' for Active; 'I' for Inactive)
REMARK    1  A    between atoms: C_9  and  C_10 
REMARK       I    between atoms: C_10  and  N_11 
REMARK    2  A    between atoms: N_11  and  C_12 
REMARK    3  A    between atoms: C_12  and  C_13 
REMARK    4  A    between atoms: C_12  and  C_22 
REMARK       I    between atoms: C_13  and  N_14 
REMARK    5  A    between atoms: N_14  and  C_15 
REMARK    6  A    between atoms: C_15  and  C_16 
REMARK    7  A    between atoms: C_22  and  C_23 
ROOT
HETATM    1  C   UNL     1      -5.258   1.322 -31.772  1.00  0.00     0.180 C 
ENDROOT
BRANCH   1   2
HETATM    2  N   UNL     1      -6.672   1.726 -31.981  1.00  0.00    -0.346 N 
HETATM    3  C   UNL     1      -7.710   0.874 -31.690  1.00  0.00     0.249 C 
HETATM    4  O   UNL     1      -7.608  -0.152 -31.020  1.00  0.00    -0.271 OA
HETATM    5  H   UNL     1      -6.787   2.340 -32.782  1.00  0.00     0.163 HD
BRANCH   3   6
HETATM    6  C   UNL     1      -9.103   1.288 -32.180  1.00  0.00     0.281 C 
HETATM    7  N   UNL     1      -9.746   0.081 -32.837  1.00  0.00    -0.058 N 
HETATM    8  C   UNL     1     -11.127   0.330 -33.296  1.00  0.00     0.272 C 
HETATM    9  H   UNL     1      -9.142  -0.189 -33.629  1.00  0.00     0.278 HD
HETATM   10  H   UNL     1      -9.695  -0.722 -32.198  1.00  0.00     0.278 HD
HETATM   11  C   UNL     1     -11.234   1.580 -34.118  1.00  0.00    -0.026 A 
HETATM   12  C   UNL     1     -10.247   2.586 -34.051  1.00  0.00    -0.048 A 
HETATM   13  C   UNL     1     -12.357   1.766 -34.938  1.00  0.00     0.009 A 
HETATM   14  C   UNL     1     -10.388   3.739 -34.837  1.00  0.00     0.008 A 
HETATM   15  C   UNL     1      -9.003   2.421 -33.206  1.00  0.00     0.082 C 
HETATM   16  C   UNL     1     -11.502   3.903 -35.659  1.00  0.00     0.001 A 
HETATM   17  C   UNL     1     -12.487   2.921 -35.707  1.00  0.00     0.001 A 
ENDBRANCH   3   6
ENDBRANCH   1   2
BRANCH   1  18
HETATM   18  C   UNL     1      -4.510   2.606 -31.339  1.00  0.00     0.241 C 
HETATM   19  N   UNL     1      -3.266   2.804 -31.871  1.00  0.00    -0.353 N 
HETATM   20  H   UNL     1      -2.916   2.232 -32.634  1.00  0.00     0.162 HD
HETATM   21  O   UNL     1      -4.991   3.361 -30.486  1.00  0.00    -0.271 OA
BRANCH  19  22
HETATM   22  C   UNL     1      -2.491   3.980 -31.539  1.00  0.00     0.187 C 
BRANCH  22  23
HETATM   23  C   UNL     1      -2.095   4.693 -32.778  1.00  0.00     0.070 A 
HETATM   24  O   UNL     1      -2.875   4.497 -33.881  1.00  0.00    -0.325 OA
HETATM   25  C   UNL     1      -2.345   5.243 -34.883  1.00  0.00     0.142 A 
HETATM   26  C   UNL     1      -1.239   5.926 -34.439  1.00  0.00     0.027 A 
HETATM   27  C   UNL     1      -1.074   5.571 -33.078  1.00  0.00     0.036 A 
ENDBRANCH  22  23
ENDBRANCH  19  22
ENDBRANCH   1  18
BRANCH   1  28
HETATM   28  C   UNL     1      -4.638   0.599 -32.980  1.00  0.00     0.075 C 
BRANCH  28  29
HETATM   29  C   UNL     1      -3.957  -0.699 -32.660  1.00  0.00    -0.028 A 
HETATM   30  C   UNL     1      -4.203  -1.966 -33.285  1.00  0.00    -0.002 A 
HETATM   31  C   UNL     1      -3.434  -2.919 -32.618  1.00  0.00     0.042 A 
HETATM   32  C   UNL     1      -5.031  -2.398 -34.343  1.00  0.00     0.014 A 
HETATM   33  C   UNL     1      -3.454  -4.279 -32.948  1.00  0.00     0.030 A 
HETATM   34  N   UNL     1      -2.732  -2.259 -31.638  1.00  0.00    -0.365 N 
HETATM   35  C   UNL     1      -4.286  -4.681 -33.996  1.00  0.00     0.002 A 
HETATM   36  C   UNL     1      -5.063  -3.755 -34.688  1.00  0.00     0.001 A 
HETATM   37  H   UNL     1      -2.102  -2.711 -30.986  1.00  0.00     0.165 HD
HETATM   38  C   UNL     1      -3.047  -0.927 -31.646  1.00  0.00     0.096 A 
ENDBRANCH  28  29
ENDBRANCH   1  28
TORSDOF 7
ENDMDL
MODEL 3
REMARK VINA RESULT:     -10.0      2.315      8.165
REMARK  7 active torsions:
REMARK  status: ('A' for Active; 'I' for Inactive)
REMARK    1  A    between atoms: C_9  and  C_10 
REMARK       I    between atoms: C_10  and  N_11 
REMARK    2  A    between atoms: N_11  and  C_12 
REMARK    3  A    between atoms: C_12  and  C_13 
REMARK    4  A    between atoms: C_12  and  C_22 
REMARK       I    between atoms: C_13  and  N_14 
REMARK    5  A    between atoms: N_14  and  C_15 
REMARK    6  A    between atoms: C_15  and  C_16 
REMARK    7  A    between atoms: C_22  and  C_23 
ROOT
HETATM    1  C   UNL     1      -6.763   3.818 -33.403  1.00  0.00     0.180 C 
ENDROOT
BRANCH   1   2
HETATM    2  N   UNL     1      -6.640   2.345 -33.250  1.00  0.00    -0.346 N 
HETATM    3  C   UNL     1      -5.818   1.790 -32.300  1.00  0.00     0.249 C 
HETATM    4  O   UNL     1      -5.324   2.404 -31.356  1.00  0.00    -0.271 OA
HETATM    5  H   UNL     1      -6.723   1.854 -34.136  1.00  0.00     0.163 HD
BRANCH   3   6
HETATM    6  C   UNL     1      -5.570   0.280 -32.397  1.00  0.00     0.281 C 
HETATM    7  N   UNL     1      -4.170   0.069 -32.942  1.00  0.00    -0.058 N 
HETATM    8  C   UNL     1      -3.780  -1.353 -33.022  1.00  0.00     0.272 C 
HETATM    9  H   UNL     1      -4.140   0.508 -33.875  1.00  0.00     0.278 HD
HETATM   10  H   UNL     1      -3.502   0.618 -32.386  1.00  0.00     0.278 HD
HETATM   11  C   UNL     1      -4.817  -2.186 -33.713  1.00  0.00    -0.026 A 
HETATM   12  C   UNL     1      -6.150  -1.741 -33.837  1.00  0.00    -0.048 A 
HETATM   13  C   UNL     1      -4.460  -3.449 -34.211  1.00  0.00     0.009 A 
HETATM   14  C   UNL     1      -7.087  -2.554 -34.491  1.00  0.00     0.008 A 
HETATM   15  C   UNL     1      -6.579  -0.376 -33.345  1.00  0.00     0.082 C 
HETATM   16  C   UNL     1      -6.714  -3.800 -34.994  1.00  0.00     0.001 A 
HETATM   17  C   UNL     1      -5.405  -4.249 -34.851  1.00  0.00     0.001 A 
ENDBRANCH   3   6
ENDBRANCH   1   2
BRANCH   1  18
HETATM   18  C   UNL     1      -8.175   4.068 -33.984  1.00  0.00     0.241 C 
HETATM   19  N   UNL     1      -9.024   2.997 -34.022  1.00  0.00    -0.353 N 
HETATM   20  H   UNL     1      -8.805   2.126 -33.546  1.00  0.00     0.162 HD
HETATM   21  O   UNL     1      -8.476   5.167 -34.465  1.00  0.00    -0.271 OA
BRANCH  19  22
HETATM   22  C   UNL     1     -10.371   3.130 -34.535  1.00  0.00     0.187 C 
BRANCH  22  23
HETATM   23  C   UNL     1     -11.177   1.944 -34.157  1.00  0.00     0.070 A 
HETATM   24  O   UNL     1     -12.486   1.936 -34.544  1.00  0.00    -0.325 OA
HETATM   25  C   UNL     1     -13.024   0.768 -34.110  1.00  0.00     0.142 A 
HETATM   26  C   UNL     1     -12.077   0.016 -33.457  1.00  0.00     0.027 A 
HETATM   27  C   UNL     1     -10.882   0.775 -33.485  1.00  0.00     0.036 A 
ENDBRANCH  22  23
ENDBRANCH  19  22
ENDBRANCH   1  18
BRANCH   1  28
HETATM   28  C   UNL     1      -5.618   4.451 -34.213  1.00  0.00     0.075 C 
BRANCH  28  29
HETATM   29  C   UNL     1      -4.837   5.506 -33.487  1.00  0.00    -0.028 A 
HETATM   30  C   UNL     1      -3.458   5.841 -33.699  1.00  0.00    -0.002 A 
HETATM   31  C   UNL     1      -3.109   6.798 -32.746  1.00  0.00     0.042 A 
HETATM   32  C   UNL     1      -2.465   5.400 -34.598  1.00  0.00     0.014 A 
HETATM   33  C   UNL     1      -1.818   7.330 -32.641  1.00  0.00     0.030 A 
HETATM   34  N   UNL     1      -4.231   7.051 -31.995  1.00  0.00    -0.365 N 
HETATM   35  C   UNL     1      -0.852   6.872 -33.541  1.00  0.00     0.002 A 
HETATM   36  C   UNL     1      -1.169   5.923 -34.509  1.00  0.00     0.001 A 
HETATM   37  H   UNL     1      -4.261   7.697 -31.216  1.00  0.00     0.165 HD
HETATM   38  C   UNL     1      -5.272   6.272 -32.423  1.00  0.00     0.096 A 
ENDBRANCH  28  29
ENDBRANCH   1  28
TORSDOF 7
ENDMDL
MODEL 4
REMARK VINA RESULT:     -10.0      1.603      6.382
REMARK  7 active torsions:
REMARK  status: ('A' for Active; 'I' for Inactive)
REMARK    1  A    between atoms: C_9  and  C_10 
REMARK       I    between atoms: C_10  and  N_11 
REMARK    2  A    between atoms: N_11  and  C_12 
REMARK    3  A    between atoms: C_12  and  C_13 
REMARK    4  A    between atoms: C_12  and  C_22 
REMARK       I    between atoms: C_13  and  N_14 
REMARK    5  A    between atoms: N_14  and  C_15 
REMARK    6  A    between atoms: C_15  and  C_16 
REMARK    7  A    between atoms: C_22  and  C_23 
ROOT
HETATM    1  C   UNL     1      -6.302   3.475 -32.117  1.00  0.00     0.180 C 
ENDROOT
BRANCH   1   2
HETATM    2  N   UNL     1      -5.816   2.071 -32.152  1.00  0.00    -0.346 N 
HETATM    3  C   UNL     1      -6.037   1.264 -33.242  1.00  0.00     0.249 C 
HETATM    4  O   UNL     1      -6.406   1.663 -34.345  1.00  0.00    -0.271 OA
HETATM    5  H   UNL     1      -5.834   1.631 -31.237  1.00  0.00     0.163 HD
BRANCH   3   6
HETATM    6  C   UNL     1      -5.724  -0.227 -33.073  1.00  0.00     0.281 C 
HETATM    7  N   UNL     1      -4.252  -0.434 -33.372  1.00  0.00    -0.058 N 
HETATM    8  C   UNL     1      -3.804  -1.827 -33.179  1.00  0.00     0.272 C 
HETATM    9  H   UNL     1      -4.096  -0.132 -34.347  1.00  0.00     0.278 HD
HETATM   10  H   UNL     1      -3.695   0.227 -32.815  1.00  0.00     0.278 HD
HETATM   11  C   UNL     1      -4.695  -2.810 -33.879  1.00  0.00    -0.026 A 
HETATM   12  C   UNL     1      -6.008  -2.465 -34.260  1.00  0.00    -0.048 A 
HETATM   13  C   UNL     1      -4.221  -4.108 -34.124  1.00  0.00     0.009 A 
HETATM   14  C   UNL     1      -6.806  -3.415 -34.912  1.00  0.00     0.008 A 
HETATM   15  C   UNL     1      -6.555  -1.070 -34.046  1.00  0.00     0.082 C 
HETATM   16  C   UNL     1      -6.318  -4.697 -35.162  1.00  0.00     0.001 A 
HETATM   17  C   UNL     1      -5.030  -5.045 -34.766  1.00  0.00     0.001 A 
ENDBRANCH   3   6
ENDBRANCH   1   2
BRANCH   1  18
HETATM   18  C   UNL     1      -5.079   4.338 -31.723  1.00  0.00     0.241 C 
HETATM   19  N   UNL     1      -3.853   3.737 -31.791  1.00  0.00    -0.353 N 
HETATM   20  H   UNL     1      -3.728   2.829 -32.232  1.00  0.00     0.162 HD
HETATM   21  O   UNL     1      -5.228   5.485 -31.288  1.00  0.00    -0.271 OA
BRANCH  19  22
HETATM   22  C   UNL     1      -2.646   4.461 -31.456  1.00  0.00     0.187 C 
BRANCH  22  23
HETATM   23  C   UNL     1      -2.057   5.058 -32.679  1.00  0.00     0.070 A 
HETATM   24  O   UNL     1      -2.288   4.409 -33.858  1.00  0.00    -0.325 OA
HETATM   25  C   UNL     1      -1.676   5.125 -34.835  1.00  0.00     0.142 A 
HETATM   26  C   UNL     1      -1.062   6.234 -34.305  1.00  0.00     0.027 A 
HETATM   27  C   UNL     1      -1.305   6.192 -32.910  1.00  0.00     0.036 A 
ENDBRANCH  22  23
ENDBRANCH  19  22
ENDBRANCH   1  18
BRANCH   1  28
HETATM   28  C   UNL     1      -7.539   3.677 -31.225  1.00  0.00     0.075 C 
BRANCH  28  29
HETATM   29  C   UNL     1      -8.857   3.549 -31.930  1.00  0.00    -0.028 A 
HETATM   30  C   UNL     1      -9.506   2.326 -32.307  1.00  0.00    -0.002 A 
HETATM   31  C   UNL     1     -10.650   2.665 -33.029  1.00  0.00     0.042 A 
HETATM   32  C   UNL     1      -9.213   0.959 -32.123  1.00  0.00     0.014 A 
HETATM   33  C   UNL     1     -11.511   1.709 -33.581  1.00  0.00     0.030 A 
HETATM   34  N   UNL     1     -10.709   4.037 -33.076  1.00  0.00    -0.365 N 
HETATM   35  C   UNL     1     -11.195   0.362 -33.389  1.00  0.00     0.002 A 
HETATM   36  C   UNL     1     -10.064  -0.011 -32.668  1.00  0.00     0.001 A 
HETATM   37  H   UNL     1     -11.432   4.560 -33.553  1.00  0.00     0.165 HD
HETATM   38  C   UNL     1      -9.630   4.579 -32.429  1.00  0.00     0.096 A 
ENDBRANCH  28  29
ENDBRANCH   1  28
TORSDOF 7
ENDMDL
MODEL 5
REMARK VINA RESULT:      -9.7      2.124      8.251
REMARK  7 active torsions:
REMARK  status: ('A' for Active; 'I' for Inactive)
REMARK    1  A    between atoms: C_9  and  C_10 
REMARK       I    between atoms: C_10  and  N_11 
REMARK    2  A    between atoms: N_11  and  C_12 
REMARK    3  A    between atoms: C_12  and  C_13 
REMARK    4  A    between atoms: C_12  and  C_22 
REMARK       I    between atoms: C_13  and  N_14 
REMARK    5  A    between atoms: N_14  and  C_15 
REMARK    6  A    between atoms: C_15  and  C_16 
REMARK    7  A    between atoms: C_22  and  C_23 
ROOT
HETATM    1  C   UNL     1      -6.863   2.750 -33.331  1.00  0.00     0.180 C 
ENDROOT
BRANCH   1   2
HETATM    2  N   UNL     1      -5.975   3.824 -32.816  1.00  0.00    -0.346 N 
HETATM    3  C   UNL     1      -5.156   4.540 -33.656  1.00  0.00     0.249 C 
HETATM    4  O   UNL     1      -5.251   4.555 -34.882  1.00  0.00    -0.271 OA
HETATM    5  H   UNL     1      -5.623   3.623 -31.884  1.00  0.00     0.163 HD
BRANCH   3   6
HETATM    6  C   UNL     1      -4.102   5.437 -32.995  1.00  0.00     0.281 C 
HETATM    7  N   UNL     1      -3.279   6.080 -34.095  1.00  0.00    -0.058 N 
HETATM    8  C   UNL     1      -2.265   7.026 -33.590  1.00  0.00     0.272 C 
HETATM    9  H   UNL     1      -2.832   5.315 -34.624  1.00  0.00     0.278 HD
HETATM   10  H   UNL     1      -3.908   6.521 -34.777  1.00  0.00     0.278 HD
HETATM   11  C   UNL     1      -1.431   6.432 -32.495  1.00  0.00    -0.026 A 
HETATM   12  C   UNL     1      -1.875   5.311 -31.763  1.00  0.00    -0.048 A 
HETATM   13  C   UNL     1      -0.202   7.028 -32.170  1.00  0.00     0.009 A 
HETATM   14  C   UNL     1      -1.063   4.788 -30.747  1.00  0.00     0.008 A 
HETATM   15  C   UNL     1      -3.176   4.614 -32.094  1.00  0.00     0.082 C 
HETATM   16  C   UNL     1       0.163   5.382 -30.445  1.00  0.00     0.001 A 
HETATM   17  C   UNL     1       0.590   6.502 -31.152  1.00  0.00     0.001 A 
ENDBRANCH   3   6
ENDBRANCH   1   2
BRANCH   1  18
HETATM   18  C   UNL     1      -8.274   3.378 -33.429  1.00  0.00     0.241 C 
HETATM   19  N   UNL     1      -9.094   2.902 -34.414  1.00  0.00    -0.353 N 
HETATM   20  H   UNL     1      -8.858   2.069 -34.948  1.00  0.00     0.162 HD
HETATM   21  O   UNL     1      -8.598   4.323 -32.701  1.00  0.00    -0.271 OA
BRANCH  19  22
HETATM   22  C   UNL     1     -10.437   3.414 -34.582  1.00  0.00     0.187 C 
BRANCH  22  23
HETATM   23  C   UNL     1     -11.419   2.308 -34.475  1.00  0.00     0.070 A 
HETATM   24  O   UNL     1     -11.228   1.406 -33.468  1.00  0.00    -0.325 OA
HETATM   25  C   UNL     1     -12.234   0.499 -33.548  1.00  0.00     0.142 A 
HETATM   26  C   UNL     1     -13.079   0.809 -34.586  1.00  0.00     0.027 A 
HETATM   27  C   UNL     1     -12.553   1.978 -35.188  1.00  0.00     0.036 A 
ENDBRANCH  22  23
ENDBRANCH  19  22
ENDBRANCH   1  18
BRANCH   1  28
HETATM   28  C   UNL     1      -6.798   1.450 -32.512  1.00  0.00     0.075 C 
BRANCH  28  29
HETATM   29  C   UNL     1      -5.720   0.493 -32.926  1.00  0.00    -0.028 A 
HETATM   30  C   UNL     1      -5.909  -0.772 -33.579  1.00  0.00    -0.002 A 
HETATM   31  C   UNL     1      -4.657  -1.377 -33.686  1.00  0.00     0.042 A 
HETATM   32  C   UNL     1      -7.033  -1.470 -34.066  1.00  0.00     0.014 A 
HETATM   33  C   UNL     1      -4.473  -2.646 -34.247  1.00  0.00     0.030 A 
HETATM   34  N   UNL     1      -3.739  -0.513 -33.139  1.00  0.00    -0.365 N 
HETATM   35  C   UNL     1      -5.604  -3.319 -34.717  1.00  0.00     0.002 A 
HETATM   36  C   UNL     1      -6.867  -2.740 -34.632  1.00  0.00     0.001 A 
HETATM   37  H   UNL     1      -2.748  -0.705 -33.068  1.00  0.00     0.165 HD
HETATM   38  C   UNL     1      -4.368   0.609 -32.669  1.00  0.00     0.096 A 
ENDBRANCH  28  29
ENDBRANCH   1  28
TORSDOF 7
ENDMDL
MODEL 6
REMARK VINA RESULT:      -9.6      2.654      8.473
REMARK  7 active torsions:
REMARK  status: ('A' for Active; 'I' for Inactive)
REMARK    1  A    between atoms: C_9  and  C_10 
REMARK       I    between atoms: C_10  and  N_11 
REMARK    2  A    between atoms: N_11  and  C_12 
REMARK    3  A    between atoms: C_12  and  C_13 
REMARK    4  A    between atoms: C_12  and  C_22 
REMARK       I    between atoms: C_13  and  N_14 
REMARK    5  A    between atoms: N_14  and  C_15 
REMARK    6  A    between atoms: C_15  and  C_16 
REMARK    7  A    between atoms: C_22  and  C_23 
ROOT
HETATM    1  C   UNL     1      -4.146   2.892 -32.500  1.00  0.00     0.180 C 
ENDROOT
BRANCH   1   2
HETATM    2  N   UNL     1      -3.459   4.121 -32.025  1.00  0.00    -0.346 N 
HETATM    3  C   UNL     1      -2.438   4.694 -32.745  1.00  0.00     0.249 C 
HETATM    4  O   UNL     1      -2.171   4.427 -33.916  1.00  0.00    -0.271 OA
HETATM    5  H   UNL     1      -3.393   4.163 -31.012  1.00  0.00     0.163 HD
BRANCH   3   6
HETATM    6  C   UNL     1      -1.634   5.797 -32.047  1.00  0.00     0.281 C 
HETATM    7  N   UNL     1      -0.302   5.209 -31.623  1.00  0.00    -0.058 N 
HETATM    8  C   UNL     1       0.599   6.194 -30.993  1.00  0.00     0.272 C 
HETATM    9  H   UNL     1      -0.508   4.435 -30.972  1.00  0.00     0.278 HD
HETATM   10  H   UNL     1       0.138   4.748 -32.429  1.00  0.00     0.278 HD
HETATM   11  C   UNL     1      -0.080   6.969 -29.904  1.00  0.00    -0.026 A 
HETATM   12  C   UNL     1      -1.487   7.051 -29.834  1.00  0.00    -0.048 A 
HETATM   13  C   UNL     1       0.702   7.655 -28.963  1.00  0.00     0.009 A 
HETATM   14  C   UNL     1      -2.080   7.787 -28.798  1.00  0.00     0.008 A 
HETATM   15  C   UNL     1      -2.374   6.305 -30.806  1.00  0.00     0.082 C 
HETATM   16  C   UNL     1      -1.290   8.452 -27.860  1.00  0.00     0.001 A 
HETATM   17  C   UNL     1       0.097   8.390 -27.944  1.00  0.00     0.001 A 
ENDBRANCH   3   6
ENDBRANCH   1   2
BRANCH   1  18
HETATM   18  C   UNL     1      -5.523   3.355 -33.034  1.00  0.00     0.241 C 
HETATM   19  N   UNL     1      -6.605   3.120 -32.233  1.00  0.00    -0.353 N 
HETATM   20  H   UNL     1      -6.499   2.811 -31.270  1.00  0.00     0.162 HD
HETATM   21  O   UNL     1      -5.633   3.833 -34.169  1.00  0.00    -0.271 OA
BRANCH  19  22
HETATM   22  C   UNL     1      -7.935   3.526 -32.636  1.00  0.00     0.187 C 
BRANCH  22  23
HETATM   23  C   UNL     1      -8.776   2.331 -32.888  1.00  0.00     0.070 A 
HETATM   24  O   UNL     1      -9.447   2.286 -34.076  1.00  0.00    -0.325 OA
HETATM   25  C   UNL     1     -10.135   1.116 -34.102  1.00  0.00     0.142 A 
HETATM   26  C   UNL     1      -9.908   0.400 -32.952  1.00  0.00     0.027 A 
HETATM   27  C   UNL     1      -9.030   1.184 -32.164  1.00  0.00     0.036 A 
ENDBRANCH  22  23
ENDBRANCH  19  22
ENDBRANCH   1  18
BRANCH   1  28
HETATM   28  C   UNL     1      -4.214   1.776 -31.443  1.00  0.00     0.075 C 
BRANCH  28  29
HETATM   29  C   UNL     1      -3.913   0.399 -31.955  1.00  0.00    -0.028 A 
HETATM   30  C   UNL     1      -4.678  -0.336 -32.921  1.00  0.00    -0.002 A 
HETATM   31  C   UNL     1      -4.108  -1.604 -33.029  1.00  0.00     0.042 A 
HETATM   32  C   UNL     1      -5.822  -0.050 -33.696  1.00  0.00     0.014 A 
HETATM   33  C   UNL     1      -4.624  -2.601 -33.866  1.00  0.00     0.030 A 
HETATM   34  N   UNL     1      -3.028  -1.638 -32.180  1.00  0.00    -0.365 N 
HETATM   35  C   UNL     1      -5.760  -2.293 -34.619  1.00  0.00     0.002 A 
HETATM   36  C   UNL     1      -6.351  -1.034 -34.539  1.00  0.00     0.001 A 
HETATM   37  H   UNL     1      -2.435  -2.447 -32.044  1.00  0.00     0.165 HD
HETATM   38  C   UNL     1      -2.908  -0.443 -31.520  1.00  0.00     0.096 A 
ENDBRANCH  28  29
ENDBRANCH   1  28
TORSDOF 7
ENDMDL
MODEL 7
REMARK VINA RESULT:      -9.5      1.872      7.923
REMARK  7 active torsions:
REMARK  status: ('A' for Active; 'I' for Inactive)
REMARK    1  A    between atoms: C_9  and  C_10 
REMARK       I    between atoms: C_10  and  N_11 
REMARK    2  A    between atoms: N_11  and  C_12 
REMARK    3  A    between atoms: C_12  and  C_13 
REMARK    4  A    between atoms: C_12  and  C_22 
REMARK       I    between atoms: C_13  and  N_14 
REMARK    5  A    between atoms: N_14  and  C_15 
REMARK    6  A    between atoms: C_15  and  C_16 
REMARK    7  A    between atoms: C_22  and  C_23 
ROOT
HETATM    1  C   UNL     1      -5.500   1.375 -32.992  1.00  0.00     0.180 C 
ENDROOT
BRANCH   1   2
HETATM    2  N   UNL     1      -4.776   2.548 -32.436  1.00  0.00    -0.346 N 
HETATM    3  C   UNL     1      -4.993   3.817 -32.916  1.00  0.00     0.249 C 
HETATM    4  O   UNL     1      -5.940   4.143 -33.630  1.00  0.00    -0.271 OA
HETATM    5  H   UNL     1      -3.831   2.317 -32.144  1.00  0.00     0.163 HD
BRANCH   3   6
HETATM    6  C   UNL     1      -4.018   4.907 -32.456  1.00  0.00     0.281 C 
HETATM    7  N   UNL     1      -3.455   5.583 -33.691  1.00  0.00    -0.058 N 
HETATM    8  C   UNL     1      -2.546   6.704 -33.382  1.00  0.00     0.272 C 
HETATM    9  H   UNL     1      -2.966   4.857 -34.237  1.00  0.00     0.278 HD
HETATM   10  H   UNL     1      -4.229   5.876 -34.301  1.00  0.00     0.278 HD
HETATM   11  C   UNL     1      -1.494   6.322 -32.385  1.00  0.00    -0.026 A 
HETATM   12  C   UNL     1      -1.658   5.203 -31.541  1.00  0.00    -0.048 A 
HETATM   13  C   UNL     1      -0.343   7.116 -32.265  1.00  0.00     0.009 A 
HETATM   14  C   UNL     1      -0.648   4.882 -30.622  1.00  0.00     0.008 A 
HETATM   15  C   UNL     1      -2.865   4.298 -31.651  1.00  0.00     0.082 C 
HETATM   16  C   UNL     1       0.497   5.672 -30.525  1.00  0.00     0.001 A 
HETATM   17  C   UNL     1       0.648   6.789 -31.341  1.00  0.00     0.001 A 
ENDBRANCH   3   6
ENDBRANCH   1   2
BRANCH   1  18
HETATM   18  C   UNL     1      -6.771   1.210 -32.124  1.00  0.00     0.241 C 
HETATM   19  N   UNL     1      -7.918   1.786 -32.594  1.00  0.00    -0.353 N 
HETATM   20  H   UNL     1      -7.979   2.158 -33.538  1.00  0.00     0.162 HD
HETATM   21  O   UNL     1      -6.714   0.657 -31.019  1.00  0.00    -0.271 OA
BRANCH  19  22
HETATM   22  C   UNL     1      -9.162   1.678 -31.863  1.00  0.00     0.187 C 
BRANCH  22  23
HETATM   23  C   UNL     1     -10.306   1.956 -32.764  1.00  0.00     0.070 A 
HETATM   24  O   UNL     1     -10.632   0.986 -33.669  1.00  0.00    -0.325 OA
HETATM   25  C   UNL     1     -11.700   1.438 -34.373  1.00  0.00     0.142 A 
HETATM   26  C   UNL     1     -12.076   2.683 -33.928  1.00  0.00     0.027 A 
HETATM   27  C   UNL     1     -11.175   3.021 -32.889  1.00  0.00     0.036 A 
ENDBRANCH  22  23
ENDBRANCH  19  22
ENDBRANCH   1  18
BRANCH   1  28
HETATM   28  C   UNL     1      -4.633   0.110 -33.101  1.00  0.00     0.075 C 
BRANCH  28  29
HETATM   29  C   UNL     1      -5.298  -1.060 -33.765  1.00  0.00    -0.028 A 
HETATM   30  C   UNL     1      -4.842  -2.420 -33.752  1.00  0.00    -0.002 A 
HETATM   31  C   UNL     1      -5.695  -3.155 -34.574  1.00  0.00     0.042 A 
HETATM   32  C   UNL     1      -3.765  -3.091 -33.136  1.00  0.00     0.014 A 
HETATM   33  C   UNL     1      -5.524  -4.523 -34.818  1.00  0.00     0.030 A 
HETATM   34  N   UNL     1      -6.645  -2.286 -35.055  1.00  0.00    -0.365 N 
HETATM   35  C   UNL     1      -4.446  -5.162 -34.200  1.00  0.00     0.002 A 
HETATM   36  C   UNL     1      -3.579  -4.459 -33.368  1.00  0.00     0.001 A 
HETATM   37  H   UNL     1      -7.386  -2.548 -35.693  1.00  0.00     0.165 HD
HETATM   38  C   UNL     1      -6.410  -1.021 -34.585  1.00  0.00     0.096 A 
ENDBRANCH  28  29
ENDBRANCH   1  28
TORSDOF 7
ENDMDL
MODEL 8
REMARK VINA RESULT:      -9.4      3.432      7.112
REMARK  7 active torsions:
REMARK  status: ('A' for Active; 'I' for Inactive)
REMARK    1  A    between atoms: C_9  and  C_10 
REMARK       I    between atoms: C_10  and  N_11 
REMARK    2  A    between atoms: N_11  and  C_12 
REMARK    3  A    between atoms: C_12  and  C_13 
REMARK    4  A    between atoms: C_12  and  C_22 
REMARK       I    between atoms: C_13  and  N_14 
REMARK    5  A    between atoms: N_14  and  C_15 
REMARK    6  A    between atoms: C_15  and  C_16 
REMARK    7  A    between atoms: C_22  and  C_23 
ROOT
HETATM    1  C   UNL     1      -6.431   3.776 -33.393  1.00  0.00     0.180 C 
ENDROOT
BRANCH   1   2
HETATM    2  N   UNL     1      -5.935   2.378 -33.312  1.00  0.00    -0.346 N 
HETATM    3  C   UNL     1      -6.680   1.325 -33.787  1.00  0.00     0.249 C 
HETATM    4  O   UNL     1      -7.659   1.436 -34.523  1.00  0.00    -0.271 OA
HETATM    5  H   UNL     1      -5.374   2.211 -32.481  1.00  0.00     0.163 HD
BRANCH   3   6
HETATM    6  C   UNL     1      -6.196  -0.084 -33.425  1.00  0.00     0.281 C 
HETATM    7  N   UNL     1      -4.692  -0.128 -33.621  1.00  0.00    -0.058 N 
HETATM    8  C   UNL     1      -4.089  -1.420 -33.240  1.00  0.00     0.272 C 
HETATM    9  H   UNL     1      -4.511   0.080 -34.616  1.00  0.00     0.278 HD
HETATM   10  H   UNL     1      -4.261   0.659 -33.118  1.00  0.00     0.278 HD
HETATM   11  C   UNL     1      -4.802  -2.583 -33.863  1.00  0.00    -0.026 A 
HETATM   12  C   UNL     1      -6.120  -2.458 -34.350  1.00  0.00    -0.048 A 
HETATM   13  C   UNL     1      -4.156  -3.827 -33.926  1.00  0.00     0.009 A 
HETATM   14  C   UNL     1      -6.748  -3.571 -34.925  1.00  0.00     0.008 A 
HETATM   15  C   UNL     1      -6.848  -1.132 -34.333  1.00  0.00     0.082 C 
HETATM   16  C   UNL     1      -6.089  -4.798 -34.994  1.00  0.00     0.001 A 
HETATM   17  C   UNL     1      -4.797  -4.928 -34.493  1.00  0.00     0.001 A 
ENDBRANCH   3   6
ENDBRANCH   1   2
BRANCH   1  18
HETATM   18  C   UNL     1      -5.179   4.657 -33.621  1.00  0.00     0.241 C 
HETATM   19  N   UNL     1      -3.963   4.062 -33.433  1.00  0.00    -0.353 N 
HETATM   20  H   UNL     1      -3.875   3.056 -33.312  1.00  0.00     0.162 HD
HETATM   21  O   UNL     1      -5.292   5.862 -33.876  1.00  0.00    -0.271 OA
BRANCH  19  22
HETATM   22  C   UNL     1      -2.732   4.796 -33.633  1.00  0.00     0.187 C 
BRANCH  22  23
HETATM   23  C   UNL     1      -2.195   5.252 -32.328  1.00  0.00     0.070 A 
HETATM   24  O   UNL     1      -1.067   4.632 -31.873  1.00  0.00    -0.325 OA
HETATM   25  C   UNL     1      -0.748   5.205 -30.685  1.00  0.00     0.142 A 
HETATM   26  C   UNL     1      -1.648   6.195 -30.372  1.00  0.00     0.027 A 
HETATM   27  C   UNL     1      -2.586   6.226 -31.432  1.00  0.00     0.036 A 
ENDBRANCH  22  23
ENDBRANCH  19  22
ENDBRANCH   1  18
BRANCH   1  28
HETATM   28  C   UNL     1      -7.295   4.194 -32.190  1.00  0.00     0.075 C 
BRANCH  28  29
HETATM   29  C   UNL     1      -6.539   4.413 -30.913  1.00  0.00    -0.028 A 
HETATM   30  C   UNL     1      -6.170   5.679 -30.348  1.00  0.00    -0.002 A 
HETATM   31  C   UNL     1      -5.393   5.423 -29.219  1.00  0.00     0.042 A 
HETATM   32  C   UNL     1      -6.404   7.023 -30.707  1.00  0.00     0.014 A 
HETATM   33  C   UNL     1      -4.833   6.439 -28.435  1.00  0.00     0.030 A 
HETATM   34  N   UNL     1      -5.306   4.058 -29.087  1.00  0.00    -0.365 N 
HETATM   35  C   UNL     1      -5.075   7.761 -28.816  1.00  0.00     0.002 A 
HETATM   36  C   UNL     1      -5.852   8.052 -29.934  1.00  0.00     0.001 A 
HETATM   37  H   UNL     1      -4.785   3.588 -28.357  1.00  0.00     0.165 HD
HETATM   38  C   UNL     1      -5.981   3.440 -30.106  1.00  0.00     0.096 A 
ENDBRANCH  28  29
ENDBRANCH   1  28
TORSDOF 7
ENDMDL
MODEL 9
REMARK VINA RESULT:      -9.2      1.714      2.152
REMARK  7 active torsions:
REMARK  status: ('A' for Active; 'I' for Inactive)
REMARK    1  A    between atoms: C_9  and  C_10 
REMARK       I    between atoms: C_10  and  N_11 
REMARK    2  A    between atoms: N_11  and  C_12 
REMARK    3  A    between atoms: C_12  and  C_13 
REMARK    4  A    between atoms: C_12  and  C_22 
REMARK       I    between atoms: C_13  and  N_14 
REMARK    5  A    between atoms: N_14  and  C_15 
REMARK    6  A    between atoms: C_15  and  C_16 
REMARK    7  A    between atoms: C_22  and  C_23 
ROOT
HETATM    1  C   UNL     1      -5.434   2.669 -31.198  1.00  0.00     0.180 C 
ENDROOT
BRANCH   1   2
HETATM    2  N   UNL     1      -6.471   2.700 -32.262  1.00  0.00    -0.346 N 
HETATM    3  C   UNL     1      -7.797   2.899 -31.963  1.00  0.00     0.249 C 
HETATM    4  O   UNL     1      -8.219   3.310 -30.883  1.00  0.00    -0.271 OA
HETATM    5  H   UNL     1      -6.258   2.071 -33.031  1.00  0.00     0.163 HD
BRANCH   3   6
HETATM    6  C   UNL     1      -8.805   2.657 -33.094  1.00  0.00     0.281 C 
HETATM    7  N   UNL     1      -9.542   3.957 -33.350  1.00  0.00    -0.058 N 
HETATM    8  C   UNL     1     -10.502   3.876 -34.469  1.00  0.00     0.272 C 
HETATM    9  H   UNL     1     -10.026   4.208 -32.473  1.00  0.00     0.278 HD
HETATM   10  H   UNL     1      -8.861   4.715 -33.485  1.00  0.00     0.278 HD
HETATM   11  C   UNL     1     -11.413   2.691 -34.349  1.00  0.00    -0.026 A 
HETATM   12  C   UNL     1     -11.075   1.588 -33.538  1.00  0.00    -0.048 A 
HETATM   13  C   UNL     1     -12.605   2.667 -35.089  1.00  0.00     0.009 A 
HETATM   14  C   UNL     1     -11.957   0.501 -33.456  1.00  0.00     0.008 A 
HETATM   15  C   UNL     1      -9.817   1.578 -32.697  1.00  0.00     0.082 C 
HETATM   16  C   UNL     1     -13.145   0.497 -34.186  1.00  0.00     0.001 A 
HETATM   17  C   UNL     1     -13.467   1.576 -35.004  1.00  0.00     0.001 A 
ENDBRANCH   3   6
ENDBRANCH   1   2
BRANCH   1  18
HETATM   18  C   UNL     1      -4.143   3.223 -31.847  1.00  0.00     0.241 C 
HETATM   19  N   UNL     1      -3.281   3.897 -31.028  1.00  0.00    -0.353 N 
HETATM   20  H   UNL     1      -3.395   3.895 -30.018  1.00  0.00     0.162 HD
HETATM   21  O   UNL     1      -3.957   3.127 -33.066  1.00  0.00    -0.271 OA
BRANCH  19  22
HETATM   22  C   UNL     1      -2.041   4.443 -31.536  1.00  0.00     0.187 C 
BRANCH  22  23
HETATM   23  C   UNL     1      -2.165   5.911 -31.707  1.00  0.00     0.070 A 
HETATM   24  O   UNL     1      -3.266   6.507 -31.163  1.00  0.00    -0.325 OA
HETATM   25  C   UNL     1      -3.172   7.835 -31.424  1.00  0.00     0.142 A 
HETATM   26  C   UNL     1      -2.019   8.107 -32.120  1.00  0.00     0.027 A 
HETATM   27  C   UNL     1      -1.366   6.864 -32.306  1.00  0.00     0.036 A 
ENDBRANCH  22  23
ENDBRANCH  19  22
ENDBRANCH   1  18
BRANCH   1  28
HETATM   28  C   UNL     1      -5.274   1.291 -30.533  1.00  0.00     0.075 C 
BRANCH  28  29
HETATM   29  C   UNL     1      -4.564   0.265 -31.366  1.00  0.00    -0.028 A 
HETATM   30  C   UNL     1      -5.146  -0.545 -32.397  1.00  0.00    -0.002 A 
HETATM   31  C   UNL     1      -4.163  -1.430 -32.838  1.00  0.00     0.042 A 
HETATM   32  C   UNL     1      -6.427  -0.625 -32.981  1.00  0.00     0.014 A 
HETATM   33  C   UNL     1      -4.397  -2.395 -33.825  1.00  0.00     0.030 A 
HETATM   34  N   UNL     1      -3.023  -1.162 -32.120  1.00  0.00    -0.365 N 
HETATM   35  C   UNL     1      -5.676  -2.456 -34.383  1.00  0.00     0.002 A 
HETATM   36  C   UNL     1      -6.679  -1.582 -33.971  1.00  0.00     0.001 A 
HETATM   37  H   UNL     1      -2.152  -1.668 -32.223  1.00  0.00     0.165 HD
HETATM   38  C   UNL     1      -3.255  -0.153 -31.224  1.00  0.00     0.096 A 
ENDBRANCH  28  29
ENDBRANCH   1  28
TORSDOF 7
ENDMDL
MODEL 10
REMARK VINA RESULT:      -9.1      2.909      7.005
REMARK  7 active torsions:
REMARK  status: ('A' for Active; 'I' for Inactive)
REMARK    1  A    between atoms: C_9  and  C_10 
REMARK       I    between atoms: C_10  and  N_11 
REMARK    2  A    between atoms: N_11  and  C_12 
REMARK    3  A    between atoms: C_12  and  C_13 
REMARK    4  A    between atoms: C_12  and  C_22 
REMARK       I    between atoms: C_13  and  N_14 
REMARK    5  A    between atoms: N_14  and  C_15 
REMARK    6  A    between atoms: C_15  and  C_16 
REMARK    7  A    between atoms: C_22  and  C_23 
ROOT
HETATM    1  C   UNL     1      -4.523   3.489 -31.795  1.00  0.00     0.180 C 
ENDROOT
BRANCH   1   2
HETATM    2  N   UNL     1      -4.404   2.029 -32.040  1.00  0.00    -0.346 N 
HETATM    3  C   UNL     1      -5.346   1.347 -32.772  1.00  0.00     0.249 C 
HETATM    4  O   UNL     1      -6.199   1.876 -33.483  1.00  0.00    -0.271 OA
HETATM    5  H   UNL     1      -3.976   1.537 -31.261  1.00  0.00     0.163 HD
BRANCH   3   6
HETATM    6  C   UNL     1      -5.266  -0.185 -32.747  1.00  0.00     0.281 C 
HETATM    7  N   UNL     1      -3.850  -0.585 -33.117  1.00  0.00    -0.058 N 
HETATM    8  C   UNL     1      -3.621  -2.042 -33.066  1.00  0.00     0.272 C 
HETATM    9  H   UNL     1      -3.672  -0.222 -34.067  1.00  0.00     0.278 HD
HETATM   10  H   UNL     1      -3.186  -0.072 -32.525  1.00  0.00     0.278 HD
HETATM   11  C   UNL     1      -4.670  -2.807 -33.817  1.00  0.00    -0.026 A 
HETATM   12  C   UNL     1      -5.922  -2.231 -34.117  1.00  0.00    -0.048 A 
HETATM   13  C   UNL     1      -4.410  -4.134 -34.193  1.00  0.00     0.009 A 
HETATM   14  C   UNL     1      -6.872  -2.984 -34.821  1.00  0.00     0.008 A 
HETATM   15  C   UNL     1      -6.239  -0.796 -33.761  1.00  0.00     0.082 C 
HETATM   16  C   UNL     1      -6.595  -4.296 -35.201  1.00  0.00     0.001 A 
HETATM   17  C   UNL     1      -5.369  -4.872 -34.885  1.00  0.00     0.001 A 
ENDBRANCH   3   6
ENDBRANCH   1   2
BRANCH   1  18
HETATM   18  C   UNL     1      -3.202   4.114 -32.304  1.00  0.00     0.241 C 
HETATM   19  N   UNL     1      -2.868   5.342 -31.804  1.00  0.00    -0.353 N 
HETATM   20  H   UNL     1      -3.368   5.752 -31.019  1.00  0.00     0.162 HD
HETATM   21  O   UNL     1      -2.537   3.557 -33.185  1.00  0.00    -0.271 OA
BRANCH  19  22
HETATM   22  C   UNL     1      -1.647   6.006 -32.207  1.00  0.00     0.187 C 
BRANCH  22  23
HETATM   23  C   UNL     1      -0.938   6.532 -31.015  1.00  0.00     0.070 A 
HETATM   24  O   UNL     1      -1.689   6.754 -29.897  1.00  0.00    -0.325 OA
HETATM   25  C   UNL     1      -0.849   7.216 -28.937  1.00  0.00     0.142 A 
HETATM   26  C   UNL     1       0.437   7.285 -29.416  1.00  0.00     0.027 A 
HETATM   27  C   UNL     1       0.382   6.844 -30.761  1.00  0.00     0.036 A 
ENDBRANCH  22  23
ENDBRANCH  19  22
ENDBRANCH   1  18
BRANCH   1  28
HETATM   28  C   UNL     1      -4.878   3.843 -30.340  1.00  0.00     0.075 C 
BRANCH  28  29
HETATM   29  C   UNL     1      -6.132   4.649 -30.172  1.00  0.00    -0.028 A 
HETATM   30  C   UNL     1      -7.477   4.173 -30.324  1.00  0.00    -0.002 A 
HETATM   31  C   UNL     1      -8.327   5.269 -30.183  1.00  0.00     0.042 A 
HETATM   32  C   UNL     1      -8.050   2.913 -30.595  1.00  0.00     0.014 A 
HETATM   33  C   UNL     1      -9.719   5.172 -30.305  1.00  0.00     0.030 A 
HETATM   34  N   UNL     1      -7.538   6.366 -29.936  1.00  0.00    -0.365 N 
HETATM   35  C   UNL     1     -10.260   3.914 -30.579  1.00  0.00     0.002 A 
HETATM   36  C   UNL     1      -9.441   2.797 -30.719  1.00  0.00     0.001 A 
HETATM   37  H   UNL     1      -7.893   7.306 -29.808  1.00  0.00     0.165 HD
HETATM   38  C   UNL     1      -6.216   6.008 -29.939  1.00  0.00     0.096 A 
ENDBRANCH  28  29
ENDBRANCH   1  28
TORSDOF 7
ENDMDL
