MODEL 1
REMARK VINA RESULT:      -8.4      0.000      0.000
REMARK  6 active torsions:
REMARK  status: ('A' for Active; 'I' for Inactive)
REMARK    1  A    between atoms: C_2  and  C_3 
REMARK       I    between atoms: C_3  and  N_4 
REMARK    2  A    between atoms: N_4  and  C_5 
REMARK    3  A    between atoms: C_5  and  C_6 
REMARK    4  A    between atoms: N_8  and  C_10 
REMARK    5  A    between atoms: C_10  and  C_11 
REMARK    6  A    between atoms: C_12  and  C_13 
ROOT
HETATM    1  C   UNL     1      -2.866   5.142 -33.701  1.00  0.00     0.029 C 
HETATM    2  C   UNL     1      -2.752   3.702 -33.189  1.00  0.00     0.241 C 
HETATM    3  N   UNL     1      -4.024   3.234 -32.523  1.00  0.00    -0.067 N 
HETATM    4  H   UNL     1      -4.136   3.822 -31.672  1.00  0.00     0.280 HD
HETATM    5  C   UNL     1      -5.229   3.362 -33.411  1.00  0.00     0.235 C 
HETATM    6  C   UNL     1      -5.348   4.752 -34.022  1.00  0.00     0.028 C 
HETATM    7  C   UNL     1      -4.051   5.227 -34.672  1.00  0.00     0.009 C 
ENDROOT
BRANCH   3   8
HETATM    8  C   UNL     1      -3.827   1.829 -31.963  1.00  0.00     0.277 C 
BRANCH   8   9
HETATM    9  C   UNL     1      -4.931   1.280 -31.129  1.00  0.00     0.016 A 
HETATM   10  C   UNL     1      -5.803   0.175 -31.396  1.00  0.00     0.096 A 
HETATM   11  N   UNL     1      -6.640  -0.029 -30.370  1.00  0.00    -0.174 NA
HETATM   12  N   UNL     1      -6.405   0.969 -29.519  1.00  0.00    -0.288 N 
HETATM   13  H   UNL     1      -6.978   1.031 -28.680  1.00  0.00     0.188 HD
HETATM   14  C   UNL     1      -5.394   1.786 -29.924  1.00  0.00     0.120 A 
BRANCH  10  15
HETATM   15  C   UNL     1      -5.899  -0.683 -32.576  1.00  0.00    -0.003 A 
HETATM   16  C   UNL     1      -4.955  -1.690 -32.810  1.00  0.00     0.037 A 
HETATM   17  C   UNL     1      -5.030  -2.459 -33.973  1.00  0.00     0.035 A 
HETATM   18 CL   UNL     1      -3.879  -3.713 -34.230  1.00  0.00    -0.084 Cl
HETATM   19  C   UNL     1      -6.024  -2.226 -34.919  1.00  0.00     0.024 A 
HETATM   20  C   UNL     1      -6.957  -1.213 -34.703  1.00  0.00     0.003 A 
HETATM   21  C   UNL     1      -6.893  -0.445 -33.537  1.00  0.00     0.014 A 
ENDBRANCH  10  15
ENDBRANCH   8   9
ENDBRANCH   3   8
BRANCH   1  22
HETATM   22  C   UNL     1      -2.990   6.233 -32.619  1.00  0.00     0.128 C 
BRANCH  22  23
HETATM   23  N   UNL     1      -1.891   6.276 -31.682  1.00  0.00    -0.360 N 
HETATM   24  C   UNL     1      -0.759   7.019 -31.953  1.00  0.00     0.221 C 
HETATM   25  O   UNL     1      -0.745   7.845 -32.867  1.00  0.00    -0.273 OA
HETATM   26  H   UNL     1      -1.800   5.503 -31.025  1.00  0.00     0.162 HD
BRANCH  24  27
HETATM   27  C   UNL     1       0.410   6.743 -31.012  1.00  0.00     0.070 C 
HETATM   28  C   UNL     1       0.674   5.242 -30.908  1.00  0.00     0.019 C 
HETATM   29  C   UNL     1       0.151   7.336 -29.632  1.00  0.00     0.019 C 
ENDBRANCH  24  27
ENDBRANCH  22  23
ENDBRANCH   1  22
TORSDOF 6
ENDMDL
MODEL 2
REMARK VINA RESULT:      -8.3      2.028      2.723
REMARK  6 active torsions:
REMARK  status: ('A' for Active; 'I' for Inactive)
REMARK    1  A    between atoms: C_2  and  C_3 
REMARK       I    between atoms: C_3  and  N_4 
REMARK    2  A    between atoms: N_4  and  C_5 
REMARK    3  A    between atoms: C_5  and  C_6 
REMARK    4  A    between atoms: N_8  and  C_10 
REMARK    5  A    between atoms: C_10  and  C_11 
REMARK    6  A    between atoms: C_12  and  C_13 
ROOT
HETATM    1  C   UNL     1      -4.360   3.815 -32.922  1.00  0.00     0.029 C 
HETATM    2  C   UNL     1      -5.287   2.628 -32.644  1.00  0.00     0.241 C 
HETATM    3  N   UNL     1      -5.323   2.267 -31.178  1.00  0.00    -0.067 N 
HETATM    4  H   UNL     1      -4.366   1.932 -30.940  1.00  0.00     0.280 HD
HETATM    5  C   UNL     1      -5.706   3.425 -30.300  1.00  0.00     0.235 C 
HETATM    6  C   UNL     1      -4.875   4.667 -30.593  1.00  0.00     0.028 C 
HETATM    7  C   UNL     1      -4.824   5.011 -32.079  1.00  0.00     0.009 C 
ENDROOT
BRANCH   3   8
HETATM    8  C   UNL     1      -6.195   1.033 -30.971  1.00  0.00     0.277 C 
BRANCH   8   9
HETATM    9  C   UNL     1      -7.349   0.865 -31.897  1.00  0.00     0.016 A 
HETATM   10  C   UNL     1      -7.505  -0.045 -32.994  1.00  0.00     0.096 A 
HETATM   11  N   UNL     1      -8.715   0.089 -33.553  1.00  0.00    -0.174 NA
HETATM   12  N   UNL     1      -9.283   1.119 -32.927  1.00  0.00    -0.288 N 
HETATM   13  H   UNL     1     -10.202   1.424 -33.238  1.00  0.00     0.188 HD
HETATM   14  C   UNL     1      -8.508   1.626 -31.928  1.00  0.00     0.120 A 
BRANCH  10  15
HETATM   15  C   UNL     1      -6.566  -1.018 -33.549  1.00  0.00    -0.003 A 
HETATM   16  C   UNL     1      -7.024  -2.175 -34.188  1.00  0.00     0.037 A 
HETATM   17  C   UNL     1      -6.111  -3.120 -34.659  1.00  0.00     0.035 A 
HETATM   18 CL   UNL     1      -6.692  -4.523 -35.469  1.00  0.00    -0.084 Cl
HETATM   19  C   UNL     1      -4.742  -2.937 -34.484  1.00  0.00     0.024 A 
HETATM   20  C   UNL     1      -4.278  -1.796 -33.832  1.00  0.00     0.003 A 
HETATM   21  C   UNL     1      -5.185  -0.842 -33.367  1.00  0.00     0.014 A 
ENDBRANCH  10  15
ENDBRANCH   8   9
ENDBRANCH   3   8
BRANCH   1  22
HETATM   22  C   UNL     1      -2.856   3.562 -32.697  1.00  0.00     0.128 C 
BRANCH  22  23
HETATM   23  N   UNL     1      -2.018   4.723 -32.882  1.00  0.00    -0.360 N 
HETATM   24  C   UNL     1      -1.137   5.125 -31.896  1.00  0.00     0.221 C 
HETATM   25  O   UNL     1      -0.866   4.387 -30.948  1.00  0.00    -0.273 OA
HETATM   26  H   UNL     1      -2.325   5.425 -33.552  1.00  0.00     0.162 HD
BRANCH  24  27
HETATM   27  C   UNL     1      -0.535   6.509 -32.122  1.00  0.00     0.070 C 
HETATM   28  C   UNL     1       0.424   6.870 -30.990  1.00  0.00     0.019 C 
HETATM   29  C   UNL     1      -1.627   7.564 -32.253  1.00  0.00     0.019 C 
ENDBRANCH  24  27
ENDBRANCH  22  23
ENDBRANCH   1  22
TORSDOF 6
ENDMDL
MODEL 3
REMARK VINA RESULT:      -8.3      3.437      8.412
REMARK  6 active torsions:
REMARK  status: ('A' for Active; 'I' for Inactive)
REMARK    1  A    between atoms: C_2  and  C_3 
REMARK       I    between atoms: C_3  and  N_4 
REMARK    2  A    between atoms: N_4  and  C_5 
REMARK    3  A    between atoms: C_5  and  C_6 
REMARK    4  A    between atoms: N_8  and  C_10 
REMARK    5  A    between atoms: C_10  and  C_11 
REMARK    6  A    between atoms: C_12  and  C_13 
ROOT
HETATM    1  C   UNL     1      -4.225   0.499 -32.158  1.00  0.00     0.029 C 
HETATM    2  C   UNL     1      -3.915   1.998 -32.215  1.00  0.00     0.241 C 
HETATM    3  N   UNL     1      -5.071   2.836 -31.725  1.00  0.00    -0.067 N 
HETATM    4  H   UNL     1      -5.844   2.687 -32.406  1.00  0.00     0.280 HD
HETATM    5  C   UNL     1      -5.515   2.464 -30.339  1.00  0.00     0.235 C 
HETATM    6  C   UNL     1      -5.755   0.967 -30.195  1.00  0.00     0.028 C 
HETATM    7  C   UNL     1      -4.592   0.127 -30.714  1.00  0.00     0.009 C 
ENDROOT
BRANCH   3   8
HETATM    8  C   UNL     1      -4.738   4.316 -31.881  1.00  0.00     0.277 C 
BRANCH   8   9
HETATM    9  C   UNL     1      -4.215   4.749 -33.206  1.00  0.00     0.016 A 
HETATM   10  C   UNL     1      -2.997   5.437 -33.517  1.00  0.00     0.096 A 
HETATM   11  N   UNL     1      -2.871   5.606 -34.840  1.00  0.00    -0.174 NA
HETATM   12  N   UNL     1      -4.010   5.153 -35.364  1.00  0.00    -0.288 N 
HETATM   13  H   UNL     1      -4.142   5.236 -36.369  1.00  0.00     0.188 HD
HETATM   14  C   UNL     1      -4.854   4.632 -34.431  1.00  0.00     0.120 A 
BRANCH  10  15
HETATM   15  C   UNL     1      -1.958   5.958 -32.629  1.00  0.00    -0.003 A 
HETATM   16  C   UNL     1      -0.906   5.142 -32.198  1.00  0.00     0.037 A 
HETATM   17  C   UNL     1       0.042   5.642 -31.303  1.00  0.00     0.035 A 
HETATM   18 CL   UNL     1       1.345   4.633 -30.807  1.00  0.00    -0.084 Cl
HETATM   19  C   UNL     1      -0.054   6.942 -30.815  1.00  0.00     0.024 A 
HETATM   20  C   UNL     1      -1.109   7.755 -31.225  1.00  0.00     0.003 A 
HETATM   21  C   UNL     1      -2.057   7.265 -32.127  1.00  0.00     0.014 A 
ENDBRANCH  10  15
ENDBRANCH   8   9
ENDBRANCH   3   8
BRANCH   1  22
HETATM   22  C   UNL     1      -5.315  -0.000 -33.126  1.00  0.00     0.128 C 
BRANCH  22  23
HETATM   23  N   UNL     1      -4.976  -1.210 -33.840  1.00  0.00    -0.360 N 
HETATM   24  C   UNL     1      -5.924  -1.880 -34.587  1.00  0.00     0.221 C 
HETATM   25  O   UNL     1      -7.003  -1.354 -34.864  1.00  0.00    -0.273 OA
HETATM   26  H   UNL     1      -4.174  -1.744 -33.509  1.00  0.00     0.162 HD
BRANCH  24  27
HETATM   27  C   UNL     1      -5.491  -3.270 -35.044  1.00  0.00     0.070 C 
HETATM   28  C   UNL     1      -6.656  -4.254 -34.951  1.00  0.00     0.019 C 
HETATM   29  C   UNL     1      -4.306  -3.769 -34.227  1.00  0.00     0.019 C 
ENDBRANCH  24  27
ENDBRANCH  22  23
ENDBRANCH   1  22
TORSDOF 6
ENDMDL
MODEL 4
REMARK VINA RESULT:      -8.3      1.447      2.138
REMARK  6 active torsions:
REMARK  status: ('A' for Active; 'I' for Inactive)
REMARK    1  A    between atoms: C_2  and  C_3 
REMARK       I    between atoms: C_3  and  N_4 
REMARK    2  A    between atoms: N_4  and  C_5 
REMARK    3  A    between atoms: C_5  and  C_6 
REMARK    4  A    between atoms: N_8  and  C_10 
REMARK    5  A    between atoms: C_10  and  C_11 
REMARK    6  A    between atoms: C_12  and  C_13 
ROOT
HETATM    1  C   UNL     1      -2.380   4.426 -32.622  1.00  0.00     0.029 C 
HETATM    2  C   UNL     1      -3.528   3.413 -32.544  1.00  0.00     0.241 C 
HETATM    3  N   UNL     1      -4.836   4.000 -33.018  1.00  0.00    -0.067 N 
HETATM    4  H   UNL     1      -5.080   4.749 -32.335  1.00  0.00     0.280 HD
HETATM    5  C   UNL     1      -4.753   4.566 -34.407  1.00  0.00     0.235 C 
HETATM    6  C   UNL     1      -3.574   5.516 -34.571  1.00  0.00     0.028 C 
HETATM    7  C   UNL     1      -2.260   4.924 -34.069  1.00  0.00     0.009 C 
ENDROOT
BRANCH   3   8
HETATM    8  C   UNL     1      -5.954   2.979 -32.842  1.00  0.00     0.277 C 
BRANCH   8   9
HETATM    9  C   UNL     1      -6.077   2.344 -31.501  1.00  0.00     0.016 A 
HETATM   10  C   UNL     1      -5.691   1.028 -31.084  1.00  0.00     0.096 A 
HETATM   11  N   UNL     1      -5.930   0.855 -29.777  1.00  0.00    -0.174 NA
HETATM   12  N   UNL     1      -6.551   1.965 -29.381  1.00  0.00    -0.288 N 
HETATM   13  H   UNL     1      -6.870   2.020 -28.416  1.00  0.00     0.188 HD
HETATM   14  C   UNL     1      -6.671   2.891 -30.373  1.00  0.00     0.120 A 
BRANCH  10  15
HETATM   15  C   UNL     1      -5.128  -0.076 -31.859  1.00  0.00    -0.003 A 
HETATM   16  C   UNL     1      -5.860  -0.676 -32.891  1.00  0.00     0.037 A 
HETATM   17  C   UNL     1      -5.328  -1.767 -33.579  1.00  0.00     0.035 A 
HETATM   18 CL   UNL     1      -6.229  -2.473 -34.865  1.00  0.00    -0.084 Cl
HETATM   19  C   UNL     1      -4.081  -2.285 -33.240  1.00  0.00     0.024 A 
HETATM   20  C   UNL     1      -3.354  -1.706 -32.202  1.00  0.00     0.003 A 
HETATM   21  C   UNL     1      -3.876  -0.607 -31.514  1.00  0.00     0.014 A 
ENDBRANCH  10  15
ENDBRANCH   8   9
ENDBRANCH   3   8
BRANCH   1  22
HETATM   22  C   UNL     1      -2.473   5.623 -31.656  1.00  0.00     0.128 C 
BRANCH  22  23
HETATM   23  N   UNL     1      -1.652   5.506 -30.474  1.00  0.00    -0.360 N 
HETATM   24  C   UNL     1      -1.100   6.625 -29.881  1.00  0.00     0.221 C 
HETATM   25  O   UNL     1      -1.476   7.757 -30.188  1.00  0.00    -0.273 OA
HETATM   26  H   UNL     1      -1.198   4.610 -30.301  1.00  0.00     0.162 HD
BRANCH  24  27
HETATM   27  C   UNL     1      -0.044   6.315 -28.823  1.00  0.00     0.070 C 
HETATM   28  C   UNL     1       0.828   7.541 -28.559  1.00  0.00     0.019 C 
HETATM   29  C   UNL     1       0.816   5.129 -29.242  1.00  0.00     0.019 C 
ENDBRANCH  24  27
ENDBRANCH  22  23
ENDBRANCH   1  22
TORSDOF 6
ENDMDL
MODEL 5
REMARK VINA RESULT:      -8.0      3.905      7.676
REMARK  6 active torsions:
REMARK  status: ('A' for Active; 'I' for Inactive)
REMARK    1  A    between atoms: C_2  and  C_3 
REMARK       I    between atoms: C_3  and  N_4 
REMARK    2  A    between atoms: N_4  and  C_5 
REMARK    3  A    between atoms: C_5  and  C_6 
REMARK    4  A    between atoms: N_8  and  C_10 
REMARK    5  A    between atoms: C_10  and  C_11 
REMARK    6  A    between atoms: C_12  and  C_13 
ROOT
HETATM    1  C   UNL     1      -4.541   0.136 -31.531  1.00  0.00     0.029 C 
HETATM    2  C   UNL     1      -3.487   1.239 -31.667  1.00  0.00     0.241 C 
HETATM    3  N   UNL     1      -4.109   2.612 -31.755  1.00  0.00    -0.067 N 
HETATM    4  H   UNL     1      -4.645   2.629 -32.648  1.00  0.00     0.280 HD
HETATM    5  C   UNL     1      -5.015   2.918 -30.596  1.00  0.00     0.235 C 
HETATM    6  C   UNL     1      -6.032   1.811 -30.354  1.00  0.00     0.028 C 
HETATM    7  C   UNL     1      -5.398   0.425 -30.290  1.00  0.00     0.009 C 
ENDROOT
BRANCH   3   8
HETATM    8  C   UNL     1      -3.022   3.659 -31.972  1.00  0.00     0.277 C 
BRANCH   8   9
HETATM    9  C   UNL     1      -3.053   4.400 -33.264  1.00  0.00     0.016 A 
HETATM   10  C   UNL     1      -4.183   4.831 -34.033  1.00  0.00     0.096 A 
HETATM   11  N   UNL     1      -3.788   5.509 -35.119  1.00  0.00    -0.174 NA
HETATM   12  N   UNL     1      -2.458   5.425 -35.123  1.00  0.00    -0.288 N 
HETATM   13  H   UNL     1      -1.952   5.838 -35.903  1.00  0.00     0.188 HD
HETATM   14  C   UNL     1      -1.963   4.768 -34.037  1.00  0.00     0.120 A 
BRANCH  10  15
HETATM   15  C   UNL     1      -5.612   4.620 -33.804  1.00  0.00    -0.003 A 
HETATM   16  C   UNL     1      -6.399   5.615 -33.214  1.00  0.00     0.037 A 
HETATM   17  C   UNL     1      -7.748   5.371 -32.950  1.00  0.00     0.035 A 
HETATM   18 CL   UNL     1      -8.708   6.617 -32.250  1.00  0.00    -0.084 Cl
HETATM   19  C   UNL     1      -8.322   4.139 -33.249  1.00  0.00     0.024 A 
HETATM   20  C   UNL     1      -7.540   3.136 -33.820  1.00  0.00     0.003 A 
HETATM   21  C   UNL     1      -6.192   3.376 -34.096  1.00  0.00     0.014 A 
ENDBRANCH  10  15
ENDBRANCH   8   9
ENDBRANCH   3   8
BRANCH   1  22
HETATM   22  C   UNL     1      -5.446  -0.085 -32.758  1.00  0.00     0.128 C 
BRANCH  22  23
HETATM   23  N   UNL     1      -5.084  -1.221 -33.574  1.00  0.00    -0.360 N 
HETATM   24  C   UNL     1      -5.992  -1.783 -34.450  1.00  0.00     0.221 C 
HETATM   25  O   UNL     1      -7.039  -1.201 -34.738  1.00  0.00    -0.273 OA
HETATM   26  H   UNL     1      -4.318  -1.809 -33.251  1.00  0.00     0.162 HD
BRANCH  24  27
HETATM   27  C   UNL     1      -5.558  -3.128 -35.024  1.00  0.00     0.070 C 
HETATM   28  C   UNL     1      -6.702  -4.137 -34.957  1.00  0.00     0.019 C 
HETATM   29  C   UNL     1      -4.332  -3.663 -34.293  1.00  0.00     0.019 C 
ENDBRANCH  24  27
ENDBRANCH  22  23
ENDBRANCH   1  22
TORSDOF 6
ENDMDL
MODEL 6
REMARK VINA RESULT:      -8.0      2.206      3.083
REMARK  6 active torsions:
REMARK  status: ('A' for Active; 'I' for Inactive)
REMARK    1  A    between atoms: C_2  and  C_3 
REMARK       I    between atoms: C_3  and  N_4 
REMARK    2  A    between atoms: N_4  and  C_5 
REMARK    3  A    between atoms: C_5  and  C_6 
REMARK    4  A    between atoms: N_8  and  C_10 
REMARK    5  A    between atoms: C_10  and  C_11 
REMARK    6  A    between atoms: C_12  and  C_13 
ROOT
HETATM    1  C   UNL     1      -4.875   4.858 -31.844  1.00  0.00     0.029 C 
HETATM    2  C   UNL     1      -6.015   4.471 -32.792  1.00  0.00     0.241 C 
HETATM    3  N   UNL     1      -6.416   3.023 -32.638  1.00  0.00    -0.067 N 
HETATM    4  H   UNL     1      -5.595   2.463 -32.947  1.00  0.00     0.280 HD
HETATM    5  C   UNL     1      -6.789   2.669 -31.226  1.00  0.00     0.235 C 
HETATM    6  C   UNL     1      -5.731   3.110 -30.224  1.00  0.00     0.028 C 
HETATM    7  C   UNL     1      -5.314   4.567 -30.402  1.00  0.00     0.009 C 
ENDROOT
BRANCH   3   8
HETATM    8  C   UNL     1      -7.493   2.674 -33.658  1.00  0.00     0.277 C 
BRANCH   8   9
HETATM    9  C   UNL     1      -8.494   1.649 -33.251  1.00  0.00     0.016 A 
HETATM   10  C   UNL     1      -8.336   0.231 -33.118  1.00  0.00     0.096 A 
HETATM   11  N   UNL     1      -9.469  -0.335 -32.684  1.00  0.00    -0.174 NA
HETATM   12  N   UNL     1     -10.365   0.651 -32.645  1.00  0.00    -0.288 N 
HETATM   13  H   UNL     1     -11.321   0.422 -32.384  1.00  0.00     0.188 HD
HETATM   14  C   UNL     1      -9.837   1.862 -32.978  1.00  0.00     0.120 A 
BRANCH  10  15
HETATM   15  C   UNL     1      -7.177  -0.615 -33.399  1.00  0.00    -0.003 A 
HETATM   16  C   UNL     1      -6.061  -0.607 -32.554  1.00  0.00     0.037 A 
HETATM   17  C   UNL     1      -4.941  -1.377 -32.872  1.00  0.00     0.035 A 
HETATM   18 CL   UNL     1      -3.588  -1.378 -31.807  1.00  0.00    -0.084 Cl
HETATM   19  C   UNL     1      -4.909  -2.145 -34.033  1.00  0.00     0.024 A 
HETATM   20  C   UNL     1      -6.009  -2.144 -34.889  1.00  0.00     0.003 A 
HETATM   21  C   UNL     1      -7.137  -1.382 -34.573  1.00  0.00     0.014 A 
ENDBRANCH  10  15
ENDBRANCH   8   9
ENDBRANCH   3   8
BRANCH   1  22
HETATM   22  C   UNL     1      -3.512   4.197 -32.126  1.00  0.00     0.128 C 
BRANCH  22  23
HETATM   23  N   UNL     1      -2.471   5.115 -32.526  1.00  0.00    -0.360 N 
HETATM   24  C   UNL     1      -1.314   5.242 -31.782  1.00  0.00     0.221 C 
HETATM   25  O   UNL     1      -1.028   4.423 -30.908  1.00  0.00    -0.273 OA
HETATM   26  H   UNL     1      -2.735   5.898 -33.121  1.00  0.00     0.162 HD
BRANCH  24  27
HETATM   27  C   UNL     1      -0.448   6.436 -32.172  1.00  0.00     0.070 C 
HETATM   28  C   UNL     1       0.561   6.752 -31.070  1.00  0.00     0.019 C 
HETATM   29  C   UNL     1      -1.308   7.658 -32.474  1.00  0.00     0.019 C 
ENDBRANCH  24  27
ENDBRANCH  22  23
ENDBRANCH   1  22
TORSDOF 6
ENDMDL
MODEL 7
REMARK VINA RESULT:      -7.8      4.235      8.053
REMARK  6 active torsions:
REMARK  status: ('A' for Active; 'I' for Inactive)
REMARK    1  A    between atoms: C_2  and  C_3 
REMARK       I    between atoms: C_3  and  N_4 
REMARK    2  A    between atoms: N_4  and  C_5 
REMARK    3  A    between atoms: C_5  and  C_6 
REMARK    4  A    between atoms: N_8  and  C_10 
REMARK    5  A    between atoms: C_10  and  C_11 
REMARK    6  A    between atoms: C_12  and  C_13 
ROOT
HETATM    1  C   UNL     1      -7.443   1.115 -34.650  1.00  0.00     0.029 C 
HETATM    2  C   UNL     1      -6.205   1.572 -33.872  1.00  0.00     0.241 C 
HETATM    3  N   UNL     1      -5.723   0.519 -32.903  1.00  0.00    -0.067 N 
HETATM    4  H   UNL     1      -6.476   0.416 -32.191  1.00  0.00     0.280 HD
HETATM    5  C   UNL     1      -5.446  -0.802 -33.565  1.00  0.00     0.235 C 
HETATM    6  C   UNL     1      -6.612  -1.267 -34.428  1.00  0.00     0.028 C 
HETATM    7  C   UNL     1      -7.108  -0.189 -35.388  1.00  0.00     0.009 C 
ENDROOT
BRANCH   3   8
HETATM    8  C   UNL     1      -4.543   1.056 -32.100  1.00  0.00     0.277 C 
BRANCH   8   9
HETATM    9  C   UNL     1      -4.829   2.170 -31.154  1.00  0.00     0.016 A 
HETATM   10  C   UNL     1      -4.263   3.486 -31.108  1.00  0.00     0.096 A 
HETATM   11  N   UNL     1      -4.820   4.208 -30.127  1.00  0.00    -0.174 NA
HETATM   12  N   UNL     1      -5.630   3.367 -29.484  1.00  0.00    -0.288 N 
HETATM   13  H   UNL     1      -6.121   3.707 -28.661  1.00  0.00     0.188 HD
HETATM   14  C   UNL     1      -5.672   2.131 -30.054  1.00  0.00     0.120 A 
BRANCH  10  15
HETATM   15  C   UNL     1      -3.213   4.087 -31.929  1.00  0.00    -0.003 A 
HETATM   16  C   UNL     1      -2.029   4.557 -31.349  1.00  0.00     0.037 A 
HETATM   17  C   UNL     1      -1.065   5.181 -32.142  1.00  0.00     0.035 A 
HETATM   18 CL   UNL     1       0.399   5.726 -31.418  1.00  0.00    -0.084 Cl
HETATM   19  C   UNL     1      -1.272   5.363 -33.507  1.00  0.00     0.024 A 
HETATM   20  C   UNL     1      -2.457   4.915 -34.089  1.00  0.00     0.003 A 
HETATM   21  C   UNL     1      -3.422   4.280 -33.303  1.00  0.00     0.014 A 
ENDBRANCH  10  15
ENDBRANCH   8   9
ENDBRANCH   3   8
BRANCH   1  22
HETATM   22  C   UNL     1      -8.731   0.939 -33.822  1.00  0.00     0.128 C 
BRANCH  22  23
HETATM   23  N   UNL     1      -9.954   1.069 -34.580  1.00  0.00    -0.360 N 
HETATM   24  C   UNL     1     -10.704   2.228 -34.519  1.00  0.00     0.221 C 
HETATM   25  O   UNL     1     -10.245   3.256 -34.021  1.00  0.00    -0.273 OA
HETATM   26  H   UNL     1     -10.432   0.214 -34.856  1.00  0.00     0.162 HD
BRANCH  24  27
HETATM   27  C   UNL     1     -12.091   2.108 -35.145  1.00  0.00     0.070 C 
HETATM   28  C   UNL     1     -12.811   3.455 -35.120  1.00  0.00     0.019 C 
HETATM   29  C   UNL     1     -12.921   1.047 -34.431  1.00  0.00     0.019 C 
ENDBRANCH  24  27
ENDBRANCH  22  23
ENDBRANCH   1  22
TORSDOF 6
ENDMDL
MODEL 8
REMARK VINA RESULT:      -7.8      2.116      3.089
REMARK  6 active torsions:
REMARK  status: ('A' for Active; 'I' for Inactive)
REMARK    1  A    between atoms: C_2  and  C_3 
REMARK       I    between atoms: C_3  and  N_4 
REMARK    2  A    between atoms: N_4  and  C_5 
REMARK    3  A    between atoms: C_5  and  C_6 
REMARK    4  A    between atoms: N_8  and  C_10 
REMARK    5  A    between atoms: C_10  and  C_11 
REMARK    6  A    between atoms: C_12  and  C_13 
ROOT
HETATM    1  C   UNL     1      -5.676   5.076 -31.608  1.00  0.00     0.029 C 
HETATM    2  C   UNL     1      -5.611   3.795 -32.446  1.00  0.00     0.241 C 
HETATM    3  N   UNL     1      -4.979   2.652 -31.687  1.00  0.00    -0.067 N 
HETATM    4  H   UNL     1      -3.989   2.928 -31.524  1.00  0.00     0.280 HD
HETATM    5  C   UNL     1      -5.665   2.369 -30.381  1.00  0.00     0.235 C 
HETATM    6  C   UNL     1      -5.839   3.626 -29.539  1.00  0.00     0.028 C 
HETATM    7  C   UNL     1      -6.457   4.783 -30.319  1.00  0.00     0.009 C 
ENDROOT
BRANCH   3   8
HETATM    8  C   UNL     1      -4.866   1.431 -32.593  1.00  0.00     0.277 C 
BRANCH   8   9
HETATM    9  C   UNL     1      -3.940   0.352 -32.150  1.00  0.00     0.016 A 
HETATM   10  C   UNL     1      -3.964  -1.046 -32.464  1.00  0.00     0.096 A 
HETATM   11  N   UNL     1      -2.925  -1.677 -31.901  1.00  0.00    -0.174 NA
HETATM   12  N   UNL     1      -2.313  -0.756 -31.156  1.00  0.00    -0.288 N 
HETATM   13  H   UNL     1      -1.514  -1.044 -30.597  1.00  0.00     0.188 HD
HETATM   14  C   UNL     1      -2.881   0.477 -31.264  1.00  0.00     0.120 A 
BRANCH  10  15
HETATM   15  C   UNL     1      -4.926  -1.817 -33.250  1.00  0.00    -0.003 A 
HETATM   16  C   UNL     1      -4.578  -3.060 -33.793  1.00  0.00     0.037 A 
HETATM   17  C   UNL     1      -5.491  -3.752 -34.590  1.00  0.00     0.035 A 
HETATM   18 CL   UNL     1      -5.057  -5.292 -35.225  1.00  0.00    -0.084 Cl
HETATM   19  C   UNL     1      -6.744  -3.214 -34.871  1.00  0.00     0.024 A 
HETATM   20  C   UNL     1      -7.091  -1.969 -34.350  1.00  0.00     0.003 A 
HETATM   21  C   UNL     1      -6.186  -1.274 -33.543  1.00  0.00     0.014 A 
ENDBRANCH  10  15
ENDBRANCH   8   9
ENDBRANCH   3   8
BRANCH   1  22
HETATM   22  C   UNL     1      -4.322   5.729 -31.270  1.00  0.00     0.128 C 
BRANCH  22  23
HETATM   23  N   UNL     1      -3.406   5.822 -32.383  1.00  0.00    -0.360 N 
HETATM   24  C   UNL     1      -2.284   5.018 -32.446  1.00  0.00     0.221 C 
HETATM   25  O   UNL     1      -2.155   4.048 -31.698  1.00  0.00    -0.273 OA
HETATM   26  H   UNL     1      -3.390   6.693 -32.909  1.00  0.00     0.162 HD
BRANCH  24  27
HETATM   27  C   UNL     1      -1.283   5.425 -33.523  1.00  0.00     0.070 C 
HETATM   28  C   UNL     1      -0.927   6.905 -33.395  1.00  0.00     0.019 C 
HETATM   29  C   UNL     1      -1.828   5.126 -34.915  1.00  0.00     0.019 C 
ENDBRANCH  24  27
ENDBRANCH  22  23
ENDBRANCH   1  22
TORSDOF 6
ENDMDL
MODEL 9
REMARK VINA RESULT:      -7.6      4.308      8.722
REMARK  6 active torsions:
REMARK  status: ('A' for Active; 'I' for Inactive)
REMARK    1  A    between atoms: C_2  and  C_3 
REMARK       I    between atoms: C_3  and  N_4 
REMARK    2  A    between atoms: N_4  and  C_5 
REMARK    3  A    between atoms: C_5  and  C_6 
REMARK    4  A    between atoms: N_8  and  C_10 
REMARK    5  A    between atoms: C_10  and  C_11 
REMARK    6  A    between atoms: C_12  and  C_13 
ROOT
HETATM    1  C   UNL     1      -8.228  -0.085 -33.628  1.00  0.00     0.029 C 
HETATM    2  C   UNL     1      -7.632   1.073 -34.435  1.00  0.00     0.241 C 
HETATM    3  N   UNL     1      -6.776   1.978 -33.582  1.00  0.00    -0.067 N 
HETATM    4  H   UNL     1      -7.421   2.422 -32.896  1.00  0.00     0.280 HD
HETATM    5  C   UNL     1      -5.678   1.241 -32.868  1.00  0.00     0.235 C 
HETATM    6  C   UNL     1      -6.199   0.023 -32.117  1.00  0.00     0.028 C 
HETATM    7  C   UNL     1      -7.082  -0.874 -32.979  1.00  0.00     0.009 C 
ENDROOT
BRANCH   3   8
HETATM    8  C   UNL     1      -6.277   3.153 -34.415  1.00  0.00     0.277 C 
BRANCH   8   9
HETATM    9  C   UNL     1      -6.415   4.508 -33.812  1.00  0.00     0.016 A 
HETATM   10  C   UNL     1      -5.393   5.443 -33.442  1.00  0.00     0.096 A 
HETATM   11  N   UNL     1      -5.933   6.574 -32.971  1.00  0.00    -0.174 NA
HETATM   12  N   UNL     1      -7.246   6.348 -32.925  1.00  0.00    -0.288 N 
HETATM   13  H   UNL     1      -7.846   7.076 -32.543  1.00  0.00     0.188 HD
HETATM   14  C   UNL     1      -7.591   5.125 -33.413  1.00  0.00     0.120 A 
BRANCH  10  15
HETATM   15  C   UNL     1      -3.938   5.313 -33.493  1.00  0.00    -0.003 A 
HETATM   16  C   UNL     1      -3.183   5.229 -32.318  1.00  0.00     0.037 A 
HETATM   17  C   UNL     1      -1.790   5.166 -32.388  1.00  0.00     0.035 A 
HETATM   18 CL   UNL     1      -0.879   5.033 -30.933  1.00  0.00    -0.084 Cl
HETATM   19  C   UNL     1      -1.134   5.205 -33.615  1.00  0.00     0.024 A 
HETATM   20  C   UNL     1      -1.878   5.307 -34.789  1.00  0.00     0.003 A 
HETATM   21  C   UNL     1      -3.273   5.362 -34.728  1.00  0.00     0.014 A 
ENDBRANCH  10  15
ENDBRANCH   8   9
ENDBRANCH   3   8
BRANCH   1  22
HETATM   22  C   UNL     1      -9.272   0.304 -32.563  1.00  0.00     0.128 C 
BRANCH  22  23
HETATM   23  N   UNL     1     -10.645   0.186 -32.997  1.00  0.00    -0.360 N 
HETATM   24  C   UNL     1     -11.348   1.294 -33.429  1.00  0.00     0.221 C 
HETATM   25  O   UNL     1     -10.772   2.353 -33.683  1.00  0.00    -0.273 OA
HETATM   26  H   UNL     1     -11.182  -0.607 -32.653  1.00  0.00     0.162 HD
BRANCH  24  27
HETATM   27  C   UNL     1     -12.848   1.060 -33.584  1.00  0.00     0.070 C 
HETATM   28  C   UNL     1     -13.160  -0.435 -33.609  1.00  0.00     0.019 C 
HETATM   29  C   UNL     1     -13.378   1.736 -34.843  1.00  0.00     0.019 C 
ENDBRANCH  24  27
ENDBRANCH  22  23
ENDBRANCH   1  22
TORSDOF 6
ENDMDL
MODEL 10
REMARK VINA RESULT:      -7.6      2.335      3.486
REMARK  6 active torsions:
REMARK  status: ('A' for Active; 'I' for Inactive)
REMARK    1  A    between atoms: C_2  and  C_3 
REMARK       I    between atoms: C_3  and  N_4 
REMARK    2  A    between atoms: N_4  and  C_5 
REMARK    3  A    between atoms: C_5  and  C_6 
REMARK    4  A    between atoms: N_8  and  C_10 
REMARK    5  A    between atoms: C_10  and  C_11 
REMARK    6  A    between atoms: C_12  and  C_13 
ROOT
HETATM    1  C   UNL     1      -0.765   5.942 -31.120  1.00  0.00     0.029 C 
HETATM    2  C   UNL     1      -1.764   4.874 -31.576  1.00  0.00     0.241 C 
HETATM    3  N   UNL     1      -3.053   5.479 -32.077  1.00  0.00    -0.067 N 
HETATM    4  H   UNL     1      -3.495   5.939 -31.254  1.00  0.00     0.280 HD
HETATM    5  C   UNL     1      -2.840   6.475 -33.181  1.00  0.00     0.235 C 
HETATM    6  C   UNL     1      -1.788   7.516 -32.821  1.00  0.00     0.028 C 
HETATM    7  C   UNL     1      -0.497   6.897 -32.292  1.00  0.00     0.009 C 
ENDROOT
BRANCH   3   8
HETATM    8  C   UNL     1      -4.037   4.371 -32.439  1.00  0.00     0.277 C 
BRANCH   8   9
HETATM    9  C   UNL     1      -4.732   3.697 -31.307  1.00  0.00     0.016 A 
HETATM   10  C   UNL     1      -5.015   2.304 -31.120  1.00  0.00     0.096 A 
HETATM   11  N   UNL     1      -5.620   2.097 -29.943  1.00  0.00    -0.174 NA
HETATM   12  N   UNL     1      -5.830   3.310 -29.434  1.00  0.00    -0.288 N 
HETATM   13  H   UNL     1      -6.330   3.382 -28.552  1.00  0.00     0.188 HD
HETATM   14  C   UNL     1      -5.321   4.307 -30.211  1.00  0.00     0.120 A 
BRANCH  10  15
HETATM   15  C   UNL     1      -4.760   1.166 -32.002  1.00  0.00    -0.003 A 
HETATM   16  C   UNL     1      -5.814   0.503 -32.641  1.00  0.00     0.037 A 
HETATM   17  C   UNL     1      -5.555  -0.617 -33.432  1.00  0.00     0.035 A 
HETATM   18 CL   UNL     1      -6.860  -1.403 -34.234  1.00  0.00    -0.084 Cl
HETATM   19  C   UNL     1      -4.258  -1.101 -33.581  1.00  0.00     0.024 A 
HETATM   20  C   UNL     1      -3.205  -0.458 -32.933  1.00  0.00     0.003 A 
HETATM   21  C   UNL     1      -3.456   0.670 -32.147  1.00  0.00     0.014 A 
ENDBRANCH  10  15
ENDBRANCH   8   9
ENDBRANCH   3   8
BRANCH   1  22
HETATM   22  C   UNL     1      -1.162   6.744 -29.865  1.00  0.00     0.128 C 
BRANCH  22  23
HETATM   23  N   UNL     1      -0.092   7.524 -29.289  1.00  0.00    -0.360 N 
HETATM   24  C   UNL     1       0.302   7.327 -27.979  1.00  0.00     0.221 C 
HETATM   25  O   UNL     1      -0.070   6.337 -27.347  1.00  0.00    -0.273 OA
HETATM   26  H   UNL     1       0.112   8.429 -29.709  1.00  0.00     0.162 HD
BRANCH  24  27
HETATM   27  C   UNL     1       1.238   8.404 -27.439  1.00  0.00     0.070 C 
HETATM   28  C   UNL     1       1.937   7.922 -26.169  1.00  0.00     0.019 C 
HETATM   29  C   UNL     1       0.481   9.700 -27.172  1.00  0.00     0.019 C 
ENDBRANCH  24  27
ENDBRANCH  22  23
ENDBRANCH   1  22
TORSDOF 6
ENDMDL
