MODEL 1
REMARK VINA RESULT:      -9.8      0.000      0.000
REMARK  6 active torsions:
REMARK  status: ('A' for Active; 'I' for Inactive)
REMARK    1  A    between atoms: C_2  and  C_3 
REMARK    2  A    between atoms: C_3  and  C_4 
REMARK    3  A    between atoms: N_7  and  C_9 
REMARK    4  A    between atoms: C_9  and  C_10 
REMARK    5  A    between atoms: N_23  and  C_24 
REMARK    6  A    between atoms: C_24  and  C_25 
ROOT
HETATM    1  C   UNL     1      -6.698   3.173 -30.962  1.00  0.00     0.119 C 
HETATM    2  N   UNL     1      -6.325   3.339 -32.357  1.00  0.00    -0.324 N 
HETATM    3  C   UNL     1      -7.232   4.127 -33.037  1.00  0.00     0.326 C 
HETATM    4  O   UNL     1      -7.026   4.523 -34.170  1.00  0.00    -0.247 OA
HETATM    5  N   UNL     1      -8.309   4.341 -32.245  1.00  0.00    -0.264 N 
HETATM    6  C   UNL     1      -8.119   3.785 -31.014  1.00  0.00     0.257 C 
HETATM    7  O   UNL     1      -8.920   3.767 -30.092  1.00  0.00    -0.270 OA
HETATM    8  H   UNL     1      -5.369   3.444 -32.681  1.00  0.00     0.165 HD
ENDROOT
BRANCH   1   9
HETATM    9  C   UNL     1      -5.790   4.093 -30.109  1.00  0.00     0.037 C 
HETATM   10  C   UNL     1      -4.541   4.618 -30.806  1.00  0.00     0.008 C 
ENDBRANCH   1   9
BRANCH   1  11
HETATM   11  C   UNL     1      -6.739   1.675 -30.519  1.00  0.00     0.026 C 
HETATM   12  C   UNL     1      -5.360   0.999 -30.453  1.00  0.00     0.035 C 
HETATM   13  C   UNL     1      -4.795   0.583 -31.806  1.00  0.00     0.235 C 
HETATM   14  N   UNL     1      -5.777  -0.281 -32.559  1.00  0.00    -0.067 N 
HETATM   15  H   UNL     1      -5.883  -1.151 -32.022  1.00  0.00     0.280 HD
HETATM   16  C   UNL     1      -7.148   0.344 -32.690  1.00  0.00     0.235 C 
HETATM   17  C   UNL     1      -7.682   0.762 -31.330  1.00  0.00     0.035 C 
BRANCH  14  18
HETATM   18  C   UNL     1      -5.280  -0.689 -33.940  1.00  0.00     0.273 C 
BRANCH  18  19
HETATM   19  C   UNL     1      -5.188  -2.172 -34.170  1.00  0.00    -0.027 A 
HETATM   20  C   UNL     1      -6.206  -2.872 -34.833  1.00  0.00     0.051 A 
HETATM   21  C   UNL     1      -6.103  -4.253 -35.010  1.00  0.00     0.119 A 
HETATM   22  F   UNL     1      -7.089  -4.901 -35.640  1.00  0.00    -0.206 F 
HETATM   23  C   UNL     1      -5.010  -4.964 -34.537  1.00  0.00     0.084 A 
HETATM   24  C   UNL     1      -4.002  -4.271 -33.884  1.00  0.00     0.119 A 
HETATM   25  F   UNL     1      -2.941  -4.934 -33.412  1.00  0.00    -0.206 F 
HETATM   26  C   UNL     1      -4.078  -2.893 -33.697  1.00  0.00     0.051 A 
ENDBRANCH  18  19
ENDBRANCH  14  18
ENDBRANCH   1  11
BRANCH   5  27
HETATM   27  C   UNL     1      -9.486   5.076 -32.651  1.00  0.00     0.175 C 
BRANCH  27  28
HETATM   28  C   UNL     1     -10.400   4.227 -33.504  1.00  0.00    -0.037 A 
HETATM   29  C   UNL     1     -11.008   3.081 -32.965  1.00  0.00     0.048 A 
HETATM   30  C   UNL     1     -11.850   2.352 -33.778  1.00  0.00     0.105 A 
HETATM   31  C   UNL     1     -12.087   2.708 -35.085  1.00  0.00     0.105 A 
HETATM   32  O   UNL     1     -12.533   1.233 -33.414  1.00  0.00    -0.323 OA
HETATM   33  O   UNL     1     -12.951   1.860 -35.704  1.00  0.00    -0.323 OA
HETATM   34  C   UNL     1     -11.491   3.809 -35.656  1.00  0.00     0.040 A 
HETATM   35  C   UNL     1     -13.302   0.985 -34.610  1.00  0.00     0.352 A 
HETATM   36  C   UNL     1     -10.636   4.574 -34.855  1.00  0.00     0.012 A 
ENDBRANCH  27  28
ENDBRANCH   5  27
TORSDOF 6
ENDMDL
MODEL 2
REMARK VINA RESULT:      -9.8      0.088      1.410
REMARK  6 active torsions:
REMARK  status: ('A' for Active; 'I' for Inactive)
REMARK    1  A    between atoms: C_2  and  C_3 
REMARK    2  A    between atoms: C_3  and  C_4 
REMARK    3  A    between atoms: N_7  and  C_9 
REMARK    4  A    between atoms: C_9  and  C_10 
REMARK    5  A    between atoms: N_23  and  C_24 
REMARK    6  A    between atoms: C_24  and  C_25 
ROOT
HETATM    1  C   UNL     1      -6.637   3.114 -30.972  1.00  0.00     0.119 C 
HETATM    2  N   UNL     1      -6.273   3.267 -32.372  1.00  0.00    -0.324 N 
HETATM    3  C   UNL     1      -7.175   4.066 -33.048  1.00  0.00     0.326 C 
HETATM    4  O   UNL     1      -6.973   4.453 -34.184  1.00  0.00    -0.247 OA
HETATM    5  N   UNL     1      -8.242   4.299 -32.248  1.00  0.00    -0.264 N 
HETATM    6  C   UNL     1      -8.050   3.746 -31.016  1.00  0.00     0.257 C 
HETATM    7  O   UNL     1      -8.843   3.744 -30.087  1.00  0.00    -0.270 OA
HETATM    8  H   UNL     1      -5.319   3.358 -32.704  1.00  0.00     0.165 HD
ENDROOT
BRANCH   1   9
HETATM    9  C   UNL     1      -5.709   4.025 -30.132  1.00  0.00     0.037 C 
HETATM   10  C   UNL     1      -4.495   4.584 -30.862  1.00  0.00     0.008 C 
ENDBRANCH   1   9
BRANCH   1  11
HETATM   11  C   UNL     1      -6.696   1.619 -30.522  1.00  0.00     0.026 C 
HETATM   12  C   UNL     1      -5.325   0.927 -30.450  1.00  0.00     0.035 C 
HETATM   13  C   UNL     1      -4.762   0.498 -31.800  1.00  0.00     0.235 C 
HETATM   14  N   UNL     1      -5.752  -0.359 -32.550  1.00  0.00    -0.067 N 
HETATM   15  H   UNL     1      -5.870  -1.225 -32.008  1.00  0.00     0.280 HD
HETATM   16  C   UNL     1      -7.116   0.281 -32.687  1.00  0.00     0.235 C 
HETATM   17  C   UNL     1      -7.648   0.712 -31.330  1.00  0.00     0.035 C 
BRANCH  14  18
HETATM   18  C   UNL     1      -5.258  -0.779 -33.928  1.00  0.00     0.273 C 
BRANCH  18  19
HETATM   19  C   UNL     1      -5.174  -2.265 -34.147  1.00  0.00    -0.027 A 
HETATM   20  C   UNL     1      -4.060  -3.003 -33.722  1.00  0.00     0.051 A 
HETATM   21  C   UNL     1      -4.000  -4.377 -33.962  1.00  0.00     0.119 A 
HETATM   22  F   UNL     1      -2.925  -5.060 -33.553  1.00  0.00    -0.206 F 
HETATM   23  C   UNL     1      -5.023  -5.042 -34.622  1.00  0.00     0.084 A 
HETATM   24  C   UNL     1      -6.125  -4.312 -35.040  1.00  0.00     0.119 A 
HETATM   25  F   UNL     1      -7.122  -4.928 -35.686  1.00  0.00    -0.206 F 
HETATM   26  C   UNL     1      -6.212  -2.941 -34.810  1.00  0.00     0.051 A 
ENDBRANCH  18  19
ENDBRANCH  14  18
ENDBRANCH   1  11
BRANCH   5  27
HETATM   27  C   UNL     1      -9.411   5.049 -32.647  1.00  0.00     0.175 C 
BRANCH  27  28
HETATM   28  C   UNL     1     -10.342   4.211 -33.493  1.00  0.00    -0.037 A 
HETATM   29  C   UNL     1     -10.921   3.045 -32.965  1.00  0.00     0.048 A 
HETATM   30  C   UNL     1     -11.779   2.326 -33.769  1.00  0.00     0.105 A 
HETATM   31  C   UNL     1     -12.060   2.711 -35.059  1.00  0.00     0.105 A 
HETATM   32  O   UNL     1     -12.439   1.191 -33.413  1.00  0.00    -0.323 OA
HETATM   33  O   UNL     1     -12.934   1.869 -35.673  1.00  0.00    -0.323 OA
HETATM   34  C   UNL     1     -11.494   3.833 -35.621  1.00  0.00     0.040 A 
HETATM   35  C   UNL     1     -13.242   0.963 -34.591  1.00  0.00     0.352 A 
HETATM   36  C   UNL     1     -10.624   4.588 -34.827  1.00  0.00     0.012 A 
ENDBRANCH  27  28
ENDBRANCH   5  27
TORSDOF 6
ENDMDL
MODEL 3
REMARK VINA RESULT:      -9.5      2.483      5.530
REMARK  6 active torsions:
REMARK  status: ('A' for Active; 'I' for Inactive)
REMARK    1  A    between atoms: C_2  and  C_3 
REMARK    2  A    between atoms: C_3  and  C_4 
REMARK    3  A    between atoms: N_7  and  C_9 
REMARK    4  A    between atoms: C_9  and  C_10 
REMARK    5  A    between atoms: N_23  and  C_24 
REMARK    6  A    between atoms: C_24  and  C_25 
ROOT
HETATM    1  C   UNL     1      -8.681   3.084 -31.394  1.00  0.00     0.119 C 
HETATM    2  N   UNL     1      -7.426   2.718 -30.758  1.00  0.00    -0.324 N 
HETATM    3  C   UNL     1      -6.532   3.770 -30.752  1.00  0.00     0.326 C 
HETATM    4  O   UNL     1      -5.487   3.730 -30.129  1.00  0.00    -0.247 OA
HETATM    5  N   UNL     1      -7.021   4.767 -31.527  1.00  0.00    -0.264 N 
HETATM    6  C   UNL     1      -8.263   4.449 -31.993  1.00  0.00     0.257 C 
HETATM    7  O   UNL     1      -8.950   5.119 -32.749  1.00  0.00    -0.270 OA
HETATM    8  H   UNL     1      -7.356   2.119 -29.941  1.00  0.00     0.165 HD
ENDROOT
BRANCH   1   9
HETATM    9  C   UNL     1      -9.731   3.326 -30.282  1.00  0.00     0.037 C 
HETATM   10  C   UNL     1     -11.040   3.957 -30.737  1.00  0.00     0.008 C 
ENDBRANCH   1   9
BRANCH   1  11
HETATM   11  C   UNL     1      -9.108   2.080 -32.512  1.00  0.00     0.026 C 
HETATM   12  C   UNL     1      -9.022   0.601 -32.099  1.00  0.00     0.035 C 
HETATM   13  C   UNL     1      -7.613   0.021 -32.117  1.00  0.00     0.235 C 
HETATM   14  N   UNL     1      -6.957   0.238 -33.459  1.00  0.00    -0.067 N 
HETATM   15  H   UNL     1      -7.492  -0.308 -34.146  1.00  0.00     0.280 HD
HETATM   16  C   UNL     1      -6.977   1.682 -33.910  1.00  0.00     0.235 C 
HETATM   17  C   UNL     1      -8.390   2.240 -33.869  1.00  0.00     0.035 C 
BRANCH  14  18
HETATM   18  C   UNL     1      -5.527  -0.283 -33.518  1.00  0.00     0.273 C 
BRANCH  18  19
HETATM   19  C   UNL     1      -5.395  -1.737 -33.881  1.00  0.00    -0.027 A 
HETATM   20  C   UNL     1      -4.241  -2.466 -33.564  1.00  0.00     0.051 A 
HETATM   21  C   UNL     1      -4.138  -3.808 -33.935  1.00  0.00     0.119 A 
HETATM   22  F   UNL     1      -3.024  -4.482 -33.627  1.00  0.00    -0.206 F 
HETATM   23  C   UNL     1      -5.158  -4.448 -34.623  1.00  0.00     0.084 A 
HETATM   24  C   UNL     1      -6.301  -3.729 -34.934  1.00  0.00     0.119 A 
HETATM   25  F   UNL     1      -7.296  -4.321 -35.603  1.00  0.00    -0.206 F 
HETATM   26  C   UNL     1      -6.430  -2.389 -34.572  1.00  0.00     0.051 A 
ENDBRANCH  18  19
ENDBRANCH  14  18
ENDBRANCH   1  11
BRANCH   5  27
HETATM   27  C   UNL     1      -6.323   6.002 -31.802  1.00  0.00     0.175 C 
BRANCH  27  28
HETATM   28  C   UNL     1      -5.193   5.792 -32.784  1.00  0.00    -0.037 A 
HETATM   29  C   UNL     1      -3.910   6.288 -32.502  1.00  0.00     0.048 A 
HETATM   30  C   UNL     1      -2.908   6.052 -33.419  1.00  0.00     0.105 A 
HETATM   31  C   UNL     1      -3.141   5.370 -34.590  1.00  0.00     0.105 A 
HETATM   32  O   UNL     1      -1.611   6.441 -33.297  1.00  0.00    -0.323 OA
HETATM   33  O   UNL     1      -2.019   5.242 -35.347  1.00  0.00    -0.323 OA
HETATM   34  C   UNL     1      -4.390   4.890 -34.914  1.00  0.00     0.040 A 
HETATM   35  C   UNL     1      -1.035   5.840 -34.475  1.00  0.00     0.352 A 
HETATM   36  C   UNL     1      -5.426   5.106 -33.999  1.00  0.00     0.012 A 
ENDBRANCH  27  28
ENDBRANCH   5  27
TORSDOF 6
ENDMDL
MODEL 4
REMARK VINA RESULT:      -9.1      3.249      6.068
REMARK  6 active torsions:
REMARK  status: ('A' for Active; 'I' for Inactive)
REMARK    1  A    between atoms: C_2  and  C_3 
REMARK    2  A    between atoms: C_3  and  C_4 
REMARK    3  A    between atoms: N_7  and  C_9 
REMARK    4  A    between atoms: C_9  and  C_10 
REMARK    5  A    between atoms: N_23  and  C_24 
REMARK    6  A    between atoms: C_24  and  C_25 
ROOT
HETATM    1  C   UNL     1      -5.808   2.962 -30.767  1.00  0.00     0.119 C 
HETATM    2  N   UNL     1      -4.412   2.594 -30.597  1.00  0.00    -0.324 N 
HETATM    3  C   UNL     1      -3.592   3.289 -31.464  1.00  0.00     0.326 C 
HETATM    4  O   UNL     1      -2.379   3.251 -31.380  1.00  0.00    -0.247 OA
HETATM    5  N   UNL     1      -4.361   3.958 -32.356  1.00  0.00    -0.264 N 
HETATM    6  C   UNL     1      -5.685   3.798 -32.065  1.00  0.00     0.257 C 
HETATM    7  O   UNL     1      -6.629   4.239 -32.703  1.00  0.00    -0.270 OA
HETATM    8  H   UNL     1      -3.982   2.395 -29.700  1.00  0.00     0.165 HD
ENDROOT
BRANCH   1   9
HETATM    9  C   UNL     1      -6.202   3.904 -29.603  1.00  0.00     0.037 C 
HETATM   10  C   UNL     1      -7.696   4.117 -29.401  1.00  0.00     0.008 C 
ENDBRANCH   1   9
BRANCH   1  11
HETATM   11  C   UNL     1      -6.740   1.726 -30.974  1.00  0.00     0.026 C 
HETATM   12  C   UNL     1      -6.143   0.396 -30.485  1.00  0.00     0.035 C 
HETATM   13  C   UNL     1      -5.117  -0.221 -31.428  1.00  0.00     0.235 C 
HETATM   14  N   UNL     1      -5.684  -0.371 -32.819  1.00  0.00    -0.067 N 
HETATM   15  H   UNL     1      -6.451  -1.052 -32.758  1.00  0.00     0.280 HD
HETATM   16  C   UNL     1      -6.258   0.914 -33.374  1.00  0.00     0.235 C 
HETATM   17  C   UNL     1      -7.267   1.515 -32.409  1.00  0.00     0.035 C 
BRANCH  14  18
HETATM   18  C   UNL     1      -4.683  -0.941 -33.815  1.00  0.00     0.273 C 
BRANCH  18  19
HETATM   19  C   UNL     1      -4.846  -2.407 -34.110  1.00  0.00    -0.027 A 
HETATM   20  C   UNL     1      -5.918  -2.882 -34.878  1.00  0.00     0.051 A 
HETATM   21  C   UNL     1      -6.056  -4.252 -35.114  1.00  0.00     0.119 A 
HETATM   22  F   UNL     1      -7.091  -4.682 -35.844  1.00  0.00    -0.206 F 
HETATM   23  C   UNL     1      -5.152  -5.169 -34.600  1.00  0.00     0.084 A 
HETATM   24  C   UNL     1      -4.090  -4.699 -33.843  1.00  0.00     0.119 A 
HETATM   25  F   UNL     1      -3.208  -5.563 -33.329  1.00  0.00    -0.206 F 
HETATM   26  C   UNL     1      -3.927  -3.337 -33.595  1.00  0.00     0.051 A 
ENDBRANCH  18  19
ENDBRANCH  14  18
ENDBRANCH   1  11
BRANCH   5  27
HETATM   27  C   UNL     1      -3.842   4.745 -33.451  1.00  0.00     0.175 C 
BRANCH  27  28
HETATM   28  C   UNL     1      -3.288   6.066 -32.968  1.00  0.00    -0.037 A 
HETATM   29  C   UNL     1      -3.997   6.826 -32.022  1.00  0.00     0.048 A 
HETATM   30  C   UNL     1      -3.440   8.014 -31.598  1.00  0.00     0.105 A 
HETATM   31  C   UNL     1      -2.238   8.468 -32.085  1.00  0.00     0.105 A 
HETATM   32  O   UNL     1      -3.978   8.859 -30.678  1.00  0.00    -0.323 OA
HETATM   33  O   UNL     1      -1.867   9.653 -31.530  1.00  0.00    -0.323 OA
HETATM   34  C   UNL     1      -1.525   7.764 -33.030  1.00  0.00     0.040 A 
HETATM   35  C   UNL     1      -2.929   9.845 -30.570  1.00  0.00     0.352 A 
HETATM   36  C   UNL     1      -2.060   6.551 -33.476  1.00  0.00     0.012 A 
ENDBRANCH  27  28
ENDBRANCH   5  27
TORSDOF 6
ENDMDL
MODEL 5
REMARK VINA RESULT:      -9.1      3.878      7.579
REMARK  6 active torsions:
REMARK  status: ('A' for Active; 'I' for Inactive)
REMARK    1  A    between atoms: C_2  and  C_3 
REMARK    2  A    between atoms: C_3  and  C_4 
REMARK    3  A    between atoms: N_7  and  C_9 
REMARK    4  A    between atoms: C_9  and  C_10 
REMARK    5  A    between atoms: N_23  and  C_24 
REMARK    6  A    between atoms: C_24  and  C_25 
ROOT
HETATM    1  C   UNL     1      -4.883   4.258 -32.295  1.00  0.00     0.119 C 
HETATM    2  N   UNL     1      -3.821   4.030 -33.263  1.00  0.00    -0.324 N 
HETATM    3  C   UNL     1      -2.861   5.021 -33.208  1.00  0.00     0.326 C 
HETATM    4  O   UNL     1      -1.810   4.939 -33.817  1.00  0.00    -0.247 OA
HETATM    5  N   UNL     1      -3.303   6.019 -32.408  1.00  0.00    -0.264 N 
HETATM    6  C   UNL     1      -4.506   5.693 -31.853  1.00  0.00     0.257 C 
HETATM    7  O   UNL     1      -5.185   6.398 -31.121  1.00  0.00    -0.270 OA
HETATM    8  H   UNL     1      -3.450   3.115 -33.494  1.00  0.00     0.165 HD
ENDROOT
BRANCH   1   9
HETATM    9  C   UNL     1      -4.662   3.295 -31.104  1.00  0.00     0.037 C 
HETATM   10  C   UNL     1      -3.581   2.239 -31.299  1.00  0.00     0.008 C 
ENDBRANCH   1   9
BRANCH   1  11
HETATM   11  C   UNL     1      -6.306   4.216 -32.937  1.00  0.00     0.026 C 
HETATM   12  C   UNL     1      -7.436   3.885 -31.947  1.00  0.00     0.035 C 
HETATM   13  C   UNL     1      -7.552   2.407 -31.593  1.00  0.00     0.235 C 
HETATM   14  N   UNL     1      -7.669   1.561 -32.837  1.00  0.00    -0.067 N 
HETATM   15  H   UNL     1      -8.559   1.811 -33.287  1.00  0.00     0.280 HD
HETATM   16  C   UNL     1      -6.565   1.814 -33.840  1.00  0.00     0.235 C 
HETATM   17  C   UNL     1      -6.461   3.295 -34.166  1.00  0.00     0.035 C 
BRANCH  14  18
HETATM   18  C   UNL     1      -7.743   0.069 -32.542  1.00  0.00     0.273 C 
BRANCH  18  19
HETATM   19  C   UNL     1      -6.494  -0.705 -32.866  1.00  0.00    -0.027 A 
HETATM   20  C   UNL     1      -6.390  -1.462 -34.041  1.00  0.00     0.051 A 
HETATM   21  C   UNL     1      -5.227  -2.190 -34.302  1.00  0.00     0.119 A 
HETATM   22  F   UNL     1      -5.152  -2.911 -35.427  1.00  0.00    -0.206 F 
HETATM   23  C   UNL     1      -4.159  -2.189 -33.417  1.00  0.00     0.084 A 
HETATM   24  C   UNL     1      -4.261  -1.438 -32.256  1.00  0.00     0.119 A 
HETATM   25  F   UNL     1      -3.249  -1.426 -31.383  1.00  0.00    -0.206 F 
HETATM   26  C   UNL     1      -5.409  -0.701 -31.973  1.00  0.00     0.051 A 
ENDBRANCH  18  19
ENDBRANCH  14  18
ENDBRANCH   1  11
BRANCH   5  27
HETATM   27  C   UNL     1      -2.584   7.249 -32.166  1.00  0.00     0.175 C 
BRANCH  27  28
HETATM   28  C   UNL     1      -1.597   7.098 -31.031  1.00  0.00    -0.037 A 
HETATM   29  C   UNL     1      -2.044   7.109 -29.699  1.00  0.00     0.048 A 
HETATM   30  C   UNL     1      -1.108   6.947 -28.700  1.00  0.00     0.105 A 
HETATM   31  C   UNL     1       0.230   6.796 -28.977  1.00  0.00     0.105 A 
HETATM   32  O   UNL     1      -1.368   6.912 -27.366  1.00  0.00    -0.323 OA
HETATM   33  O   UNL     1       0.978   6.644 -27.851  1.00  0.00    -0.323 OA
HETATM   34  C   UNL     1       0.710   6.804 -30.267  1.00  0.00     0.040 A 
HETATM   35  C   UNL     1      -0.055   6.623 -26.841  1.00  0.00     0.352 A 
HETATM   36  C   UNL     1      -0.216   6.960 -31.303  1.00  0.00     0.012 A 
ENDBRANCH  27  28
ENDBRANCH   5  27
TORSDOF 6
ENDMDL
MODEL 6
REMARK VINA RESULT:      -9.1      6.183      9.696
REMARK  6 active torsions:
REMARK  status: ('A' for Active; 'I' for Inactive)
REMARK    1  A    between atoms: C_2  and  C_3 
REMARK    2  A    between atoms: C_3  and  C_4 
REMARK    3  A    between atoms: N_7  and  C_9 
REMARK    4  A    between atoms: C_9  and  C_10 
REMARK    5  A    between atoms: N_23  and  C_24 
REMARK    6  A    between atoms: C_24  and  C_25 
ROOT
HETATM    1  C   UNL     1      -3.082   5.620 -33.091  1.00  0.00     0.119 C 
HETATM    2  N   UNL     1      -2.330   4.639 -32.326  1.00  0.00    -0.324 N 
HETATM    3  C   UNL     1      -3.143   3.625 -31.859  1.00  0.00     0.326 C 
HETATM    4  O   UNL     1      -2.693   2.622 -31.336  1.00  0.00    -0.247 OA
HETATM    5  N   UNL     1      -4.435   3.959 -32.083  1.00  0.00    -0.264 N 
HETATM    6  C   UNL     1      -4.517   5.138 -32.763  1.00  0.00     0.257 C 
HETATM    7  O   UNL     1      -5.539   5.729 -33.078  1.00  0.00    -0.270 OA
HETATM    8  H   UNL     1      -1.391   4.334 -32.560  1.00  0.00     0.165 HD
ENDROOT
BRANCH   1   9
HETATM    9  C   UNL     1      -2.804   5.374 -34.594  1.00  0.00     0.037 C 
HETATM   10  C   UNL     1      -1.341   5.180 -34.972  1.00  0.00     0.008 C 
ENDBRANCH   1   9
BRANCH   1  11
HETATM   11  C   UNL     1      -2.847   7.083 -32.596  1.00  0.00     0.026 C 
HETATM   12  C   UNL     1      -1.400   7.579 -32.758  1.00  0.00     0.035 C 
HETATM   13  C   UNL     1      -0.434   7.065 -31.696  1.00  0.00     0.235 C 
HETATM   14  N   UNL     1      -0.948   7.364 -30.309  1.00  0.00    -0.067 N 
HETATM   15  H   UNL     1      -0.957   8.387 -30.206  1.00  0.00     0.280 HD
HETATM   16  C   UNL     1      -2.358   6.870 -30.073  1.00  0.00     0.235 C 
HETATM   17  C   UNL     1      -3.298   7.384 -31.151  1.00  0.00     0.035 C 
BRANCH  14  18
HETATM   18  C   UNL     1      -0.042   6.831 -29.207  1.00  0.00     0.273 C 
BRANCH  18  19
HETATM   19  C   UNL     1       0.313   7.828 -28.138  1.00  0.00    -0.027 A 
HETATM   20  C   UNL     1      -0.374   9.044 -28.018  1.00  0.00     0.051 A 
HETATM   21  C   UNL     1      -0.005   9.961 -27.031  1.00  0.00     0.119 A 
HETATM   22  F   UNL     1      -0.671  11.117 -26.939  1.00  0.00    -0.206 F 
HETATM   23  C   UNL     1       1.039   9.700 -26.157  1.00  0.00     0.084 A 
HETATM   24  C   UNL     1       1.717   8.497 -26.274  1.00  0.00     0.119 A 
HETATM   25  F   UNL     1       2.733   8.225 -25.447  1.00  0.00    -0.206 F 
HETATM   26  C   UNL     1       1.367   7.564 -27.248  1.00  0.00     0.051 A 
ENDBRANCH  18  19
ENDBRANCH  14  18
ENDBRANCH   1  11
BRANCH   5  27
HETATM   27  C   UNL     1      -5.567   3.160 -31.670  1.00  0.00     0.175 C 
BRANCH  27  28
HETATM   28  C   UNL     1      -5.834   2.036 -32.644  1.00  0.00    -0.037 A 
HETATM   29  C   UNL     1      -5.353   0.743 -32.381  1.00  0.00     0.048 A 
HETATM   30  C   UNL     1      -5.641  -0.253 -33.290  1.00  0.00     0.105 A 
HETATM   31  C   UNL     1      -6.360  -0.006 -34.435  1.00  0.00     0.105 A 
HETATM   32  O   UNL     1      -5.273  -1.558 -33.182  1.00  0.00    -0.323 OA
HETATM   33  O   UNL     1      -6.537  -1.124 -35.188  1.00  0.00    -0.323 OA
HETATM   34  C   UNL     1      -6.828   1.252 -34.741  1.00  0.00     0.040 A 
HETATM   35  C   UNL     1      -5.927  -2.121 -34.339  1.00  0.00     0.352 A 
HETATM   36  C   UNL     1      -6.558   2.283 -33.834  1.00  0.00     0.012 A 
ENDBRANCH  27  28
ENDBRANCH   5  27
TORSDOF 6
ENDMDL
MODEL 7
REMARK VINA RESULT:      -9.0      4.486      8.057
REMARK  6 active torsions:
REMARK  status: ('A' for Active; 'I' for Inactive)
REMARK    1  A    between atoms: C_2  and  C_3 
REMARK    2  A    between atoms: C_3  and  C_4 
REMARK    3  A    between atoms: N_7  and  C_9 
REMARK    4  A    between atoms: C_9  and  C_10 
REMARK    5  A    between atoms: N_23  and  C_24 
REMARK    6  A    between atoms: C_24  and  C_25 
ROOT
HETATM    1  C   UNL     1      -7.143   2.471 -31.632  1.00  0.00     0.119 C 
HETATM    2  N   UNL     1      -6.623   2.908 -32.917  1.00  0.00    -0.324 N 
HETATM    3  C   UNL     1      -6.913   2.003 -33.919  1.00  0.00     0.326 C 
HETATM    4  O   UNL     1      -6.711   2.250 -35.094  1.00  0.00    -0.247 OA
HETATM    5  N   UNL     1      -7.419   0.878 -33.363  1.00  0.00    -0.264 N 
HETATM    6  C   UNL     1      -7.556   1.028 -32.014  1.00  0.00     0.257 C 
HETATM    7  O   UNL     1      -7.944   0.182 -31.222  1.00  0.00    -0.270 OA
HETATM    8  H   UNL     1      -6.616   3.874 -33.229  1.00  0.00     0.165 HD
ENDROOT
BRANCH   1   9
HETATM    9  C   UNL     1      -8.420   3.291 -31.327  1.00  0.00     0.037 C 
HETATM   10  C   UNL     1      -8.605   4.557 -32.152  1.00  0.00     0.008 C 
ENDBRANCH   1   9
BRANCH   1  11
HETATM   11  C   UNL     1      -6.060   2.474 -30.507  1.00  0.00     0.026 C 
HETATM   12  C   UNL     1      -6.011   3.769 -29.680  1.00  0.00     0.035 C 
HETATM   13  C   UNL     1      -5.300   4.930 -30.367  1.00  0.00     0.235 C 
HETATM   14  N   UNL     1      -3.915   4.529 -30.810  1.00  0.00    -0.067 N 
HETATM   15  H   UNL     1      -3.373   4.334 -29.959  1.00  0.00     0.280 HD
HETATM   16  C   UNL     1      -3.896   3.276 -31.659  1.00  0.00     0.235 C 
HETATM   17  C   UNL     1      -4.622   2.140 -30.959  1.00  0.00     0.035 C 
BRANCH  14  18
HETATM   18  C   UNL     1      -3.176   5.640 -31.544  1.00  0.00     0.273 C 
BRANCH  18  19
HETATM   19  C   UNL     1      -1.818   5.973 -30.990  1.00  0.00    -0.027 A 
HETATM   20  C   UNL     1      -0.701   5.171 -31.263  1.00  0.00     0.051 A 
HETATM   21  C   UNL     1       0.542   5.493 -30.713  1.00  0.00     0.119 A 
HETATM   22  F   UNL     1       1.592   4.710 -30.982  1.00  0.00    -0.206 F 
HETATM   23  C   UNL     1       0.704   6.597 -29.890  1.00  0.00     0.084 A 
HETATM   24  C   UNL     1      -0.400   7.392 -29.622  1.00  0.00     0.119 A 
HETATM   25  F   UNL     1      -0.271   8.458 -28.824  1.00  0.00    -0.206 F 
HETATM   26  C   UNL     1      -1.650   7.095 -30.160  1.00  0.00     0.051 A 
ENDBRANCH  18  19
ENDBRANCH  14  18
ENDBRANCH   1  11
BRANCH   5  27
HETATM   27  C   UNL     1      -7.781  -0.308 -34.106  1.00  0.00     0.175 C 
BRANCH  27  28
HETATM   28  C   UNL     1      -6.664  -1.327 -34.097  1.00  0.00    -0.037 A 
HETATM   29  C   UNL     1      -6.933  -2.673 -34.393  1.00  0.00     0.048 A 
HETATM   30  C   UNL     1      -5.878  -3.560 -34.393  1.00  0.00     0.105 A 
HETATM   31  C   UNL     1      -4.595  -3.163 -34.097  1.00  0.00     0.105 A 
HETATM   32  O   UNL     1      -5.956  -4.888 -34.676  1.00  0.00    -0.323 OA
HETATM   33  O   UNL     1      -3.707  -4.190 -34.160  1.00  0.00    -0.323 OA
HETATM   34  C   UNL     1      -4.295  -1.858 -33.778  1.00  0.00     0.040 A 
HETATM   35  C   UNL     1      -4.562  -5.259 -34.621  1.00  0.00     0.352 A 
HETATM   36  C   UNL     1      -5.344  -0.932 -33.777  1.00  0.00     0.012 A 
ENDBRANCH  27  28
ENDBRANCH   5  27
TORSDOF 6
ENDMDL
MODEL 8
REMARK VINA RESULT:      -8.9      3.730      7.666
REMARK  6 active torsions:
REMARK  status: ('A' for Active; 'I' for Inactive)
REMARK    1  A    between atoms: C_2  and  C_3 
REMARK    2  A    between atoms: C_3  and  C_4 
REMARK    3  A    between atoms: N_7  and  C_9 
REMARK    4  A    between atoms: C_9  and  C_10 
REMARK    5  A    between atoms: N_23  and  C_24 
REMARK    6  A    between atoms: C_24  and  C_25 
ROOT
HETATM    1  C   UNL     1      -5.576   4.538 -32.029  1.00  0.00     0.119 C 
HETATM    2  N   UNL     1      -4.909   3.309 -31.631  1.00  0.00    -0.324 N 
HETATM    3  C   UNL     1      -3.542   3.390 -31.812  1.00  0.00     0.326 C 
HETATM    4  O   UNL     1      -2.782   2.536 -31.394  1.00  0.00    -0.247 OA
HETATM    5  N   UNL     1      -3.255   4.520 -32.499  1.00  0.00    -0.264 N 
HETATM    6  C   UNL     1      -4.387   5.250 -32.719  1.00  0.00     0.257 C 
HETATM    7  O   UNL     1      -4.468   6.296 -33.346  1.00  0.00    -0.270 OA
HETATM    8  H   UNL     1      -5.183   2.747 -30.832  1.00  0.00     0.165 HD
ENDROOT
BRANCH   1   9
HETATM    9  C   UNL     1      -5.949   5.320 -30.746  1.00  0.00     0.037 C 
HETATM   10  C   UNL     1      -5.954   4.509 -29.457  1.00  0.00     0.008 C 
ENDBRANCH   1   9
BRANCH   1  11
HETATM   11  C   UNL     1      -6.750   4.293 -33.030  1.00  0.00     0.026 C 
HETATM   12  C   UNL     1      -8.057   3.825 -32.368  1.00  0.00     0.035 C 
HETATM   13  C   UNL     1      -8.077   2.350 -31.984  1.00  0.00     0.235 C 
HETATM   14  N   UNL     1      -7.738   1.479 -33.170  1.00  0.00    -0.067 N 
HETATM   15  H   UNL     1      -8.495   1.599 -33.856  1.00  0.00     0.280 HD
HETATM   16  C   UNL     1      -6.443   1.867 -33.848  1.00  0.00     0.235 C 
HETATM   17  C   UNL     1      -6.442   3.343 -34.207  1.00  0.00     0.035 C 
BRANCH  14  18
HETATM   18  C   UNL     1      -7.700  -0.005 -32.831  1.00  0.00     0.273 C 
BRANCH  18  19
HETATM   19  C   UNL     1      -6.324  -0.612 -32.790  1.00  0.00    -0.027 A 
HETATM   20  C   UNL     1      -5.413  -0.288 -31.775  1.00  0.00     0.051 A 
HETATM   21  C   UNL     1      -4.134  -0.849 -31.778  1.00  0.00     0.119 A 
HETATM   22  F   UNL     1      -3.280  -0.520 -30.803  1.00  0.00    -0.206 F 
HETATM   23  C   UNL     1      -3.732  -1.726 -32.774  1.00  0.00     0.084 A 
HETATM   24  C   UNL     1      -4.633  -2.049 -33.776  1.00  0.00     0.119 A 
HETATM   25  F   UNL     1      -4.267  -2.887 -34.752  1.00  0.00    -0.206 F 
HETATM   26  C   UNL     1      -5.916  -1.506 -33.795  1.00  0.00     0.051 A 
ENDBRANCH  18  19
ENDBRANCH  14  18
ENDBRANCH   1  11
BRANCH   5  27
HETATM   27  C   UNL     1      -1.927   4.902 -32.921  1.00  0.00     0.175 C 
BRANCH  27  28
HETATM   28  C   UNL     1      -1.164   5.574 -31.803  1.00  0.00    -0.037 A 
HETATM   29  C   UNL     1      -1.687   6.718 -31.177  1.00  0.00     0.048 A 
HETATM   30  C   UNL     1      -0.963   7.282 -30.148  1.00  0.00     0.105 A 
HETATM   31  C   UNL     1       0.245   6.767 -29.743  1.00  0.00     0.105 A 
HETATM   32  O   UNL     1      -1.330   8.372 -29.423  1.00  0.00    -0.323 OA
HETATM   33  O   UNL     1       0.787   7.467 -28.711  1.00  0.00    -0.323 OA
HETATM   34  C   UNL     1       0.803   5.663 -30.347  1.00  0.00     0.040 A 
HETATM   35  C   UNL     1      -0.263   8.424 -28.452  1.00  0.00     0.352 A 
HETATM   36  C   UNL     1       0.089   5.063 -31.390  1.00  0.00     0.012 A 
ENDBRANCH  27  28
ENDBRANCH   5  27
TORSDOF 6
ENDMDL
MODEL 9
REMARK VINA RESULT:      -8.7      2.961      3.756
REMARK  6 active torsions:
REMARK  status: ('A' for Active; 'I' for Inactive)
REMARK    1  A    between atoms: C_2  and  C_3 
REMARK    2  A    between atoms: C_3  and  C_4 
REMARK    3  A    between atoms: N_7  and  C_9 
REMARK    4  A    between atoms: C_9  and  C_10 
REMARK    5  A    between atoms: N_23  and  C_24 
REMARK    6  A    between atoms: C_24  and  C_25 
ROOT
HETATM    1  C   UNL     1      -9.913   2.939 -32.572  1.00  0.00     0.119 C 
HETATM    2  N   UNL     1     -10.491   3.034 -33.903  1.00  0.00    -0.324 N 
HETATM    3  C   UNL     1     -11.561   3.907 -33.932  1.00  0.00     0.326 C 
HETATM    4  O   UNL     1     -12.085   4.256 -34.974  1.00  0.00    -0.247 OA
HETATM    5  N   UNL     1     -11.878   4.257 -32.663  1.00  0.00    -0.264 N 
HETATM    6  C   UNL     1     -10.998   3.706 -31.778  1.00  0.00     0.257 C 
HETATM    7  O   UNL     1     -11.038   3.797 -30.560  1.00  0.00    -0.270 OA
HETATM    8  H   UNL     1      -9.949   3.025 -34.760  1.00  0.00     0.165 HD
ENDROOT
BRANCH   1   9
HETATM    9  C   UNL     1      -8.604   3.766 -32.557  1.00  0.00     0.037 C 
HETATM   10  C   UNL     1      -7.998   4.069 -33.921  1.00  0.00     0.008 C 
ENDBRANCH   1   9
BRANCH   1  11
HETATM   11  C   UNL     1      -9.780   1.464 -32.074  1.00  0.00     0.026 C 
HETATM   12  C   UNL     1      -8.522   1.193 -31.232  1.00  0.00     0.035 C 
HETATM   13  C   UNL     1      -7.241   1.034 -32.043  1.00  0.00     0.235 C 
HETATM   14  N   UNL     1      -7.406  -0.020 -33.110  1.00  0.00    -0.067 N 
HETATM   15  H   UNL     1      -7.543  -0.917 -32.627  1.00  0.00     0.280 HD
HETATM   16  C   UNL     1      -8.609   0.207 -33.998  1.00  0.00     0.235 C 
HETATM   17  C   UNL     1      -9.869   0.377 -33.166  1.00  0.00     0.035 C 
BRANCH  14  18
HETATM   18  C   UNL     1      -6.168  -0.189 -33.982  1.00  0.00     0.273 C 
BRANCH  18  19
HETATM   19  C   UNL     1      -5.705  -1.609 -34.161  1.00  0.00    -0.027 A 
HETATM   20  C   UNL     1      -6.420  -2.514 -34.958  1.00  0.00     0.051 A 
HETATM   21  C   UNL     1      -5.978  -3.832 -35.085  1.00  0.00     0.119 A 
HETATM   22  F   UNL     1      -6.680  -4.680 -35.846  1.00  0.00    -0.206 F 
HETATM   23  C   UNL     1      -4.840  -4.280 -34.432  1.00  0.00     0.084 A 
HETATM   24  C   UNL     1      -4.131  -3.384 -33.646  1.00  0.00     0.119 A 
HETATM   25  F   UNL     1      -3.034  -3.793 -33.000  1.00  0.00    -0.206 F 
HETATM   26  C   UNL     1      -4.548  -2.062 -33.505  1.00  0.00     0.051 A 
ENDBRANCH  18  19
ENDBRANCH  14  18
ENDBRANCH   1  11
BRANCH   5  27
HETATM   27  C   UNL     1     -12.987   5.113 -32.307  1.00  0.00     0.175 C 
BRANCH  27  28
HETATM   28  C   UNL     1     -14.282   4.336 -32.232  1.00  0.00    -0.037 A 
HETATM   29  C   UNL     1     -15.513   5.012 -32.235  1.00  0.00     0.048 A 
HETATM   30  C   UNL     1     -16.666   4.258 -32.187  1.00  0.00     0.105 A 
HETATM   31  C   UNL     1     -16.634   2.886 -32.120  1.00  0.00     0.105 A 
HETATM   32  O   UNL     1     -17.936   4.746 -32.202  1.00  0.00    -0.323 OA
HETATM   33  O   UNL     1     -17.879   2.339 -32.088  1.00  0.00    -0.323 OA
HETATM   34  C   UNL     1     -15.448   2.188 -32.090  1.00  0.00     0.040 A 
HETATM   35  C   UNL     1     -18.697   3.520 -32.237  1.00  0.00     0.352 A 
HETATM   36  C   UNL     1     -14.260   2.924 -32.145  1.00  0.00     0.012 A 
ENDBRANCH  27  28
ENDBRANCH   5  27
TORSDOF 6
ENDMDL
MODEL 10
REMARK VINA RESULT:      -8.7      3.500      7.151
REMARK  6 active torsions:
REMARK  status: ('A' for Active; 'I' for Inactive)
REMARK    1  A    between atoms: C_2  and  C_3 
REMARK    2  A    between atoms: C_3  and  C_4 
REMARK    3  A    between atoms: N_7  and  C_9 
REMARK    4  A    between atoms: C_9  and  C_10 
REMARK    5  A    between atoms: N_23  and  C_24 
REMARK    6  A    between atoms: C_24  and  C_25 
ROOT
HETATM    1  C   UNL     1      -5.969   3.956 -31.867  1.00  0.00     0.119 C 
HETATM    2  N   UNL     1      -5.346   2.642 -31.872  1.00  0.00    -0.324 N 
HETATM    3  C   UNL     1      -4.040   2.700 -32.317  1.00  0.00     0.326 C 
HETATM    4  O   UNL     1      -3.288   1.745 -32.248  1.00  0.00    -0.247 OA
HETATM    5  N   UNL     1      -3.797   3.937 -32.809  1.00  0.00    -0.264 N 
HETATM    6  C   UNL     1      -4.882   4.746 -32.635  1.00  0.00     0.257 C 
HETATM    7  O   UNL     1      -4.995   5.904 -33.009  1.00  0.00    -0.270 OA
HETATM    8  H   UNL     1      -5.504   1.935 -31.162  1.00  0.00     0.165 HD
ENDROOT
BRANCH   1   9
HETATM    9  C   UNL     1      -6.013   4.461 -30.404  1.00  0.00     0.037 C 
HETATM   10  C   UNL     1      -4.908   5.431 -30.007  1.00  0.00     0.008 C 
ENDBRANCH   1   9
BRANCH   1  11
HETATM   11  C   UNL     1      -7.334   3.981 -32.626  1.00  0.00     0.026 C 
HETATM   12  C   UNL     1      -8.510   3.389 -31.831  1.00  0.00     0.035 C 
HETATM   13  C   UNL     1      -8.552   1.865 -31.807  1.00  0.00     0.235 C 
HETATM   14  N   UNL     1      -8.518   1.302 -33.207  1.00  0.00    -0.067 N 
HETATM   15  H   UNL     1      -9.387   1.598 -33.671  1.00  0.00     0.280 HD
HETATM   16  C   UNL     1      -7.362   1.820 -34.034  1.00  0.00     0.235 C 
HETATM   17  C   UNL     1      -7.334   3.340 -34.030  1.00  0.00     0.035 C 
BRANCH  14  18
HETATM   18  C   UNL     1      -8.513  -0.220 -33.241  1.00  0.00     0.273 C 
BRANCH  18  19
HETATM   19  C   UNL     1      -7.154  -0.847 -33.398  1.00  0.00    -0.027 A 
HETATM   20  C   UNL     1      -6.829  -1.608 -34.529  1.00  0.00     0.051 A 
HETATM   21  C   UNL     1      -5.567  -2.199 -34.634  1.00  0.00     0.119 A 
HETATM   22  F   UNL     1      -5.281  -2.926 -35.720  1.00  0.00    -0.206 F 
HETATM   23  C   UNL     1      -4.616  -2.055 -33.635  1.00  0.00     0.084 A 
HETATM   24  C   UNL     1      -4.937  -1.301 -32.518  1.00  0.00     0.119 A 
HETATM   25  F   UNL     1      -4.040  -1.153 -31.537  1.00  0.00    -0.206 F 
HETATM   26  C   UNL     1      -6.187  -0.698 -32.389  1.00  0.00     0.051 A 
ENDBRANCH  18  19
ENDBRANCH  14  18
ENDBRANCH   1  11
BRANCH   5  27
HETATM   27  C   UNL     1      -2.550   4.343 -33.417  1.00  0.00     0.175 C 
BRANCH  27  28
HETATM   28  C   UNL     1      -1.753   5.240 -32.497  1.00  0.00    -0.037 A 
HETATM   29  C   UNL     1      -1.319   4.766 -31.248  1.00  0.00     0.048 A 
HETATM   30  C   UNL     1      -0.578   5.615 -30.455  1.00  0.00     0.105 A 
HETATM   31  C   UNL     1      -0.277   6.898 -30.847  1.00  0.00     0.105 A 
HETATM   32  O   UNL     1      -0.064   5.314 -29.232  1.00  0.00    -0.323 OA
HETATM   33  O   UNL     1       0.467   7.561 -29.923  1.00  0.00    -0.323 OA
HETATM   34  C   UNL     1      -0.704   7.407 -32.052  1.00  0.00     0.040 A 
HETATM   35  C   UNL     1       0.678   6.518 -28.946  1.00  0.00     0.352 A 
HETATM   36  C   UNL     1      -1.453   6.567 -32.884  1.00  0.00     0.012 A 
ENDBRANCH  27  28
ENDBRANCH   5  27
TORSDOF 6
ENDMDL
