MODEL 1
REMARK VINA RESULT:      -8.1      0.000      0.000
REMARK  6 active torsions:
REMARK  status: ('A' for Active; 'I' for Inactive)
REMARK    1  A    between atoms: C_2  and  C_3 
REMARK    2  A    between atoms: C_2  and  C_18 
REMARK       I    between atoms: C_3  and  N_4 
REMARK    3  A    between atoms: N_4  and  C_5 
REMARK    4  A    between atoms: C_9  and  C_10 
REMARK    5  A    between atoms: C_18  and  C_19 
REMARK    6  A    between atoms: C_22  and  O_23 
ROOT
HETATM    1  C   UNL     1      -9.574   2.323 -33.608  1.00  0.00     0.227 C 
HETATM    2  N   UNL     1      -8.925   1.715 -34.668  1.00  0.00    -0.312 N 
HETATM    3  O   UNL     1      -9.311   2.094 -32.425  1.00  0.00    -0.273 OA
HETATM    4  H   UNL     1      -9.210   1.900 -35.620  1.00  0.00     0.170 HD
ENDROOT
BRANCH   2   5
HETATM    5  C   UNL     1      -7.893   0.819 -34.473  1.00  0.00     0.126 A 
HETATM    6  N   UNL     1      -6.633   1.161 -34.063  1.00  0.00    -0.262 N 
HETATM    7  H   UNL     1      -6.305   2.095 -33.829  1.00  0.00     0.191 HD
HETATM    8  N   UNL     1      -5.781   0.122 -34.019  1.00  0.00    -0.172 NA
HETATM    9  C   UNL     1      -6.528  -0.942 -34.357  1.00  0.00     0.092 A 
HETATM   10  C   UNL     1      -7.865  -0.542 -34.647  1.00  0.00     0.084 A 
BRANCH   9  11
HETATM   11  C   UNL     1      -5.961  -2.286 -34.418  1.00  0.00     0.012 A 
HETATM   12  C   UNL     1      -4.637  -2.539 -34.071  1.00  0.00     0.130 A 
HETATM   13  N   UNL     1      -4.057  -3.766 -34.086  1.00  0.00    -0.272 NA
HETATM   14  C   UNL     1      -4.838  -4.797 -34.475  1.00  0.00     0.116 A 
HETATM   15  C   UNL     1      -6.165  -4.658 -34.848  1.00  0.00     0.020 A 
HETATM   16  C   UNL     1      -6.730  -3.383 -34.821  1.00  0.00     0.017 A 
ENDBRANCH   9  11
ENDBRANCH   2   5
BRANCH   1  17
HETATM   17  C   UNL     1     -10.564   3.424 -33.985  1.00  0.00     0.078 C 
HETATM   18  C   UNL     1      -9.815   4.505 -34.766  1.00  0.00     0.020 C 
BRANCH  17  19
HETATM   19  C   UNL     1     -11.797   2.958 -34.776  1.00  0.00     0.052 C 
BRANCH  19  20
HETATM   20  C   UNL     1     -13.020   2.651 -33.948  1.00  0.00    -0.057 A 
HETATM   21  C   UNL     1     -13.376   3.455 -32.859  1.00  0.00     0.010 A 
HETATM   22  C   UNL     1     -14.536   3.184 -32.129  1.00  0.00     0.037 A 
HETATM   23  C   UNL     1     -15.365   2.116 -32.476  1.00  0.00     0.068 A 
HETATM   24  C   UNL     1     -15.018   1.312 -33.558  1.00  0.00     0.037 A 
HETATM   25  C   UNL     1     -13.856   1.580 -34.292  1.00  0.00     0.010 A 
BRANCH  23  26
HETATM   26  O   UNL     1     -16.474   1.973 -31.689  1.00  0.00    -0.356 OA
HETATM   27  C   UNL     1     -17.560   2.855 -31.940  1.00  0.00     0.210 C 
ENDBRANCH  23  26
ENDBRANCH  19  20
ENDBRANCH  17  19
ENDBRANCH   1  17
TORSDOF 6
ENDMDL
MODEL 2
REMARK VINA RESULT:      -8.0      4.914      9.056
REMARK  6 active torsions:
REMARK  status: ('A' for Active; 'I' for Inactive)
REMARK    1  A    between atoms: C_2  and  C_3 
REMARK    2  A    between atoms: C_2  and  C_18 
REMARK       I    between atoms: C_3  and  N_4 
REMARK    3  A    between atoms: N_4  and  C_5 
REMARK    4  A    between atoms: C_9  and  C_10 
REMARK    5  A    between atoms: C_18  and  C_19 
REMARK    6  A    between atoms: C_22  and  O_23 
ROOT
HETATM    1  C   UNL     1      -7.464   1.758 -33.064  1.00  0.00     0.227 C 
HETATM    2  N   UNL     1      -6.102   1.937 -32.903  1.00  0.00    -0.312 N 
HETATM    3  O   UNL     1      -8.232   2.655 -33.421  1.00  0.00    -0.273 OA
HETATM    4  H   UNL     1      -5.521   1.184 -32.561  1.00  0.00     0.170 HD
ENDROOT
BRANCH   2   5
HETATM    5  C   UNL     1      -5.489   3.145 -33.171  1.00  0.00     0.126 A 
HETATM    6  N   UNL     1      -5.812   3.965 -34.218  1.00  0.00    -0.262 N 
HETATM    7  H   UNL     1      -6.545   3.809 -34.905  1.00  0.00     0.191 HD
HETATM    8  N   UNL     1      -5.023   5.050 -34.314  1.00  0.00    -0.172 NA
HETATM    9  C   UNL     1      -4.196   4.961 -33.259  1.00  0.00     0.092 A 
HETATM   10  C   UNL     1      -4.461   3.775 -32.515  1.00  0.00     0.084 A 
BRANCH   9  11
HETATM   11  C   UNL     1      -3.175   5.972 -33.001  1.00  0.00     0.012 A 
HETATM   12  C   UNL     1      -2.520   6.634 -34.036  1.00  0.00     0.130 A 
HETATM   13  N   UNL     1      -1.580   7.597 -33.862  1.00  0.00    -0.272 NA
HETATM   14  C   UNL     1      -1.270   7.913 -32.587  1.00  0.00     0.116 A 
HETATM   15  C   UNL     1      -1.853   7.313 -31.482  1.00  0.00     0.020 A 
HETATM   16  C   UNL     1      -2.816   6.328 -31.697  1.00  0.00     0.017 A 
ENDBRANCH   9  11
ENDBRANCH   2   5
BRANCH   1  17
HETATM   17  C   UNL     1      -7.965   0.323 -32.907  1.00  0.00     0.078 C 
HETATM   18  C   UNL     1      -9.378   0.363 -32.322  1.00  0.00     0.020 C 
BRANCH  17  19
HETATM   19  C   UNL     1      -7.948  -0.524 -34.190  1.00  0.00     0.052 C 
BRANCH  19  20
HETATM   20  C   UNL     1      -6.818  -1.519 -34.294  1.00  0.00    -0.057 A 
HETATM   21  C   UNL     1      -5.505  -1.158 -33.971  1.00  0.00     0.010 A 
HETATM   22  C   UNL     1      -4.477  -2.103 -34.031  1.00  0.00     0.037 A 
HETATM   23  C   UNL     1      -4.739  -3.422 -34.402  1.00  0.00     0.068 A 
HETATM   24  C   UNL     1      -6.044  -3.789 -34.726  1.00  0.00     0.037 A 
HETATM   25  C   UNL     1      -7.076  -2.845 -34.668  1.00  0.00     0.010 A 
BRANCH  23  26
HETATM   26  O   UNL     1      -3.648  -4.245 -34.404  1.00  0.00    -0.356 OA
HETATM   27  C   UNL     1      -3.368  -4.946 -33.199  1.00  0.00     0.210 C 
ENDBRANCH  23  26
ENDBRANCH  19  20
ENDBRANCH  17  19
ENDBRANCH   1  17
TORSDOF 6
ENDMDL
MODEL 3
REMARK VINA RESULT:      -7.7      2.740      8.782
REMARK  6 active torsions:
REMARK  status: ('A' for Active; 'I' for Inactive)
REMARK    1  A    between atoms: C_2  and  C_3 
REMARK    2  A    between atoms: C_2  and  C_18 
REMARK       I    between atoms: C_3  and  N_4 
REMARK    3  A    between atoms: N_4  and  C_5 
REMARK    4  A    between atoms: C_9  and  C_10 
REMARK    5  A    between atoms: C_18  and  C_19 
REMARK    6  A    between atoms: C_22  and  O_23 
ROOT
HETATM    1  C   UNL     1      -7.469   2.749 -33.876  1.00  0.00     0.227 C 
HETATM    2  N   UNL     1      -8.457   1.801 -34.073  1.00  0.00    -0.312 N 
HETATM    3  O   UNL     1      -7.692   3.959 -33.784  1.00  0.00    -0.273 OA
HETATM    4  H   UNL     1      -8.220   0.826 -34.191  1.00  0.00     0.170 HD
ENDROOT
BRANCH   2   5
HETATM    5  C   UNL     1      -9.792   2.146 -34.147  1.00  0.00     0.126 A 
HETATM    6  N   UNL     1     -10.297   3.136 -34.947  1.00  0.00    -0.262 N 
HETATM    7  H   UNL     1      -9.771   3.715 -35.597  1.00  0.00     0.191 HD
HETATM    8  N   UNL     1     -11.617   3.336 -34.787  1.00  0.00    -0.172 NA
HETATM    9  C   UNL     1     -11.994   2.406 -33.894  1.00  0.00     0.092 A 
HETATM   10  C   UNL     1     -10.872   1.636 -33.469  1.00  0.00     0.084 A 
BRANCH   9  11
HETATM   11  C   UNL     1     -13.381   2.287 -33.453  1.00  0.00     0.012 A 
HETATM   12  C   UNL     1     -14.269   1.401 -34.058  1.00  0.00     0.130 A 
HETATM   13  N   UNL     1     -15.561   1.228 -33.682  1.00  0.00    -0.272 NA
HETATM   14  C   UNL     1     -15.994   1.984 -32.651  1.00  0.00     0.116 A 
HETATM   15  C   UNL     1     -15.200   2.901 -31.982  1.00  0.00     0.020 A 
HETATM   16  C   UNL     1     -13.876   3.053 -32.393  1.00  0.00     0.017 A 
ENDBRANCH   9  11
ENDBRANCH   2   5
BRANCH   1  17
HETATM   17  C   UNL     1      -6.065   2.197 -33.633  1.00  0.00     0.078 C 
HETATM   18  C   UNL     1      -5.162   3.347 -33.182  1.00  0.00     0.020 C 
BRANCH  17  19
HETATM   19  C   UNL     1      -5.979   1.034 -32.632  1.00  0.00     0.052 C 
BRANCH  19  20
HETATM   20  C   UNL     1      -5.773  -0.331 -33.241  1.00  0.00    -0.057 A 
HETATM   21  C   UNL     1      -6.844  -1.052 -33.780  1.00  0.00     0.010 A 
HETATM   22  C   UNL     1      -6.629  -2.296 -34.380  1.00  0.00     0.037 A 
HETATM   23  C   UNL     1      -5.345  -2.838 -34.462  1.00  0.00     0.068 A 
HETATM   24  C   UNL     1      -4.274  -2.126 -33.927  1.00  0.00     0.037 A 
HETATM   25  C   UNL     1      -4.485  -0.880 -33.324  1.00  0.00     0.010 A 
BRANCH  23  26
HETATM   26  O   UNL     1      -5.275  -4.052 -35.086  1.00  0.00    -0.356 OA
HETATM   27  C   UNL     1      -6.507  -4.681 -35.411  1.00  0.00     0.210 C 
ENDBRANCH  23  26
ENDBRANCH  19  20
ENDBRANCH  17  19
ENDBRANCH   1  17
TORSDOF 6
ENDMDL
MODEL 4
REMARK VINA RESULT:      -7.6      5.650      8.470
REMARK  6 active torsions:
REMARK  status: ('A' for Active; 'I' for Inactive)
REMARK    1  A    between atoms: C_2  and  C_3 
REMARK    2  A    between atoms: C_2  and  C_18 
REMARK       I    between atoms: C_3  and  N_4 
REMARK    3  A    between atoms: N_4  and  C_5 
REMARK    4  A    between atoms: C_9  and  C_10 
REMARK    5  A    between atoms: C_18  and  C_19 
REMARK    6  A    between atoms: C_22  and  O_23 
ROOT
HETATM    1  C   UNL     1      -5.847   3.683 -33.324  1.00  0.00     0.227 C 
HETATM    2  N   UNL     1      -6.084   2.466 -32.711  1.00  0.00    -0.312 N 
HETATM    3  O   UNL     1      -5.648   3.812 -34.534  1.00  0.00    -0.273 OA
HETATM    4  H   UNL     1      -6.193   2.406 -31.708  1.00  0.00     0.170 HD
ENDROOT
BRANCH   2   5
HETATM    5  C   UNL     1      -6.152   1.290 -33.432  1.00  0.00     0.126 A 
HETATM    6  N   UNL     1      -6.816   1.143 -34.620  1.00  0.00    -0.262 N 
HETATM    7  H   UNL     1      -7.312   1.870 -35.129  1.00  0.00     0.191 HD
HETATM    8  N   UNL     1      -6.804  -0.116 -35.091  1.00  0.00    -0.172 NA
HETATM    9  C   UNL     1      -6.057  -0.800 -34.207  1.00  0.00     0.092 A 
HETATM   10  C   UNL     1      -5.628   0.053 -33.149  1.00  0.00     0.084 A 
BRANCH   9  11
HETATM   11  C   UNL     1      -5.794  -2.227 -34.371  1.00  0.00     0.012 A 
HETATM   12  C   UNL     1      -4.534  -2.771 -34.137  1.00  0.00     0.130 A 
HETATM   13  N   UNL     1      -4.231  -4.089 -34.250  1.00  0.00    -0.272 NA
HETATM   14  C   UNL     1      -5.237  -4.908 -34.624  1.00  0.00     0.116 A 
HETATM   15  C   UNL     1      -6.525  -4.474 -34.889  1.00  0.00     0.020 A 
HETATM   16  C   UNL     1      -6.803  -3.113 -34.762  1.00  0.00     0.017 A 
ENDBRANCH   9  11
ENDBRANCH   2   5
BRANCH   1  17
HETATM   17  C   UNL     1      -5.983   4.912 -32.424  1.00  0.00     0.078 C 
HETATM   18  C   UNL     1      -5.781   4.475 -30.972  1.00  0.00     0.020 C 
BRANCH  17  19
HETATM   19  C   UNL     1      -5.043   6.081 -32.761  1.00  0.00     0.052 C 
BRANCH  19  20
HETATM   20  C   UNL     1      -3.623   5.931 -32.272  1.00  0.00    -0.057 A 
HETATM   21  C   UNL     1      -2.751   5.008 -32.859  1.00  0.00     0.010 A 
HETATM   22  C   UNL     1      -1.426   4.913 -32.424  1.00  0.00     0.037 A 
HETATM   23  C   UNL     1      -0.946   5.739 -31.408  1.00  0.00     0.068 A 
HETATM   24  C   UNL     1      -1.809   6.660 -30.819  1.00  0.00     0.037 A 
HETATM   25  C   UNL     1      -3.137   6.758 -31.250  1.00  0.00     0.010 A 
BRANCH  23  26
HETATM   26  O   UNL     1       0.371   5.552 -31.091  1.00  0.00    -0.356 OA
HETATM   27  C   UNL     1       0.652   4.952 -29.833  1.00  0.00     0.210 C 
ENDBRANCH  23  26
ENDBRANCH  19  20
ENDBRANCH  17  19
ENDBRANCH   1  17
TORSDOF 6
ENDMDL
MODEL 5
REMARK VINA RESULT:      -7.5      4.803      7.640
REMARK  6 active torsions:
REMARK  status: ('A' for Active; 'I' for Inactive)
REMARK    1  A    between atoms: C_2  and  C_3 
REMARK    2  A    between atoms: C_2  and  C_18 
REMARK       I    between atoms: C_3  and  N_4 
REMARK    3  A    between atoms: N_4  and  C_5 
REMARK    4  A    between atoms: C_9  and  C_10 
REMARK    5  A    between atoms: C_18  and  C_19 
REMARK    6  A    between atoms: C_22  and  O_23 
ROOT
HETATM    1  C   UNL     1      -7.157   2.541 -31.687  1.00  0.00     0.227 C 
HETATM    2  N   UNL     1      -6.500   2.396 -32.895  1.00  0.00    -0.312 N 
HETATM    3  O   UNL     1      -7.801   1.637 -31.147  1.00  0.00    -0.273 OA
HETATM    4  H   UNL     1      -6.027   3.181 -33.322  1.00  0.00     0.170 HD
ENDROOT
BRANCH   2   5
HETATM    5  C   UNL     1      -6.488   1.196 -33.578  1.00  0.00     0.126 A 
HETATM    6  N   UNL     1      -7.188   0.948 -34.727  1.00  0.00    -0.262 N 
HETATM    7  H   UNL     1      -7.774   1.608 -35.233  1.00  0.00     0.191 HD
HETATM    8  N   UNL     1      -7.077  -0.319 -35.163  1.00  0.00    -0.172 NA
HETATM    9  C   UNL     1      -6.229  -0.900 -34.297  1.00  0.00     0.092 A 
HETATM   10  C   UNL     1      -5.836   0.024 -33.286  1.00  0.00     0.084 A 
BRANCH   9  11
HETATM   11  C   UNL     1      -5.838  -2.301 -34.433  1.00  0.00     0.012 A 
HETATM   12  C   UNL     1      -4.536  -2.726 -34.183  1.00  0.00     0.130 A 
HETATM   13  N   UNL     1      -4.116  -4.013 -34.269  1.00  0.00    -0.272 NA
HETATM   14  C   UNL     1      -5.042  -4.926 -34.632  1.00  0.00     0.116 A 
HETATM   15  C   UNL     1      -6.362  -4.613 -34.912  1.00  0.00     0.020 A 
HETATM   16  C   UNL     1      -6.761  -3.280 -34.812  1.00  0.00     0.017 A 
ENDBRANCH   9  11
ENDBRANCH   2   5
BRANCH   1  17
HETATM   17  C   UNL     1      -6.927   3.869 -30.966  1.00  0.00     0.078 C 
HETATM   18  C   UNL     1      -8.038   4.058 -29.931  1.00  0.00     0.020 C 
BRANCH  17  19
HETATM   19  C   UNL     1      -5.551   4.025 -30.299  1.00  0.00     0.052 C 
BRANCH  19  20
HETATM   20  C   UNL     1      -4.448   4.524 -31.199  1.00  0.00    -0.057 A 
HETATM   21  C   UNL     1      -4.388   5.866 -31.593  1.00  0.00     0.010 A 
HETATM   22  C   UNL     1      -3.335   6.322 -32.392  1.00  0.00     0.037 A 
HETATM   23  C   UNL     1      -2.323   5.455 -32.803  1.00  0.00     0.068 A 
HETATM   24  C   UNL     1      -2.376   4.118 -32.415  1.00  0.00     0.037 A 
HETATM   25  C   UNL     1      -3.429   3.657 -31.616  1.00  0.00     0.010 A 
BRANCH  23  26
HETATM   26  O   UNL     1      -1.347   6.034 -33.566  1.00  0.00    -0.356 OA
HETATM   27  C   UNL     1      -1.122   5.476 -34.854  1.00  0.00     0.210 C 
ENDBRANCH  23  26
ENDBRANCH  19  20
ENDBRANCH  17  19
ENDBRANCH   1  17
TORSDOF 6
ENDMDL
MODEL 6
REMARK VINA RESULT:      -7.4      8.829     11.483
REMARK  6 active torsions:
REMARK  status: ('A' for Active; 'I' for Inactive)
REMARK    1  A    between atoms: C_2  and  C_3 
REMARK    2  A    between atoms: C_2  and  C_18 
REMARK       I    between atoms: C_3  and  N_4 
REMARK    3  A    between atoms: N_4  and  C_5 
REMARK    4  A    between atoms: C_9  and  C_10 
REMARK    5  A    between atoms: C_18  and  C_19 
REMARK    6  A    between atoms: C_22  and  O_23 
ROOT
HETATM    1  C   UNL     1      -1.899   5.152 -31.354  1.00  0.00     0.227 C 
HETATM    2  N   UNL     1      -3.252   5.131 -31.638  1.00  0.00    -0.312 N 
HETATM    3  O   UNL     1      -1.225   4.135 -31.167  1.00  0.00    -0.273 OA
HETATM    4  H   UNL     1      -3.771   5.994 -31.736  1.00  0.00     0.170 HD
ENDROOT
BRANCH   2   5
HETATM    5  C   UNL     1      -3.951   3.948 -31.769  1.00  0.00     0.126 A 
HETATM    6  N   UNL     1      -4.141   3.042 -30.761  1.00  0.00    -0.262 N 
HETATM    7  H   UNL     1      -3.823   3.131 -29.799  1.00  0.00     0.191 HD
HETATM    8  N   UNL     1      -4.788   1.930 -31.152  1.00  0.00    -0.172 NA
HETATM    9  C   UNL     1      -5.080   2.146 -32.446  1.00  0.00     0.092 A 
HETATM   10  C   UNL     1      -4.570   3.408 -32.869  1.00  0.00     0.084 A 
BRANCH   9  11
HETATM   11  C   UNL     1      -5.800   1.158 -33.243  1.00  0.00     0.012 A 
HETATM   12  C   UNL     1      -5.762  -0.200 -32.936  1.00  0.00     0.130 A 
HETATM   13  N   UNL     1      -6.426  -1.164 -33.622  1.00  0.00    -0.272 NA
HETATM   14  C   UNL     1      -7.163  -0.754 -34.676  1.00  0.00     0.116 A 
HETATM   15  C   UNL     1      -7.266   0.568 -35.075  1.00  0.00     0.020 A 
HETATM   16  C   UNL     1      -6.571   1.534 -34.347  1.00  0.00     0.017 A 
ENDBRANCH   9  11
ENDBRANCH   2   5
BRANCH   1  17
HETATM   17  C   UNL     1      -1.230   6.525 -31.423  1.00  0.00     0.078 C 
HETATM   18  C   UNL     1      -2.052   7.507 -30.585  1.00  0.00     0.020 C 
BRANCH  17  19
HETATM   19  C   UNL     1       0.243   6.562 -30.987  1.00  0.00     0.052 C 
BRANCH  19  20
HETATM   20  C   UNL     1       0.481   6.897 -29.535  1.00  0.00    -0.057 A 
HETATM   21  C   UNL     1       0.279   5.944 -28.531  1.00  0.00     0.010 A 
HETATM   22  C   UNL     1       0.546   6.258 -27.195  1.00  0.00     0.037 A 
HETATM   23  C   UNL     1       1.025   7.519 -26.839  1.00  0.00     0.068 A 
HETATM   24  C   UNL     1       1.229   8.473 -27.833  1.00  0.00     0.037 A 
HETATM   25  C   UNL     1       0.962   8.163 -29.172  1.00  0.00     0.010 A 
BRANCH  23  26
HETATM   26  O   UNL     1       1.259   7.686 -25.502  1.00  0.00    -0.356 OA
HETATM   27  C   UNL     1       2.330   8.547 -25.139  1.00  0.00     0.210 C 
ENDBRANCH  23  26
ENDBRANCH  19  20
ENDBRANCH  17  19
ENDBRANCH   1  17
TORSDOF 6
ENDMDL
MODEL 7
REMARK VINA RESULT:      -7.4      7.621     10.699
REMARK  6 active torsions:
REMARK  status: ('A' for Active; 'I' for Inactive)
REMARK    1  A    between atoms: C_2  and  C_3 
REMARK    2  A    between atoms: C_2  and  C_18 
REMARK       I    between atoms: C_3  and  N_4 
REMARK    3  A    between atoms: N_4  and  C_5 
REMARK    4  A    between atoms: C_9  and  C_10 
REMARK    5  A    between atoms: C_18  and  C_19 
REMARK    6  A    between atoms: C_22  and  O_23 
ROOT
HETATM    1  C   UNL     1      -2.321   4.671 -32.657  1.00  0.00     0.227 C 
HETATM    2  N   UNL     1      -3.593   4.789 -33.185  1.00  0.00    -0.312 N 
HETATM    3  O   UNL     1      -2.037   3.920 -31.721  1.00  0.00    -0.273 OA
HETATM    4  H   UNL     1      -3.786   5.455 -33.921  1.00  0.00     0.170 HD
ENDROOT
BRANCH   2   5
HETATM    5  C   UNL     1      -4.649   4.032 -32.716  1.00  0.00     0.126 A 
HETATM    6  N   UNL     1      -4.820   3.663 -31.410  1.00  0.00    -0.262 N 
HETATM    7  H   UNL     1      -4.222   3.913 -30.627  1.00  0.00     0.191 HD
HETATM    8  N   UNL     1      -5.883   2.863 -31.212  1.00  0.00    -0.172 NA
HETATM    9  C   UNL     1      -6.454   2.755 -32.423  1.00  0.00     0.092 A 
HETATM   10  C   UNL     1      -5.706   3.480 -33.396  1.00  0.00     0.084 A 
BRANCH   9  11
HETATM   11  C   UNL     1      -7.662   1.961 -32.631  1.00  0.00     0.012 A 
HETATM   12  C   UNL     1      -8.925   2.545 -32.676  1.00  0.00     0.130 A 
HETATM   13  N   UNL     1     -10.081   1.867 -32.887  1.00  0.00    -0.272 NA
HETATM   14  C   UNL     1      -9.974   0.531 -33.056  1.00  0.00     0.116 A 
HETATM   15  C   UNL     1      -8.770  -0.154 -33.022  1.00  0.00     0.020 A 
HETATM   16  C   UNL     1      -7.601   0.574 -32.804  1.00  0.00     0.017 A 
ENDBRANCH   9  11
ENDBRANCH   2   5
BRANCH   1  17
HETATM   17  C   UNL     1      -1.225   5.436 -33.400  1.00  0.00     0.078 C 
HETATM   18  C   UNL     1      -1.446   5.262 -34.903  1.00  0.00     0.020 C 
BRANCH  17  19
HETATM   19  C   UNL     1      -1.112   6.929 -33.050  1.00  0.00     0.052 C 
BRANCH  19  20
HETATM   20  C   UNL     1      -0.855   7.236 -31.595  1.00  0.00    -0.057 A 
HETATM   21  C   UNL     1       0.299   6.775 -30.952  1.00  0.00     0.010 A 
HETATM   22  C   UNL     1       0.544   7.105 -29.617  1.00  0.00     0.037 A 
HETATM   23  C   UNL     1      -0.349   7.904 -28.903  1.00  0.00     0.068 A 
HETATM   24  C   UNL     1      -1.501   8.367 -29.536  1.00  0.00     0.037 A 
HETATM   25  C   UNL     1      -1.750   8.038 -30.874  1.00  0.00     0.010 A 
BRANCH  23  26
HETATM   26  O   UNL     1       0.019   8.163 -27.612  1.00  0.00    -0.356 OA
HETATM   27  C   UNL     1       1.159   7.473 -27.117  1.00  0.00     0.210 C 
ENDBRANCH  23  26
ENDBRANCH  19  20
ENDBRANCH  17  19
ENDBRANCH   1  17
TORSDOF 6
ENDMDL
MODEL 8
REMARK VINA RESULT:      -7.3      8.895     11.483
REMARK  6 active torsions:
REMARK  status: ('A' for Active; 'I' for Inactive)
REMARK    1  A    between atoms: C_2  and  C_3 
REMARK    2  A    between atoms: C_2  and  C_18 
REMARK       I    between atoms: C_3  and  N_4 
REMARK    3  A    between atoms: N_4  and  C_5 
REMARK    4  A    between atoms: C_9  and  C_10 
REMARK    5  A    between atoms: C_18  and  C_19 
REMARK    6  A    between atoms: C_22  and  O_23 
ROOT
HETATM    1  C   UNL     1      -1.996   5.186 -31.470  1.00  0.00     0.227 C 
HETATM    2  N   UNL     1      -2.516   3.982 -31.031  1.00  0.00    -0.312 N 
HETATM    3  O   UNL     1      -2.436   5.805 -32.442  1.00  0.00    -0.273 OA
HETATM    4  H   UNL     1      -2.089   3.488 -30.258  1.00  0.00     0.170 HD
ENDROOT
BRANCH   2   5
HETATM    5  C   UNL     1      -3.607   3.395 -31.639  1.00  0.00     0.126 A 
HETATM    6  N   UNL     1      -4.868   3.926 -31.653  1.00  0.00    -0.262 N 
HETATM    7  H   UNL     1      -5.155   4.815 -31.251  1.00  0.00     0.191 HD
HETATM    8  N   UNL     1      -5.780   3.132 -32.243  1.00  0.00    -0.172 NA
HETATM    9  C   UNL     1      -5.075   2.073 -32.676  1.00  0.00     0.092 A 
HETATM   10  C   UNL     1      -3.703   2.205 -32.316  1.00  0.00     0.084 A 
BRANCH   9  11
HETATM   11  C   UNL     1      -5.714   0.970 -33.388  1.00  0.00     0.012 A 
HETATM   12  C   UNL     1      -6.590   1.191 -34.447  1.00  0.00     0.130 A 
HETATM   13  N   UNL     1      -7.198   0.210 -35.162  1.00  0.00    -0.272 NA
HETATM   14  C   UNL     1      -6.922  -1.060 -34.797  1.00  0.00     0.116 A 
HETATM   15  C   UNL     1      -6.073  -1.394 -33.755  1.00  0.00     0.020 A 
HETATM   16  C   UNL     1      -5.464  -0.362 -33.042  1.00  0.00     0.017 A 
ENDBRANCH   9  11
ENDBRANCH   2   5
BRANCH   1  17
HETATM   17  C   UNL     1      -0.909   5.798 -30.586  1.00  0.00     0.078 C 
HETATM   18  C   UNL     1       0.444   5.226 -31.015  1.00  0.00     0.020 C 
BRANCH  17  19
HETATM   19  C   UNL     1      -0.856   7.334 -30.578  1.00  0.00     0.052 C 
BRANCH  19  20
HETATM   20  C   UNL     1      -0.372   7.958 -29.292  1.00  0.00    -0.057 A 
HETATM   21  C   UNL     1       0.914   7.700 -28.803  1.00  0.00     0.010 A 
HETATM   22  C   UNL     1       1.363   8.321 -27.634  1.00  0.00     0.037 A 
HETATM   23  C   UNL     1       0.546   9.213 -26.939  1.00  0.00     0.068 A 
HETATM   24  C   UNL     1      -0.735   9.474 -27.419  1.00  0.00     0.037 A 
HETATM   25  C   UNL     1      -1.189   8.854 -28.590  1.00  0.00     0.010 A 
BRANCH  23  26
HETATM   26  O   UNL     1       1.114   9.759 -25.822  1.00  0.00    -0.356 OA
HETATM   27  C   UNL     1       2.143   9.009 -25.191  1.00  0.00     0.210 C 
ENDBRANCH  23  26
ENDBRANCH  19  20
ENDBRANCH  17  19
ENDBRANCH   1  17
TORSDOF 6
ENDMDL
MODEL 9
REMARK VINA RESULT:      -7.2     15.039     18.672
REMARK  6 active torsions:
REMARK  status: ('A' for Active; 'I' for Inactive)
REMARK    1  A    between atoms: C_2  and  C_3 
REMARK    2  A    between atoms: C_2  and  C_18 
REMARK       I    between atoms: C_3  and  N_4 
REMARK    3  A    between atoms: N_4  and  C_5 
REMARK    4  A    between atoms: C_9  and  C_10 
REMARK    5  A    between atoms: C_18  and  C_19 
REMARK    6  A    between atoms: C_22  and  O_23 
ROOT
HETATM    1  C   UNL     1      -2.727 -13.473 -38.747  1.00  0.00     0.227 C 
HETATM    2  N   UNL     1      -3.589 -12.468 -39.150  1.00  0.00    -0.312 N 
HETATM    3  O   UNL     1      -3.098 -14.507 -38.187  1.00  0.00    -0.273 OA
HETATM    4  H   UNL     1      -3.231 -11.617 -39.562  1.00  0.00     0.170 HD
ENDROOT
BRANCH   2   5
HETATM    5  C   UNL     1      -4.955 -12.571 -38.982  1.00  0.00     0.126 A 
HETATM    6  N   UNL     1      -5.597 -12.500 -37.775  1.00  0.00    -0.262 N 
HETATM    7  H   UNL     1      -5.166 -12.339 -36.869  1.00  0.00     0.191 HD
HETATM    8  N   UNL     1      -6.924 -12.704 -37.859  1.00  0.00    -0.172 NA
HETATM    9  C   UNL     1      -7.159 -12.857 -39.173  1.00  0.00     0.092 A 
HETATM   10  C   UNL     1      -5.943 -12.778 -39.912  1.00  0.00     0.084 A 
BRANCH   9  11
HETATM   11  C   UNL     1      -8.506 -13.096 -39.686  1.00  0.00     0.012 A 
HETATM   12  C   UNL     1      -8.946 -14.373 -40.022  1.00  0.00     0.130 A 
HETATM   13  N   UNL     1     -10.189 -14.664 -40.481  1.00  0.00    -0.272 NA
HETATM   14  C   UNL     1     -11.038 -13.624 -40.621  1.00  0.00     0.116 A 
HETATM   15  C   UNL     1     -10.704 -12.313 -40.324  1.00  0.00     0.020 A 
HETATM   16  C   UNL     1      -9.417 -12.049 -39.853  1.00  0.00     0.017 A 
ENDBRANCH   9  11
ENDBRANCH   2   5
BRANCH   1  17
HETATM   17  C   UNL     1      -1.267 -13.296 -39.166  1.00  0.00     0.078 C 
HETATM   18  C   UNL     1      -0.395 -14.169 -38.262  1.00  0.00     0.020 C 
BRANCH  17  19
HETATM   19  C   UNL     1      -0.965 -13.597 -40.643  1.00  0.00     0.052 C 
BRANCH  19  20
HETATM   20  C   UNL     1      -1.775 -14.713 -41.255  1.00  0.00    -0.057 A 
HETATM   21  C   UNL     1      -2.928 -14.444 -42.001  1.00  0.00     0.010 A 
HETATM   22  C   UNL     1      -3.642 -15.486 -42.599  1.00  0.00     0.037 A 
HETATM   23  C   UNL     1      -3.218 -16.809 -42.471  1.00  0.00     0.068 A 
HETATM   24  C   UNL     1      -2.071 -17.085 -41.729  1.00  0.00     0.037 A 
HETATM   25  C   UNL     1      -1.353 -16.044 -41.128  1.00  0.00     0.010 A 
BRANCH  23  26
HETATM   26  O   UNL     1      -3.999 -17.727 -43.117  1.00  0.00    -0.356 OA
HETATM   27  C   UNL     1      -4.405 -17.407 -44.442  1.00  0.00     0.210 C 
ENDBRANCH  23  26
ENDBRANCH  19  20
ENDBRANCH  17  19
ENDBRANCH   1  17
TORSDOF 6
ENDMDL
MODEL 10
REMARK VINA RESULT:      -7.2      4.978      9.236
REMARK  6 active torsions:
REMARK  status: ('A' for Active; 'I' for Inactive)
REMARK    1  A    between atoms: C_2  and  C_3 
REMARK    2  A    between atoms: C_2  and  C_18 
REMARK       I    between atoms: C_3  and  N_4 
REMARK    3  A    between atoms: N_4  and  C_5 
REMARK    4  A    between atoms: C_9  and  C_10 
REMARK    5  A    between atoms: C_18  and  C_19 
REMARK    6  A    between atoms: C_22  and  O_23 
ROOT
HETATM    1  C   UNL     1      -7.976   1.463 -31.899  1.00  0.00     0.227 C 
HETATM    2  N   UNL     1      -6.665   1.582 -31.475  1.00  0.00    -0.312 N 
HETATM    3  O   UNL     1      -8.811   2.365 -31.796  1.00  0.00    -0.273 OA
HETATM    4  H   UNL     1      -6.030   0.798 -31.536  1.00  0.00     0.170 HD
ENDROOT
BRANCH   2   5
HETATM    5  C   UNL     1      -6.180   2.754 -30.928  1.00  0.00     0.126 A 
HETATM    6  N   UNL     1      -6.476   3.205 -29.671  1.00  0.00    -0.262 N 
HETATM    7  H   UNL     1      -7.056   2.736 -28.980  1.00  0.00     0.191 HD
HETATM    8  N   UNL     1      -5.945   4.410 -29.393  1.00  0.00    -0.172 NA
HETATM    9  C   UNL     1      -5.233   4.725 -30.488  1.00  0.00     0.092 A 
HETATM   10  C   UNL     1      -5.355   3.705 -31.475  1.00  0.00     0.084 A 
BRANCH   9  11
HETATM   11  C   UNL     1      -4.486   5.977 -30.579  1.00  0.00     0.012 A 
HETATM   12  C   UNL     1      -5.106   7.213 -30.420  1.00  0.00     0.130 A 
HETATM   13  N   UNL     1      -4.466   8.409 -30.472  1.00  0.00    -0.272 NA
HETATM   14  C   UNL     1      -3.136   8.370 -30.701  1.00  0.00     0.116 A 
HETATM   15  C   UNL     1      -2.420   7.198 -30.882  1.00  0.00     0.020 A 
HETATM   16  C   UNL     1      -3.109   5.987 -30.822  1.00  0.00     0.017 A 
ENDBRANCH   9  11
ENDBRANCH   2   5
BRANCH   1  17
HETATM   17  C   UNL     1      -8.312   0.174 -32.648  1.00  0.00     0.078 C 
HETATM   18  C   UNL     1      -9.834   0.056 -32.752  1.00  0.00     0.020 C 
BRANCH  17  19
HETATM   19  C   UNL     1      -7.675   0.036 -34.040  1.00  0.00     0.052 C 
BRANCH  19  20
HETATM   20  C   UNL     1      -6.622  -1.038 -34.166  1.00  0.00    -0.057 A 
HETATM   21  C   UNL     1      -5.301  -0.805 -33.768  1.00  0.00     0.010 A 
HETATM   22  C   UNL     1      -4.348  -1.823 -33.851  1.00  0.00     0.037 A 
HETATM   23  C   UNL     1      -4.695  -3.090 -34.321  1.00  0.00     0.068 A 
HETATM   24  C   UNL     1      -6.008  -3.330 -34.719  1.00  0.00     0.037 A 
HETATM   25  C   UNL     1      -6.966  -2.312 -34.639  1.00  0.00     0.010 A 
BRANCH  23  26
HETATM   26  O   UNL     1      -3.671  -3.996 -34.335  1.00  0.00    -0.356 OA
HETATM   27  C   UNL     1      -3.756  -5.078 -33.416  1.00  0.00     0.210 C 
ENDBRANCH  23  26
ENDBRANCH  19  20
ENDBRANCH  17  19
ENDBRANCH   1  17
TORSDOF 6
ENDMDL
