MODEL 1
REMARK VINA RESULT:      -9.3      0.000      0.000
REMARK  8 active torsions:
REMARK  status: ('A' for Active; 'I' for Inactive)
REMARK    1  A    between atoms: O_2  and  C_3 
REMARK    2  A    between atoms: C_10  and  C_11 
REMARK    3  A    between atoms: N_12  and  N_13 
REMARK       I    between atoms: N_13  and  C_14 
REMARK    4  A    between atoms: C_14  and  C_15 
REMARK    5  A    between atoms: N_16  and  C_17 
REMARK    6  A    between atoms: C_21  and  N_22 
REMARK    7  A    between atoms: C_25  and  C_26 
REMARK    8  A    between atoms: C_26  and  N_27 
ROOT
HETATM    1  C   UNL     1      -3.297   4.305 -33.205  1.00  0.00     0.154 A 
HETATM    2  N   UNL     1      -4.445   4.612 -33.943  1.00  0.00    -0.184 N 
HETATM    3  N   UNL     1      -4.133   5.602 -34.832  1.00  0.00    -0.058 NA
HETATM    4  N   UNL     1      -2.887   5.987 -34.651  1.00  0.00    -0.132 NA
HETATM    5  C   UNL     1      -2.358   5.230 -33.651  1.00  0.00     0.118 A 
ENDROOT
BRANCH   1   6
HETATM    6  C   UNL     1      -3.080   3.365 -32.128  1.00  0.00     0.271 C 
HETATM    7  N   UNL     1      -3.611   2.083 -32.264  1.00  0.00    -0.145 NA
HETATM    8  H   UNL     1      -4.430   2.028 -32.869  1.00  0.00     0.158 HD
HETATM    9  O   UNL     1      -2.332   3.679 -31.203  1.00  0.00    -0.271 OA
BRANCH   7  10
HETATM   10  N   UNL     1      -3.828   1.348 -31.137  1.00  0.00    -0.205 NA
HETATM   11  C   UNL     1      -4.622   0.313 -31.101  1.00  0.00     0.147 C 
BRANCH  11  12
HETATM   12  C   UNL     1      -5.529  -0.321 -32.093  1.00  0.00     0.019 A 
HETATM   13  C   UNL     1      -4.969  -1.234 -33.009  1.00  0.00     0.101 A 
HETATM   14  C   UNL     1      -5.760  -1.798 -34.024  1.00  0.00     0.069 A 
HETATM   15 CL   UNL     1      -5.093  -2.858 -35.213  1.00  0.00    -0.081 Cl
HETATM   16  C   UNL     1      -7.117  -1.495 -34.107  1.00  0.00     0.050 A 
HETATM   17  C   UNL     1      -7.677  -0.633 -33.172  1.00  0.00     0.036 A 
HETATM   18 CL   UNL     1      -9.349  -0.230 -33.271  1.00  0.00    -0.084 Cl
HETATM   19  C   UNL     1      -6.898  -0.060 -32.164  1.00  0.00     0.039 A 
BRANCH  13  20
HETATM   20  O   UNL     1      -3.628  -1.525 -32.944  1.00  0.00    -0.353 OA
HETATM   21  C   UNL     1      -3.382  -2.705 -32.169  1.00  0.00     0.210 C 
ENDBRANCH  13  20
ENDBRANCH  11  12
ENDBRANCH   7  10
ENDBRANCH   1   6
BRANCH   2  22
HETATM   22  C   UNL     1      -5.766   4.112 -33.854  1.00  0.00     0.230 A 
HETATM   23  N   UNL     1      -6.018   2.826 -34.087  1.00  0.00    -0.081 NA
HETATM   24  O   UNL     1      -7.395   2.708 -33.895  1.00  0.00    -0.103 OA
HETATM   25  N   UNL     1      -7.959   3.931 -33.560  1.00  0.00    -0.083 NA
HETATM   26  C   UNL     1      -6.950   4.800 -33.527  1.00  0.00     0.201 A 
BRANCH  26  27
HETATM   27  N   UNL     1      -7.082   6.100 -33.221  1.00  0.00    -0.379 N 
HETATM   28  H   UNL     1      -7.125   6.793 -33.964  1.00  0.00     0.158 HD
HETATM   29  H   UNL     1      -6.965   6.478 -32.285  1.00  0.00     0.158 HD
ENDBRANCH  26  27
ENDBRANCH   2  22
BRANCH   5  30
HETATM   30  C   UNL     1      -0.957   5.516 -33.211  1.00  0.00     0.298 C 
BRANCH  30  31
HETATM   31  N   UNL     1      -0.917   6.033 -31.768  1.00  0.00    -0.066 N 
HETATM   32  H   UNL     1      -1.663   5.498 -31.297  1.00  0.00     0.280 HD
HETATM   33  C   UNL     1       0.386   5.656 -31.106  1.00  0.00     0.235 C 
HETATM   34  C   UNL     1       0.371   5.922 -29.606  1.00  0.00     0.028 C 
HETATM   35  C   UNL     1       0.505   7.400 -29.262  1.00  0.00     0.002 C 
HETATM   36  C   UNL     1      -0.804   8.180 -29.247  1.00  0.00     0.002 C 
HETATM   37  C   UNL     1      -1.835   7.833 -30.315  1.00  0.00     0.028 C 
HETATM   38  C   UNL     1      -1.271   7.499 -31.689  1.00  0.00     0.235 C 
ENDBRANCH  30  31
ENDBRANCH   5  30
TORSDOF 8
ENDMDL
MODEL 2
REMARK VINA RESULT:      -8.9      1.300      2.499
REMARK  8 active torsions:
REMARK  status: ('A' for Active; 'I' for Inactive)
REMARK    1  A    between atoms: O_2  and  C_3 
REMARK    2  A    between atoms: C_10  and  C_11 
REMARK    3  A    between atoms: N_12  and  N_13 
REMARK       I    between atoms: N_13  and  C_14 
REMARK    4  A    between atoms: C_14  and  C_15 
REMARK    5  A    between atoms: N_16  and  C_17 
REMARK    6  A    between atoms: C_21  and  N_22 
REMARK    7  A    between atoms: C_25  and  C_26 
REMARK    8  A    between atoms: C_26  and  N_27 
ROOT
HETATM    1  C   UNL     1      -4.088   4.055 -33.090  1.00  0.00     0.154 A 
HETATM    2  N   UNL     1      -5.381   4.412 -33.486  1.00  0.00    -0.184 N 
HETATM    3  N   UNL     1      -5.288   5.204 -34.596  1.00  0.00    -0.058 NA
HETATM    4  N   UNL     1      -4.021   5.428 -34.878  1.00  0.00    -0.132 NA
HETATM    5  C   UNL     1      -3.266   4.760 -33.965  1.00  0.00     0.118 A 
ENDROOT
BRANCH   1   6
HETATM    6  C   UNL     1      -3.617   3.262 -31.976  1.00  0.00     0.271 C 
HETATM    7  N   UNL     1      -3.021   2.033 -32.255  1.00  0.00    -0.145 NA
HETATM    8  H   UNL     1      -3.327   1.604 -33.128  1.00  0.00     0.158 HD
HETATM    9  O   UNL     1      -3.637   3.749 -30.846  1.00  0.00    -0.271 OA
BRANCH   7  10
HETATM   10  N   UNL     1      -2.990   1.089 -31.272  1.00  0.00    -0.205 NA
HETATM   11  C   UNL     1      -3.617  -0.051 -31.357  1.00  0.00     0.147 C 
BRANCH  11  12
HETATM   12  C   UNL     1      -4.540  -0.644 -32.360  1.00  0.00     0.019 A 
HETATM   13  C   UNL     1      -5.822  -0.076 -32.494  1.00  0.00     0.101 A 
HETATM   14  C   UNL     1      -6.766  -0.649 -33.363  1.00  0.00     0.069 A 
HETATM   15 CL   UNL     1      -8.373  -0.029 -33.495  1.00  0.00    -0.081 Cl
HETATM   16  C   UNL     1      -6.428  -1.758 -34.135  1.00  0.00     0.050 A 
HETATM   17  C   UNL     1      -5.146  -2.285 -34.038  1.00  0.00     0.036 A 
HETATM   18 CL   UNL     1      -4.715  -3.669 -34.970  1.00  0.00    -0.084 Cl
HETATM   19  C   UNL     1      -4.203  -1.729 -33.171  1.00  0.00     0.039 A 
BRANCH  13  20
HETATM   20  O   UNL     1      -6.169   1.008 -31.724  1.00  0.00    -0.353 OA
HETATM   21  C   UNL     1      -6.828   0.607 -30.516  1.00  0.00     0.210 C 
ENDBRANCH  13  20
ENDBRANCH  11  12
ENDBRANCH   7  10
ENDBRANCH   1   6
BRANCH   2  22
HETATM   22  C   UNL     1      -6.641   4.125 -32.908  1.00  0.00     0.230 A 
HETATM   23  N   UNL     1      -7.565   3.461 -33.598  1.00  0.00    -0.081 NA
HETATM   24  O   UNL     1      -8.640   3.358 -32.715  1.00  0.00    -0.103 OA
HETATM   25  N   UNL     1      -8.354   3.974 -31.505  1.00  0.00    -0.083 NA
HETATM   26  C   UNL     1      -7.114   4.443 -31.621  1.00  0.00     0.201 A 
BRANCH  26  27
HETATM   27  N   UNL     1      -6.459   5.096 -30.648  1.00  0.00    -0.379 N 
HETATM   28  H   UNL     1      -5.560   4.750 -30.322  1.00  0.00     0.158 HD
HETATM   29  H   UNL     1      -6.874   5.824 -30.073  1.00  0.00     0.158 HD
ENDBRANCH  26  27
ENDBRANCH   2  22
BRANCH   5  30
HETATM   30  C   UNL     1      -1.779   4.902 -34.033  1.00  0.00     0.298 C 
BRANCH  30  31
HETATM   31  N   UNL     1      -1.268   5.944 -33.031  1.00  0.00    -0.066 N 
HETATM   32  H   UNL     1      -0.529   6.441 -33.551  1.00  0.00     0.280 HD
HETATM   33  C   UNL     1      -2.347   6.953 -32.720  1.00  0.00     0.235 C 
HETATM   34  C   UNL     1      -1.815   8.145 -31.934  1.00  0.00     0.028 C 
HETATM   35  C   UNL     1      -1.553   7.822 -30.468  1.00  0.00     0.002 C 
HETATM   36  C   UNL     1      -0.181   7.226 -30.175  1.00  0.00     0.002 C 
HETATM   37  C   UNL     1       0.381   6.236 -31.190  1.00  0.00     0.028 C 
HETATM   38  C   UNL     1      -0.636   5.295 -31.823  1.00  0.00     0.235 C 
ENDBRANCH  30  31
ENDBRANCH   5  30
TORSDOF 8
ENDMDL
MODEL 3
REMARK VINA RESULT:      -8.7      2.009      5.267
REMARK  8 active torsions:
REMARK  status: ('A' for Active; 'I' for Inactive)
REMARK    1  A    between atoms: O_2  and  C_3 
REMARK    2  A    between atoms: C_10  and  C_11 
REMARK    3  A    between atoms: N_12  and  N_13 
REMARK       I    between atoms: N_13  and  C_14 
REMARK    4  A    between atoms: C_14  and  C_15 
REMARK    5  A    between atoms: N_16  and  C_17 
REMARK    6  A    between atoms: C_21  and  N_22 
REMARK    7  A    between atoms: C_25  and  C_26 
REMARK    8  A    between atoms: C_26  and  N_27 
ROOT
HETATM    1  C   UNL     1      -4.726   4.373 -32.549  1.00  0.00     0.154 A 
HETATM    2  N   UNL     1      -3.606   5.056 -33.036  1.00  0.00    -0.184 N 
HETATM    3  N   UNL     1      -3.923   5.588 -34.254  1.00  0.00    -0.058 NA
HETATM    4  N   UNL     1      -5.141   5.223 -34.597  1.00  0.00    -0.132 NA
HETATM    5  C   UNL     1      -5.648   4.463 -33.589  1.00  0.00     0.118 A 
ENDROOT
BRANCH   1   6
HETATM    6  C   UNL     1      -4.926   3.614 -31.334  1.00  0.00     0.271 C 
HETATM    7  N   UNL     1      -4.291   2.378 -31.225  1.00  0.00    -0.145 NA
HETATM    8  H   UNL     1      -4.097   1.923 -32.117  1.00  0.00     0.158 HD
HETATM    9  O   UNL     1      -5.530   4.135 -30.398  1.00  0.00    -0.271 OA
BRANCH   7  10
HETATM   10  N   UNL     1      -4.797   1.464 -30.350  1.00  0.00    -0.205 NA
HETATM   11  C   UNL     1      -5.380   0.360 -30.727  1.00  0.00     0.147 C 
BRANCH  11  12
HETATM   12  C   UNL     1      -5.746  -0.208 -32.051  1.00  0.00     0.019 A 
HETATM   13  C   UNL     1      -4.957  -1.260 -32.558  1.00  0.00     0.101 A 
HETATM   14  C   UNL     1      -5.202  -1.778 -33.841  1.00  0.00     0.069 A 
HETATM   15 CL   UNL     1      -4.208  -3.012 -34.528  1.00  0.00    -0.081 Cl
HETATM   16  C   UNL     1      -6.256  -1.286 -34.607  1.00  0.00     0.050 A 
HETATM   17  C   UNL     1      -7.063  -0.283 -34.084  1.00  0.00     0.036 A 
HETATM   18 CL   UNL     1      -8.359   0.352 -35.025  1.00  0.00    -0.084 Cl
HETATM   19  C   UNL     1      -6.823   0.245 -32.813  1.00  0.00     0.039 A 
BRANCH  13  20
HETATM   20  O   UNL     1      -3.905  -1.740 -31.815  1.00  0.00    -0.353 OA
HETATM   21  C   UNL     1      -2.704  -1.000 -32.064  1.00  0.00     0.210 C 
ENDBRANCH  13  20
ENDBRANCH  11  12
ENDBRANCH   7  10
ENDBRANCH   1   6
BRANCH   2  22
HETATM   22  C   UNL     1      -2.305   5.203 -32.500  1.00  0.00     0.230 A 
HETATM   23  N   UNL     1      -1.765   4.236 -31.762  1.00  0.00    -0.081 NA
HETATM   24  O   UNL     1      -0.501   4.725 -31.432  1.00  0.00    -0.103 OA
HETATM   25  N   UNL     1      -0.299   5.990 -31.965  1.00  0.00    -0.083 NA
HETATM   26  C   UNL     1      -1.413   6.284 -32.632  1.00  0.00     0.201 A 
BRANCH  26  27
HETATM   27  N   UNL     1      -1.608   7.426 -33.311  1.00  0.00    -0.379 N 
HETATM   28  H   UNL     1      -0.841   8.083 -33.427  1.00  0.00     0.158 HD
HETATM   29  H   UNL     1      -2.523   7.780 -33.574  1.00  0.00     0.158 HD
ENDBRANCH  26  27
ENDBRANCH   2  22
BRANCH   5  30
HETATM   30  C   UNL     1      -7.010   3.870 -33.762  1.00  0.00     0.298 C 
BRANCH  30  31
HETATM   31  N   UNL     1      -7.876   4.080 -32.515  1.00  0.00    -0.066 N 
HETATM   32  H   UNL     1      -7.233   3.875 -31.735  1.00  0.00     0.280 HD
HETATM   33  C   UNL     1      -8.279   5.530 -32.388  1.00  0.00     0.235 C 
HETATM   34  C   UNL     1      -8.921   5.835 -31.040  1.00  0.00     0.028 C 
HETATM   35  C   UNL     1     -10.351   5.322 -30.931  1.00  0.00     0.002 C 
HETATM   36  C   UNL     1     -10.483   3.872 -30.480  1.00  0.00     0.002 C 
HETATM   37  C   UNL     1      -9.454   2.880 -31.011  1.00  0.00     0.028 C 
HETATM   38  C   UNL     1      -9.018   3.094 -32.454  1.00  0.00     0.235 C 
ENDBRANCH  30  31
ENDBRANCH   5  30
TORSDOF 8
ENDMDL
MODEL 4
REMARK VINA RESULT:      -8.6      3.669      7.679
REMARK  8 active torsions:
REMARK  status: ('A' for Active; 'I' for Inactive)
REMARK    1  A    between atoms: O_2  and  C_3 
REMARK    2  A    between atoms: C_10  and  C_11 
REMARK    3  A    between atoms: N_12  and  N_13 
REMARK       I    between atoms: N_13  and  C_14 
REMARK    4  A    between atoms: C_14  and  C_15 
REMARK    5  A    between atoms: N_16  and  C_17 
REMARK    6  A    between atoms: C_21  and  N_22 
REMARK    7  A    between atoms: C_25  and  C_26 
REMARK    8  A    between atoms: C_26  and  N_27 
ROOT
HETATM    1  C   UNL     1      -8.523   3.057 -33.735  1.00  0.00     0.154 A 
HETATM    2  N   UNL     1      -7.543   3.905 -33.206  1.00  0.00    -0.184 N 
HETATM    3  N   UNL     1      -8.001   5.191 -33.280  1.00  0.00    -0.058 NA
HETATM    4  N   UNL     1      -9.170   5.213 -33.885  1.00  0.00    -0.132 NA
HETATM    5  C   UNL     1      -9.505   3.931 -34.195  1.00  0.00     0.118 A 
ENDROOT
BRANCH   1   6
HETATM    6  C   UNL     1      -8.543   1.624 -33.922  1.00  0.00     0.271 C 
HETATM    7  N   UNL     1      -7.552   1.057 -34.723  1.00  0.00    -0.145 NA
HETATM    8  H   UNL     1      -7.168   1.686 -35.428  1.00  0.00     0.158 HD
HETATM    9  O   UNL     1      -9.338   0.947 -33.272  1.00  0.00    -0.271 OA
BRANCH   7  10
HETATM   10  N   UNL     1      -7.790  -0.162 -35.284  1.00  0.00    -0.205 NA
HETATM   11  C   UNL     1      -7.118  -1.236 -34.972  1.00  0.00     0.147 C 
BRANCH  11  12
HETATM   12  C   UNL     1      -5.955  -1.498 -34.085  1.00  0.00     0.019 A 
HETATM   13  C   UNL     1      -5.185  -2.653 -34.331  1.00  0.00     0.101 A 
HETATM   14  C   UNL     1      -4.127  -2.997 -33.472  1.00  0.00     0.069 A 
HETATM   15 CL   UNL     1      -3.212  -4.445 -33.695  1.00  0.00    -0.081 Cl
HETATM   16  C   UNL     1      -3.800  -2.176 -32.397  1.00  0.00     0.050 A 
HETATM   17  C   UNL     1      -4.528  -1.012 -32.187  1.00  0.00     0.036 A 
HETATM   18 CL   UNL     1      -4.151   0.006 -30.849  1.00  0.00    -0.084 Cl
HETATM   19  C   UNL     1      -5.588  -0.664 -33.028  1.00  0.00     0.039 A 
BRANCH  13  20
HETATM   20  O   UNL     1      -5.512  -3.477 -35.380  1.00  0.00    -0.353 OA
HETATM   21  C   UNL     1      -6.375  -4.543 -34.965  1.00  0.00     0.210 C 
ENDBRANCH  13  20
ENDBRANCH  11  12
ENDBRANCH   7  10
ENDBRANCH   1   6
BRANCH   2  22
HETATM   22  C   UNL     1      -6.249   3.627 -32.705  1.00  0.00     0.230 A 
HETATM   23  N   UNL     1      -5.363   2.970 -33.450  1.00  0.00    -0.081 NA
HETATM   24  O   UNL     1      -4.227   2.899 -32.644  1.00  0.00    -0.103 OA
HETATM   25  N   UNL     1      -4.447   3.504 -31.415  1.00  0.00    -0.083 NA
HETATM   26  C   UNL     1      -5.697   3.961 -31.454  1.00  0.00     0.201 A 
BRANCH  26  27
HETATM   27  N   UNL     1      -6.288   4.630 -30.452  1.00  0.00    -0.379 N 
HETATM   28  H   UNL     1      -5.755   4.873 -29.622  1.00  0.00     0.158 HD
HETATM   29  H   UNL     1      -7.293   4.764 -30.374  1.00  0.00     0.158 HD
ENDBRANCH  26  27
ENDBRANCH   2  22
BRANCH   5  30
HETATM   30  C   UNL     1     -10.774   3.691 -34.949  1.00  0.00     0.298 C 
BRANCH  30  31
HETATM   31  N   UNL     1     -11.757   2.841 -34.136  1.00  0.00    -0.066 N 
HETATM   32  H   UNL     1     -11.171   2.439 -33.388  1.00  0.00     0.280 HD
HETATM   33  C   UNL     1     -12.788   3.718 -33.468  1.00  0.00     0.235 C 
HETATM   34  C   UNL     1     -13.626   2.954 -32.451  1.00  0.00     0.028 C 
HETATM   35  C   UNL     1     -14.667   2.047 -33.097  1.00  0.00     0.002 C 
HETATM   36  C   UNL     1     -14.165   0.661 -33.481  1.00  0.00     0.002 C 
HETATM   37  C   UNL     1     -12.750   0.561 -34.040  1.00  0.00     0.028 C 
HETATM   38  C   UNL     1     -12.321   1.703 -34.952  1.00  0.00     0.235 C 
ENDBRANCH  30  31
ENDBRANCH   5  30
TORSDOF 8
ENDMDL
MODEL 5
REMARK VINA RESULT:      -8.6      2.601      4.127
REMARK  8 active torsions:
REMARK  status: ('A' for Active; 'I' for Inactive)
REMARK    1  A    between atoms: O_2  and  C_3 
REMARK    2  A    between atoms: C_10  and  C_11 
REMARK    3  A    between atoms: N_12  and  N_13 
REMARK       I    between atoms: N_13  and  C_14 
REMARK    4  A    between atoms: C_14  and  C_15 
REMARK    5  A    between atoms: N_16  and  C_17 
REMARK    6  A    between atoms: C_21  and  N_22 
REMARK    7  A    between atoms: C_25  and  C_26 
REMARK    8  A    between atoms: C_26  and  N_27 
ROOT
HETATM    1  C   UNL     1      -7.340   3.457 -33.651  1.00  0.00     0.154 A 
HETATM    2  N   UNL     1      -8.203   4.541 -33.849  1.00  0.00    -0.184 N 
HETATM    3  N   UNL     1      -7.539   5.687 -33.511  1.00  0.00    -0.058 NA
HETATM    4  N   UNL     1      -6.344   5.388 -33.044  1.00  0.00    -0.132 NA
HETATM    5  C   UNL     1      -6.202   4.036 -33.096  1.00  0.00     0.118 A 
ENDROOT
BRANCH   1   6
HETATM    6  C   UNL     1      -7.541   2.036 -33.825  1.00  0.00     0.271 C 
HETATM    7  N   UNL     1      -6.806   1.389 -34.818  1.00  0.00    -0.145 NA
HETATM    8  H   UNL     1      -6.522   1.991 -35.591  1.00  0.00     0.158 HD
HETATM    9  O   UNL     1      -8.241   1.429 -33.016  1.00  0.00    -0.271 OA
BRANCH   7  10
HETATM   10  N   UNL     1      -7.278   0.209 -35.310  1.00  0.00    -0.205 NA
HETATM   11  C   UNL     1      -6.793  -0.952 -34.969  1.00  0.00     0.147 C 
BRANCH  11  12
HETATM   12  C   UNL     1      -5.656  -1.379 -34.111  1.00  0.00     0.019 A 
HETATM   13  C   UNL     1      -5.083  -2.643 -34.356  1.00  0.00     0.101 A 
HETATM   14  C   UNL     1      -4.065  -3.136 -33.522  1.00  0.00     0.069 A 
HETATM   15 CL   UNL     1      -3.393  -4.711 -33.743  1.00  0.00    -0.081 Cl
HETATM   16  C   UNL     1      -3.581  -2.360 -32.472  1.00  0.00     0.050 A 
HETATM   17  C   UNL     1      -4.113  -1.093 -32.264  1.00  0.00     0.036 A 
HETATM   18 CL   UNL     1      -3.541  -0.127 -30.957  1.00  0.00    -0.084 Cl
HETATM   19  C   UNL     1      -5.132  -0.597 -33.081  1.00  0.00     0.039 A 
BRANCH  13  20
HETATM   20  O   UNL     1      -5.567  -3.421 -35.380  1.00  0.00    -0.353 OA
HETATM   21  C   UNL     1      -6.477  -4.418 -34.900  1.00  0.00     0.210 C 
ENDBRANCH  13  20
ENDBRANCH  11  12
ENDBRANCH   7  10
ENDBRANCH   1   6
BRANCH   2  22
HETATM   22  C   UNL     1      -9.555   4.586 -34.265  1.00  0.00     0.230 A 
HETATM   23  N   UNL     1      -9.900   5.242 -35.370  1.00  0.00    -0.081 NA
HETATM   24  O   UNL     1     -11.280   5.055 -35.460  1.00  0.00    -0.103 OA
HETATM   25  N   UNL     1     -11.752   4.297 -34.399  1.00  0.00    -0.083 NA
HETATM   26  C   UNL     1     -10.684   3.999 -33.662  1.00  0.00     0.201 A 
BRANCH  26  27
HETATM   27  N   UNL     1     -10.719   3.256 -32.545  1.00  0.00    -0.379 N 
HETATM   28  H   UNL     1     -10.109   2.449 -32.454  1.00  0.00     0.158 HD
HETATM   29  H   UNL     1     -11.445   3.329 -31.837  1.00  0.00     0.158 HD
ENDBRANCH  26  27
ENDBRANCH   2  22
BRANCH   5  30
HETATM   30  C   UNL     1      -4.942   3.434 -32.562  1.00  0.00     0.298 C 
BRANCH  30  31
HETATM   31  N   UNL     1      -3.796   4.452 -32.546  1.00  0.00    -0.066 N 
HETATM   32  H   UNL     1      -4.244   5.317 -32.203  1.00  0.00     0.280 HD
HETATM   33  C   UNL     1      -2.752   4.060 -31.528  1.00  0.00     0.235 C 
HETATM   34  C   UNL     1      -1.729   5.164 -31.294  1.00  0.00     0.028 C 
HETATM   35  C   UNL     1      -0.721   5.292 -32.430  1.00  0.00     0.002 C 
HETATM   36  C   UNL     1      -1.166   6.176 -33.589  1.00  0.00     0.002 C 
HETATM   37  C   UNL     1      -2.632   6.102 -34.000  1.00  0.00     0.028 C 
HETATM   38  C   UNL     1      -3.265   4.719 -33.933  1.00  0.00     0.235 C 
ENDBRANCH  30  31
ENDBRANCH   5  30
TORSDOF 8
ENDMDL
MODEL 6
REMARK VINA RESULT:      -8.5      2.699      6.721
REMARK  8 active torsions:
REMARK  status: ('A' for Active; 'I' for Inactive)
REMARK    1  A    between atoms: O_2  and  C_3 
REMARK    2  A    between atoms: C_10  and  C_11 
REMARK    3  A    between atoms: N_12  and  N_13 
REMARK       I    between atoms: N_13  and  C_14 
REMARK    4  A    between atoms: C_14  and  C_15 
REMARK    5  A    between atoms: N_16  and  C_17 
REMARK    6  A    between atoms: C_21  and  N_22 
REMARK    7  A    between atoms: C_25  and  C_26 
REMARK    8  A    between atoms: C_26  and  N_27 
ROOT
HETATM    1  C   UNL     1      -4.334   4.492 -32.342  1.00  0.00     0.154 A 
HETATM    2  N   UNL     1      -3.074   4.959 -32.730  1.00  0.00    -0.184 N 
HETATM    3  N   UNL     1      -2.245   3.883 -32.883  1.00  0.00    -0.058 NA
HETATM    4  N   UNL     1      -2.880   2.780 -32.545  1.00  0.00    -0.132 NA
HETATM    5  C   UNL     1      -4.148   3.121 -32.190  1.00  0.00     0.118 A 
ENDROOT
BRANCH   1   6
HETATM    6  C   UNL     1      -5.555   5.199 -32.023  1.00  0.00     0.271 C 
HETATM    7  N   UNL     1      -6.624   5.088 -32.910  1.00  0.00    -0.145 NA
HETATM    8  H   UNL     1      -6.355   4.889 -33.874  1.00  0.00     0.158 HD
HETATM    9  O   UNL     1      -5.654   5.757 -30.931  1.00  0.00    -0.271 OA
BRANCH   7  10
HETATM   10  N   UNL     1      -7.582   6.058 -32.898  1.00  0.00    -0.205 NA
HETATM   11  C   UNL     1      -8.846   5.817 -33.110  1.00  0.00     0.147 C 
BRANCH  11  12
HETATM   12  C   UNL     1      -9.612   4.598 -33.477  1.00  0.00     0.019 A 
HETATM   13  C   UNL     1      -9.442   3.448 -32.681  1.00  0.00     0.101 A 
HETATM   14  C   UNL     1     -10.073   2.242 -33.032  1.00  0.00     0.069 A 
HETATM   15 CL   UNL     1      -9.827   0.792 -32.126  1.00  0.00    -0.081 Cl
HETATM   16  C   UNL     1     -10.909   2.184 -34.144  1.00  0.00     0.050 A 
HETATM   17  C   UNL     1     -11.114   3.333 -34.898  1.00  0.00     0.036 A 
HETATM   18 CL   UNL     1     -12.128   3.275 -36.290  1.00  0.00    -0.084 Cl
HETATM   19  C   UNL     1     -10.485   4.535 -34.565  1.00  0.00     0.039 A 
BRANCH  13  20
HETATM   20  O   UNL     1      -8.607   3.493 -31.592  1.00  0.00    -0.353 OA
HETATM   21  C   UNL     1      -9.338   3.683 -30.374  1.00  0.00     0.210 C 
ENDBRANCH  13  20
ENDBRANCH  11  12
ENDBRANCH   7  10
ENDBRANCH   1   6
BRANCH   2  22
HETATM   22  C   UNL     1      -2.588   6.276 -32.914  1.00  0.00     0.230 A 
HETATM   23  N   UNL     1      -2.142   6.670 -34.104  1.00  0.00    -0.081 NA
HETATM   24  O   UNL     1      -1.770   8.000 -33.905  1.00  0.00    -0.103 OA
HETATM   25  N   UNL     1      -1.986   8.387 -32.590  1.00  0.00    -0.083 NA
HETATM   26  C   UNL     1      -2.499   7.322 -31.977  1.00  0.00     0.201 A 
BRANCH  26  27
HETATM   27  N   UNL     1      -2.865   7.297 -30.686  1.00  0.00    -0.379 N 
HETATM   28  H   UNL     1      -2.161   7.175 -29.963  1.00  0.00     0.158 HD
HETATM   29  H   UNL     1      -3.827   7.210 -30.370  1.00  0.00     0.158 HD
ENDBRANCH  26  27
ENDBRANCH   2  22
BRANCH   5  30
HETATM   30  C   UNL     1      -5.064   2.043 -31.704  1.00  0.00     0.298 C 
BRANCH  30  31
HETATM   31  N   UNL     1      -5.399   1.046 -32.819  1.00  0.00    -0.066 N 
HETATM   32  H   UNL     1      -4.634   1.177 -33.500  1.00  0.00     0.280 HD
HETATM   33  C   UNL     1      -5.302  -0.371 -32.310  1.00  0.00     0.235 C 
HETATM   34  C   UNL     1      -5.374  -1.397 -33.435  1.00  0.00     0.028 C 
HETATM   35  C   UNL     1      -6.785  -1.581 -33.983  1.00  0.00     0.002 C 
HETATM   36  C   UNL     1      -7.185  -0.597 -35.075  1.00  0.00     0.002 C 
HETATM   37  C   UNL     1      -6.708   0.844 -34.926  1.00  0.00     0.028 C 
HETATM   38  C   UNL     1      -6.700   1.390 -33.504  1.00  0.00     0.235 C 
ENDBRANCH  30  31
ENDBRANCH   5  30
TORSDOF 8
ENDMDL
MODEL 7
REMARK VINA RESULT:      -8.5      2.891      7.007
REMARK  8 active torsions:
REMARK  status: ('A' for Active; 'I' for Inactive)
REMARK    1  A    between atoms: O_2  and  C_3 
REMARK    2  A    between atoms: C_10  and  C_11 
REMARK    3  A    between atoms: N_12  and  N_13 
REMARK       I    between atoms: N_13  and  C_14 
REMARK    4  A    between atoms: C_14  and  C_15 
REMARK    5  A    between atoms: N_16  and  C_17 
REMARK    6  A    between atoms: C_21  and  N_22 
REMARK    7  A    between atoms: C_25  and  C_26 
REMARK    8  A    between atoms: C_26  and  N_27 
ROOT
HETATM    1  C   UNL     1      -4.833   3.591 -31.202  1.00  0.00     0.154 A 
HETATM    2  N   UNL     1      -3.731   4.445 -31.324  1.00  0.00    -0.184 N 
HETATM    3  N   UNL     1      -2.633   3.690 -31.626  1.00  0.00    -0.058 NA
HETATM    4  N   UNL     1      -2.957   2.414 -31.629  1.00  0.00    -0.132 NA
HETATM    5  C   UNL     1      -4.286   2.320 -31.351  1.00  0.00     0.118 A 
ENDROOT
BRANCH   1   6
HETATM    6  C   UNL     1      -6.215   3.860 -30.869  1.00  0.00     0.271 C 
HETATM    7  N   UNL     1      -7.020   4.441 -31.847  1.00  0.00    -0.145 NA
HETATM    8  H   UNL     1      -6.514   5.000 -32.534  1.00  0.00     0.158 HD
HETATM    9  O   UNL     1      -6.661   3.451 -29.798  1.00  0.00    -0.271 OA
BRANCH   7  10
HETATM   10  N   UNL     1      -8.140   5.110 -31.453  1.00  0.00    -0.205 NA
HETATM   11  C   UNL     1      -9.347   4.731 -31.768  1.00  0.00     0.147 C 
BRANCH  11  12
HETATM   12  C   UNL     1      -9.893   3.643 -32.620  1.00  0.00     0.019 A 
HETATM   13  C   UNL     1     -10.625   4.006 -33.768  1.00  0.00     0.101 A 
HETATM   14  C   UNL     1     -11.238   3.022 -34.562  1.00  0.00     0.069 A 
HETATM   15 CL   UNL     1     -12.208   3.433 -35.930  1.00  0.00    -0.081 Cl
HETATM   16  C   UNL     1     -11.090   1.674 -34.247  1.00  0.00     0.050 A 
HETATM   17  C   UNL     1     -10.325   1.315 -33.143  1.00  0.00     0.036 A 
HETATM   18 CL   UNL     1     -10.148  -0.347 -32.726  1.00  0.00    -0.084 Cl
HETATM   19  C   UNL     1      -9.719   2.286 -32.342  1.00  0.00     0.039 A 
BRANCH  13  20
HETATM   20  O   UNL     1     -10.789   5.335 -34.076  1.00  0.00    -0.353 OA
HETATM   21  C   UNL     1      -9.854   5.764 -35.074  1.00  0.00     0.210 C 
ENDBRANCH  13  20
ENDBRANCH  11  12
ENDBRANCH   7  10
ENDBRANCH   1   6
BRANCH   2  22
HETATM   22  C   UNL     1      -3.618   5.844 -31.140  1.00  0.00     0.230 A 
HETATM   23  N   UNL     1      -4.485   6.673 -31.717  1.00  0.00    -0.081 NA
HETATM   24  O   UNL     1      -4.070   7.940 -31.304  1.00  0.00    -0.103 OA
HETATM   25  N   UNL     1      -2.948   7.859 -30.492  1.00  0.00    -0.083 NA
HETATM   26  C   UNL     1      -2.671   6.561 -30.385  1.00  0.00     0.201 A 
BRANCH  26  27
HETATM   27  N   UNL     1      -1.657   6.062 -29.660  1.00  0.00    -0.379 N 
HETATM   28  H   UNL     1      -1.191   6.647 -28.971  1.00  0.00     0.158 HD
HETATM   29  H   UNL     1      -1.187   5.185 -29.869  1.00  0.00     0.158 HD
ENDBRANCH  26  27
ENDBRANCH   2  22
BRANCH   5  30
HETATM   30  C   UNL     1      -4.893   0.958 -31.237  1.00  0.00     0.298 C 
BRANCH  30  31
HETATM   31  N   UNL     1      -5.320   0.417 -32.607  1.00  0.00    -0.066 N 
HETATM   32  H   UNL     1      -4.591   0.771 -33.246  1.00  0.00     0.280 HD
HETATM   33  C   UNL     1      -5.238  -1.090 -32.630  1.00  0.00     0.235 C 
HETATM   34  C   UNL     1      -5.404  -1.656 -34.035  1.00  0.00     0.028 C 
HETATM   35  C   UNL     1      -6.847  -1.625 -34.523  1.00  0.00     0.002 C 
HETATM   36  C   UNL     1      -7.278  -0.317 -35.177  1.00  0.00     0.002 C 
HETATM   37  C   UNL     1      -6.750   0.976 -34.565  1.00  0.00     0.028 C 
HETATM   38  C   UNL     1      -6.646   0.990 -33.046  1.00  0.00     0.235 C 
ENDBRANCH  30  31
ENDBRANCH   5  30
TORSDOF 8
ENDMDL
MODEL 8
REMARK VINA RESULT:      -8.4      1.927      5.599
REMARK  8 active torsions:
REMARK  status: ('A' for Active; 'I' for Inactive)
REMARK    1  A    between atoms: O_2  and  C_3 
REMARK    2  A    between atoms: C_10  and  C_11 
REMARK    3  A    between atoms: N_12  and  N_13 
REMARK       I    between atoms: N_13  and  C_14 
REMARK    4  A    between atoms: C_14  and  C_15 
REMARK    5  A    between atoms: N_16  and  C_17 
REMARK    6  A    between atoms: C_21  and  N_22 
REMARK    7  A    between atoms: C_25  and  C_26 
REMARK    8  A    between atoms: C_26  and  N_27 
ROOT
HETATM    1  C   UNL     1      -4.492   4.335 -32.721  1.00  0.00     0.154 A 
HETATM    2  N   UNL     1      -3.317   4.994 -33.098  1.00  0.00    -0.184 N 
HETATM    3  N   UNL     1      -3.476   5.463 -34.372  1.00  0.00    -0.058 NA
HETATM    4  N   UNL     1      -4.644   5.079 -34.845  1.00  0.00    -0.132 NA
HETATM    5  C   UNL     1      -5.276   4.371 -33.870  1.00  0.00     0.118 A 
ENDROOT
BRANCH   1   6
HETATM    6  C   UNL     1      -4.845   3.639 -31.503  1.00  0.00     0.271 C 
HETATM    7  N   UNL     1      -4.190   2.441 -31.224  1.00  0.00    -0.145 NA
HETATM    8  H   UNL     1      -3.848   1.945 -32.047  1.00  0.00     0.158 HD
HETATM    9  O   UNL     1      -5.601   4.186 -30.701  1.00  0.00    -0.271 OA
BRANCH   7  10
HETATM   10  N   UNL     1      -4.789   1.556 -30.377  1.00  0.00    -0.205 NA
HETATM   11  C   UNL     1      -5.388   0.472 -30.783  1.00  0.00     0.147 C 
BRANCH  11  12
HETATM   12  C   UNL     1      -5.686  -0.097 -32.123  1.00  0.00     0.019 A 
HETATM   13  C   UNL     1      -6.800   0.410 -32.822  1.00  0.00     0.101 A 
HETATM   14  C   UNL     1      -7.180  -0.149 -34.054  1.00  0.00     0.069 A 
HETATM   15 CL   UNL     1      -8.584   0.392 -34.902  1.00  0.00    -0.081 Cl
HETATM   16  C   UNL     1      -6.434  -1.181 -34.618  1.00  0.00     0.050 A 
HETATM   17  C   UNL     1      -5.307  -1.645 -33.950  1.00  0.00     0.036 A 
HETATM   18 CL   UNL     1      -4.382  -2.934 -34.621  1.00  0.00    -0.084 Cl
HETATM   19  C   UNL     1      -4.924  -1.102 -32.721  1.00  0.00     0.039 A 
BRANCH  13  20
HETATM   20  O   UNL     1      -7.551   1.417 -32.266  1.00  0.00    -0.353 OA
HETATM   21  C   UNL     1      -8.743   0.908 -31.655  1.00  0.00     0.210 C 
ENDBRANCH  13  20
ENDBRANCH  11  12
ENDBRANCH   7  10
ENDBRANCH   1   6
BRANCH   2  22
HETATM   22  C   UNL     1      -2.091   5.171 -32.412  1.00  0.00     0.230 A 
HETATM   23  N   UNL     1      -1.644   4.236 -31.578  1.00  0.00    -0.081 NA
HETATM   24  O   UNL     1      -0.431   4.745 -31.114  1.00  0.00    -0.103 OA
HETATM   25  N   UNL     1      -0.168   5.991 -31.666  1.00  0.00    -0.083 NA
HETATM   26  C   UNL     1      -1.192   6.252 -32.476  1.00  0.00     0.201 A 
BRANCH  26  27
HETATM   27  N   UNL     1      -1.305   7.367 -33.216  1.00  0.00    -0.379 N 
HETATM   28  H   UNL     1      -2.182   7.881 -33.225  1.00  0.00     0.158 HD
HETATM   29  H   UNL     1      -0.631   7.650 -33.921  1.00  0.00     0.158 HD
ENDBRANCH  26  27
ENDBRANCH   2  22
BRANCH   5  30
HETATM   30  C   UNL     1      -6.609   3.768 -34.182  1.00  0.00     0.298 C 
BRANCH  30  31
HETATM   31  N   UNL     1      -7.723   4.404 -33.342  1.00  0.00    -0.066 N 
HETATM   32  H   UNL     1      -7.618   3.955 -32.418  1.00  0.00     0.280 HD
HETATM   33  C   UNL     1      -7.464   5.879 -33.149  1.00  0.00     0.235 C 
HETATM   34  C   UNL     1      -8.397   6.500 -32.116  1.00  0.00     0.028 C 
HETATM   35  C   UNL     1      -9.811   6.712 -32.643  1.00  0.00     0.002 C 
HETATM   36  C   UNL     1     -10.735   5.507 -32.511  1.00  0.00     0.002 C 
HETATM   37  C   UNL     1     -10.127   4.131 -32.761  1.00  0.00     0.028 C 
HETATM   38  C   UNL     1      -9.092   4.062 -33.876  1.00  0.00     0.235 C 
ENDBRANCH  30  31
ENDBRANCH   5  30
TORSDOF 8
ENDMDL
MODEL 9
REMARK VINA RESULT:      -8.2      3.647      8.243
REMARK  8 active torsions:
REMARK  status: ('A' for Active; 'I' for Inactive)
REMARK    1  A    between atoms: O_2  and  C_3 
REMARK    2  A    between atoms: C_10  and  C_11 
REMARK    3  A    between atoms: N_12  and  N_13 
REMARK       I    between atoms: N_13  and  C_14 
REMARK    4  A    between atoms: C_14  and  C_15 
REMARK    5  A    between atoms: N_16  and  C_17 
REMARK    6  A    between atoms: C_21  and  N_22 
REMARK    7  A    between atoms: C_25  and  C_26 
REMARK    8  A    between atoms: C_26  and  N_27 
ROOT
HETATM    1  C   UNL     1      -5.420   2.233 -31.678  1.00  0.00     0.154 A 
HETATM    2  N   UNL     1      -6.357   2.408 -30.655  1.00  0.00    -0.184 N 
HETATM    3  N   UNL     1      -6.261   1.348 -29.797  1.00  0.00    -0.058 NA
HETATM    4  N   UNL     1      -5.378   0.484 -30.254  1.00  0.00    -0.132 NA
HETATM    5  C   UNL     1      -4.864   0.985 -31.411  1.00  0.00     0.118 A 
ENDROOT
BRANCH   1   6
HETATM    6  C   UNL     1      -5.123   3.034 -32.845  1.00  0.00     0.271 C 
HETATM    7  N   UNL     1      -3.886   3.675 -32.900  1.00  0.00    -0.145 NA
HETATM    8  H   UNL     1      -3.478   3.882 -31.988  1.00  0.00     0.158 HD
HETATM    9  O   UNL     1      -5.903   3.015 -33.797  1.00  0.00    -0.271 OA
BRANCH   7  10
HETATM   10  N   UNL     1      -3.753   4.761 -33.713  1.00  0.00    -0.205 NA
HETATM   11  C   UNL     1      -2.910   5.729 -33.481  1.00  0.00     0.147 C 
BRANCH  11  12
HETATM   12  C   UNL     1      -1.971   6.028 -32.369  1.00  0.00     0.019 A 
HETATM   13  C   UNL     1      -2.258   7.133 -31.542  1.00  0.00     0.101 A 
HETATM   14  C   UNL     1      -1.361   7.516 -30.530  1.00  0.00     0.069 A 
HETATM   15 CL   UNL     1      -1.639   8.910 -29.549  1.00  0.00    -0.081 Cl
HETATM   16  C   UNL     1      -0.201   6.779 -30.305  1.00  0.00     0.050 A 
HETATM   17  C   UNL     1       0.055   5.661 -31.089  1.00  0.00     0.036 A 
HETATM   18 CL   UNL     1       1.495   4.749 -30.839  1.00  0.00    -0.084 Cl
HETATM   19  C   UNL     1      -0.825   5.276 -32.103  1.00  0.00     0.039 A 
BRANCH  13  20
HETATM   20  O   UNL     1      -3.392   7.874 -31.768  1.00  0.00    -0.353 OA
HETATM   21  C   UNL     1      -4.475   7.449 -30.931  1.00  0.00     0.210 C 
ENDBRANCH  13  20
ENDBRANCH  11  12
ENDBRANCH   7  10
ENDBRANCH   1   6
BRANCH   2  22
HETATM   22  C   UNL     1      -7.328   3.417 -30.449  1.00  0.00     0.230 A 
HETATM   23  N   UNL     1      -6.960   4.686 -30.293  1.00  0.00    -0.081 NA
HETATM   24  O   UNL     1      -8.163   5.373 -30.132  1.00  0.00    -0.103 OA
HETATM   25  N   UNL     1      -9.245   4.505 -30.181  1.00  0.00    -0.083 NA
HETATM   26  C   UNL     1      -8.729   3.294 -30.384  1.00  0.00     0.201 A 
BRANCH  26  27
HETATM   27  N   UNL     1      -9.457   2.173 -30.508  1.00  0.00    -0.379 N 
HETATM   28  H   UNL     1     -10.403   2.223 -30.878  1.00  0.00     0.158 HD
HETATM   29  H   UNL     1      -9.203   1.282 -30.092  1.00  0.00     0.158 HD
ENDBRANCH  26  27
ENDBRANCH   2  22
BRANCH   5  30
HETATM   30  C   UNL     1      -3.873   0.157 -32.164  1.00  0.00     0.298 C 
BRANCH  30  31
HETATM   31  N   UNL     1      -4.549  -0.653 -33.276  1.00  0.00    -0.066 N 
HETATM   32  H   UNL     1      -4.235  -0.188 -34.142  1.00  0.00     0.280 HD
HETATM   33  C   UNL     1      -4.007  -2.062 -33.309  1.00  0.00     0.235 C 
HETATM   34  C   UNL     1      -4.456  -2.826 -34.549  1.00  0.00     0.028 C 
HETATM   35  C   UNL     1      -5.910  -3.277 -34.477  1.00  0.00     0.002 C 
HETATM   36  C   UNL     1      -6.929  -2.245 -34.945  1.00  0.00     0.002 C 
HETATM   37  C   UNL     1      -6.662  -0.787 -34.585  1.00  0.00     0.028 C 
HETATM   38  C   UNL     1      -6.053  -0.551 -33.208  1.00  0.00     0.235 C 
ENDBRANCH  30  31
ENDBRANCH   5  30
TORSDOF 8
ENDMDL
MODEL 10
REMARK VINA RESULT:      -8.1      4.027      8.547
REMARK  8 active torsions:
REMARK  status: ('A' for Active; 'I' for Inactive)
REMARK    1  A    between atoms: O_2  and  C_3 
REMARK    2  A    between atoms: C_10  and  C_11 
REMARK    3  A    between atoms: N_12  and  N_13 
REMARK       I    between atoms: N_13  and  C_14 
REMARK    4  A    between atoms: C_14  and  C_15 
REMARK    5  A    between atoms: N_16  and  C_17 
REMARK    6  A    between atoms: C_21  and  N_22 
REMARK    7  A    between atoms: C_25  and  C_26 
REMARK    8  A    between atoms: C_26  and  N_27 
ROOT
HETATM    1  C   UNL     1      -6.385   0.217 -33.669  1.00  0.00     0.154 A 
HETATM    2  N   UNL     1      -6.221  -1.004 -34.332  1.00  0.00    -0.184 N 
HETATM    3  N   UNL     1      -7.142  -1.073 -35.340  1.00  0.00    -0.058 NA
HETATM    4  N   UNL     1      -7.920  -0.011 -35.306  1.00  0.00    -0.132 NA
HETATM    5  C   UNL     1      -7.498   0.783 -34.284  1.00  0.00     0.118 A 
ENDROOT
BRANCH   1   6
HETATM    6  C   UNL     1      -5.701   0.780 -32.525  1.00  0.00     0.271 C 
HETATM    7  N   UNL     1      -4.458   1.373 -32.736  1.00  0.00    -0.145 NA
HETATM    8  H   UNL     1      -3.949   1.011 -33.543  1.00  0.00     0.158 HD
HETATM    9  O   UNL     1      -6.289   0.835 -31.446  1.00  0.00    -0.271 OA
BRANCH   7  10
HETATM   10  N   UNL     1      -3.607   1.490 -31.678  1.00  0.00    -0.205 NA
HETATM   11  C   UNL     1      -3.102   2.629 -31.290  1.00  0.00     0.147 C 
BRANCH  11  12
HETATM   12  C   UNL     1      -3.173   4.017 -31.816  1.00  0.00     0.019 A 
HETATM   13  C   UNL     1      -4.412   4.685 -31.749  1.00  0.00     0.101 A 
HETATM   14  C   UNL     1      -4.559   5.965 -32.310  1.00  0.00     0.069 A 
HETATM   15 CL   UNL     1      -6.081   6.783 -32.317  1.00  0.00    -0.081 Cl
HETATM   16  C   UNL     1      -3.471   6.605 -32.897  1.00  0.00     0.050 A 
HETATM   17  C   UNL     1      -2.238   5.964 -32.916  1.00  0.00     0.036 A 
HETATM   18 CL   UNL     1      -0.885   6.731 -33.657  1.00  0.00    -0.084 Cl
HETATM   19  C   UNL     1      -2.082   4.688 -32.370  1.00  0.00     0.039 A 
BRANCH  13  20
HETATM   20  O   UNL     1      -5.494   4.055 -31.185  1.00  0.00    -0.353 OA
HETATM   21  C   UNL     1      -5.668   4.431 -29.814  1.00  0.00     0.210 C 
ENDBRANCH  13  20
ENDBRANCH  11  12
ENDBRANCH   7  10
ENDBRANCH   1   6
BRANCH   2  22
HETATM   22  C   UNL     1      -5.343  -2.085 -34.080  1.00  0.00     0.230 A 
HETATM   23  N   UNL     1      -4.265  -1.916 -33.319  1.00  0.00    -0.081 NA
HETATM   24  O   UNL     1      -3.668  -3.177 -33.289  1.00  0.00    -0.103 OA
HETATM   25  N   UNL     1      -4.390  -4.090 -34.045  1.00  0.00    -0.083 NA
HETATM   26  C   UNL     1      -5.431  -3.416 -34.530  1.00  0.00     0.201 A 
BRANCH  26  27
HETATM   27  N   UNL     1      -6.385  -3.956 -35.304  1.00  0.00    -0.379 N 
HETATM   28  H   UNL     1      -6.756  -3.430 -36.091  1.00  0.00     0.158 HD
HETATM   29  H   UNL     1      -6.907  -4.794 -35.063  1.00  0.00     0.158 HD
ENDBRANCH  26  27
ENDBRANCH   2  22
BRANCH   5  30
HETATM   30  C   UNL     1      -8.263   2.035 -33.997  1.00  0.00     0.298 C 
BRANCH  30  31
HETATM   31  N   UNL     1      -9.753   1.869 -34.318  1.00  0.00    -0.066 N 
HETATM   32  H   UNL     1      -9.754   1.311 -35.186  1.00  0.00     0.280 HD
HETATM   33  C   UNL     1     -10.434   1.038 -33.257  1.00  0.00     0.235 C 
HETATM   34  C   UNL     1     -11.846   0.631 -33.659  1.00  0.00     0.028 C 
HETATM   35  C   UNL     1     -12.848   1.775 -33.551  1.00  0.00     0.002 C 
HETATM   36  C   UNL     1     -12.934   2.674 -34.779  1.00  0.00     0.002 C 
HETATM   37  C   UNL     1     -11.631   2.991 -35.504  1.00  0.00     0.028 C 
HETATM   38  C   UNL     1     -10.414   3.194 -34.610  1.00  0.00     0.235 C 
ENDBRANCH  30  31
ENDBRANCH   5  30
TORSDOF 8
ENDMDL
