MODEL 1
REMARK VINA RESULT:      -8.8      0.000      0.000
REMARK  9 active torsions:
REMARK  status: ('A' for Active; 'I' for Inactive)
REMARK    1  A    between atoms: C_4  and  C_5 
REMARK    2  A    between atoms: C_8  and  C_9 
REMARK       I    between atoms: C_9  and  N_10 
REMARK    3  A    between atoms: N_10  and  C_26 
REMARK    4  A    between atoms: N_10  and  C_11 
REMARK    5  A    between atoms: C_11  and  C_12 
REMARK    6  A    between atoms: C_11  and  C_21 
REMARK       I    between atoms: C_12  and  N_13 
REMARK    7  A    between atoms: N_13  and  C_14 
REMARK    8  A    between atoms: C_14  and  C_15 
REMARK    9  A    between atoms: C_26  and  C_27 
ROOT
HETATM    1  C   UNL     1      -5.640   1.788 -31.139  1.00  0.00     0.271 C 
HETATM    2  N   UNL     1      -6.565   2.709 -31.658  1.00  0.00    -0.324 N 
HETATM    3  O   UNL     1      -5.386   1.778 -29.933  1.00  0.00    -0.266 OA
ENDROOT
BRANCH   2   4
HETATM    4  C   UNL     1      -7.170   3.639 -30.698  1.00  0.00     0.173 C 
BRANCH   4   5
HETATM    5  C   UNL     1      -6.495   4.976 -30.704  1.00  0.00     0.000 A 
HETATM    6  S   UNL     1      -7.423   6.407 -30.893  1.00  0.00    -0.105 SA
HETATM    7  C   UNL     1      -6.048   7.405 -30.705  1.00  0.00     0.050 A 
HETATM    8  C   UNL     1      -4.905   6.672 -30.485  1.00  0.00     0.008 A 
HETATM    9  C   UNL     1      -5.162   5.270 -30.482  1.00  0.00     0.017 A 
ENDBRANCH   4   5
ENDBRANCH   2   4
BRANCH   2  10
HETATM   10  C   UNL     1      -6.952   2.801 -33.082  1.00  0.00     0.220 C 
BRANCH  10  11
HETATM   11  C   UNL     1      -6.324   4.043 -33.766  1.00  0.00     0.245 C 
HETATM   12  N   UNL     1      -4.971   4.103 -33.964  1.00  0.00    -0.357 N 
HETATM   13  H   UNL     1      -4.377   3.465 -33.448  1.00  0.00     0.162 HD
HETATM   14  O   UNL     1      -7.060   4.921 -34.243  1.00  0.00    -0.271 OA
BRANCH  12  15
HETATM   15  C   UNL     1      -4.328   5.271 -34.546  1.00  0.00     0.154 C 
BRANCH  15  16
HETATM   16  C   UNL     1      -2.798   5.157 -34.516  1.00  0.00     0.139 C 
HETATM   17  O   UNL     1      -2.223   6.478 -34.393  1.00  0.00    -0.384 OA
HETATM   18  C   UNL     1      -1.148   6.395 -33.451  1.00  0.00     0.168 C 
HETATM   19  C   UNL     1      -1.580   5.343 -32.460  1.00  0.00     0.029 C 
HETATM   20  C   UNL     1      -2.278   4.333 -33.341  1.00  0.00     0.035 C 
ENDBRANCH  15  16
ENDBRANCH  12  15
ENDBRANCH  10  11
BRANCH  10  21
HETATM   21  C   UNL     1      -8.422   2.476 -33.309  1.00  0.00     0.014 A 
HETATM   22  S   UNL     1      -9.718   3.584 -33.142  1.00  0.00    -0.104 SA
HETATM   23  C   UNL     1     -10.889   2.418 -33.561  1.00  0.00     0.050 A 
HETATM   24  C   UNL     1     -10.322   1.194 -33.823  1.00  0.00     0.008 A 
HETATM   25  C   UNL     1      -8.908   1.227 -33.677  1.00  0.00     0.017 A 
ENDBRANCH  10  21
ENDBRANCH   2  10
BRANCH   1  26
HETATM   26  C   UNL     1      -5.043   0.777 -31.996  1.00  0.00     0.101 C 
HETATM   27  N   UNL     1      -5.683  -0.227 -32.691  1.00  0.00    -0.351 N 
HETATM   28  C   UNL     1      -4.777  -1.080 -33.289  1.00  0.00     0.043 C 
HETATM   29  H   UNL     1      -6.689  -0.369 -32.686  1.00  0.00     0.166 HD
HETATM   30  C   UNL     1      -3.545  -0.457 -33.167  1.00  0.00     0.033 C 
HETATM   31  C   UNL     1      -3.715   0.707 -32.382  1.00  0.00     0.037 C 
BRANCH  28  32
HETATM   32  C   UNL     1      -5.141  -2.369 -33.900  1.00  0.00    -0.009 A 
HETATM   33  C   UNL     1      -6.399  -2.589 -34.479  1.00  0.00     0.013 A 
HETATM   34  C   UNL     1      -6.738  -3.838 -35.011  1.00  0.00     0.001 A 
HETATM   35  C   UNL     1      -5.823  -4.887 -34.977  1.00  0.00     0.000 A 
HETATM   36  C   UNL     1      -4.567  -4.687 -34.414  1.00  0.00     0.001 A 
HETATM   37  C   UNL     1      -4.231  -3.438 -33.880  1.00  0.00     0.013 A 
ENDBRANCH  28  32
ENDBRANCH   1  26
TORSDOF 9
ENDMDL
MODEL 2
REMARK VINA RESULT:      -8.3      1.708      2.513
REMARK  9 active torsions:
REMARK  status: ('A' for Active; 'I' for Inactive)
REMARK    1  A    between atoms: C_4  and  C_5 
REMARK    2  A    between atoms: C_8  and  C_9 
REMARK       I    between atoms: C_9  and  N_10 
REMARK    3  A    between atoms: N_10  and  C_26 
REMARK    4  A    between atoms: N_10  and  C_11 
REMARK    5  A    between atoms: C_11  and  C_12 
REMARK    6  A    between atoms: C_11  and  C_21 
REMARK       I    between atoms: C_12  and  N_13 
REMARK    7  A    between atoms: N_13  and  C_14 
REMARK    8  A    between atoms: C_14  and  C_15 
REMARK    9  A    between atoms: C_26  and  C_27 
ROOT
HETATM    1  C   UNL     1      -5.310   1.668 -30.803  1.00  0.00     0.271 C 
HETATM    2  N   UNL     1      -5.688   2.966 -31.183  1.00  0.00    -0.324 N 
HETATM    3  O   UNL     1      -5.459   1.296 -29.637  1.00  0.00    -0.266 OA
ENDROOT
BRANCH   2   4
HETATM    4  C   UNL     1      -6.236   3.824 -30.126  1.00  0.00     0.173 C 
BRANCH   4   5
HETATM    5  C   UNL     1      -7.729   3.919 -30.194  1.00  0.00     0.000 A 
HETATM    6  S   UNL     1      -8.495   5.455 -30.167  1.00  0.00    -0.105 SA
HETATM    7  C   UNL     1     -10.044   4.762 -30.364  1.00  0.00     0.050 A 
HETATM    8  C   UNL     1      -9.986   3.391 -30.467  1.00  0.00     0.008 A 
HETATM    9  C   UNL     1      -8.651   2.904 -30.370  1.00  0.00     0.017 A 
ENDBRANCH   4   5
ENDBRANCH   2   4
BRANCH   2  10
HETATM   10  C   UNL     1      -5.565   3.511 -32.552  1.00  0.00     0.220 C 
BRANCH  10  11
HETATM   11  C   UNL     1      -4.520   4.656 -32.620  1.00  0.00     0.245 C 
HETATM   12  N   UNL     1      -3.197   4.362 -32.813  1.00  0.00    -0.357 N 
HETATM   13  H   UNL     1      -2.884   3.410 -32.663  1.00  0.00     0.162 HD
HETATM   14  O   UNL     1      -4.899   5.836 -32.622  1.00  0.00    -0.271 OA
BRANCH  12  15
HETATM   15  C   UNL     1      -2.172   5.394 -32.824  1.00  0.00     0.154 C 
BRANCH  15  16
HETATM   16  C   UNL     1      -1.627   5.676 -31.418  1.00  0.00     0.139 C 
HETATM   17  O   UNL     1      -0.697   4.631 -31.047  1.00  0.00    -0.384 OA
HETATM   18  C   UNL     1       0.422   5.256 -30.410  1.00  0.00     0.168 C 
HETATM   19  C   UNL     1       0.565   6.591 -31.096  1.00  0.00     0.029 C 
HETATM   20  C   UNL     1      -0.873   7.000 -31.317  1.00  0.00     0.035 C 
ENDBRANCH  15  16
ENDBRANCH  12  15
ENDBRANCH  10  11
BRANCH  10  21
HETATM   21  C   UNL     1      -6.913   3.678 -33.238  1.00  0.00     0.014 A 
HETATM   22  S   UNL     1      -7.926   2.396 -33.755  1.00  0.00    -0.104 SA
HETATM   23  C   UNL     1      -9.115   3.457 -34.359  1.00  0.00     0.050 A 
HETATM   24  C   UNL     1      -8.763   4.774 -34.184  1.00  0.00     0.008 A 
HETATM   25  C   UNL     1      -7.500   4.901 -33.542  1.00  0.00     0.017 A 
ENDBRANCH  10  21
ENDBRANCH   2  10
BRANCH   1  26
HETATM   26  C   UNL     1      -4.827   0.718 -31.792  1.00  0.00     0.101 C 
HETATM   27  N   UNL     1      -5.551  -0.242 -32.466  1.00  0.00    -0.351 N 
HETATM   28  C   UNL     1      -4.728  -1.049 -33.227  1.00  0.00     0.043 C 
HETATM   29  H   UNL     1      -6.548  -0.390 -32.345  1.00  0.00     0.166 HD
HETATM   30  C   UNL     1      -3.490  -0.427 -33.219  1.00  0.00     0.033 C 
HETATM   31  C   UNL     1      -3.557   0.681 -32.345  1.00  0.00     0.037 C 
BRANCH  28  32
HETATM   32  C   UNL     1      -5.168  -2.297 -33.871  1.00  0.00    -0.009 A 
HETATM   33  C   UNL     1      -6.446  -2.434 -34.433  1.00  0.00     0.013 A 
HETATM   34  C   UNL     1      -6.857  -3.646 -34.998  1.00  0.00     0.001 A 
HETATM   35  C   UNL     1      -5.997  -4.741 -35.013  1.00  0.00     0.000 A 
HETATM   36  C   UNL     1      -4.724  -4.623 -34.467  1.00  0.00     0.001 A 
HETATM   37  C   UNL     1      -4.315  -3.411 -33.902  1.00  0.00     0.013 A 
ENDBRANCH  28  32
ENDBRANCH   1  26
TORSDOF 9
ENDMDL
MODEL 3
REMARK VINA RESULT:      -8.0      2.163      3.341
REMARK  9 active torsions:
REMARK  status: ('A' for Active; 'I' for Inactive)
REMARK    1  A    between atoms: C_4  and  C_5 
REMARK    2  A    between atoms: C_8  and  C_9 
REMARK       I    between atoms: C_9  and  N_10 
REMARK    3  A    between atoms: N_10  and  C_26 
REMARK    4  A    between atoms: N_10  and  C_11 
REMARK    5  A    between atoms: C_11  and  C_12 
REMARK    6  A    between atoms: C_11  and  C_21 
REMARK       I    between atoms: C_12  and  N_13 
REMARK    7  A    between atoms: N_13  and  C_14 
REMARK    8  A    between atoms: C_14  and  C_15 
REMARK    9  A    between atoms: C_26  and  C_27 
ROOT
HETATM    1  C   UNL     1      -8.805   1.328 -32.295  1.00  0.00     0.271 C 
HETATM    2  N   UNL     1      -8.910   2.714 -32.504  1.00  0.00    -0.324 N 
HETATM    3  O   UNL     1      -9.272   0.819 -31.274  1.00  0.00    -0.266 OA
ENDROOT
BRANCH   2   4
HETATM    4  C   UNL     1      -9.575   3.486 -31.448  1.00  0.00     0.173 C 
BRANCH   4   5
HETATM    5  C   UNL     1      -8.599   4.254 -30.610  1.00  0.00     0.000 A 
HETATM    6  S   UNL     1      -7.470   3.419 -29.622  1.00  0.00    -0.105 SA
HETATM    7  C   UNL     1      -6.729   4.875 -29.121  1.00  0.00     0.050 A 
HETATM    8  C   UNL     1      -7.312   5.977 -29.704  1.00  0.00     0.008 A 
HETATM    9  C   UNL     1      -8.389   5.619 -30.565  1.00  0.00     0.017 A 
ENDBRANCH   4   5
ENDBRANCH   2   4
BRANCH   2  10
HETATM   10  C   UNL     1      -8.398   3.427 -33.694  1.00  0.00     0.220 C 
BRANCH  10  11
HETATM   11  C   UNL     1      -6.916   3.848 -33.514  1.00  0.00     0.245 C 
HETATM   12  N   UNL     1      -6.086   3.103 -32.720  1.00  0.00    -0.357 N 
HETATM   13  H   UNL     1      -6.499   2.443 -32.072  1.00  0.00     0.162 HD
HETATM   14  O   UNL     1      -6.457   4.784 -34.185  1.00  0.00    -0.271 OA
BRANCH  12  15
HETATM   15  C   UNL     1      -4.706   3.490 -32.472  1.00  0.00     0.154 C 
BRANCH  15  16
HETATM   16  C   UNL     1      -3.753   2.289 -32.540  1.00  0.00     0.139 C 
HETATM   17  O   UNL     1      -3.108   2.116 -31.257  1.00  0.00    -0.384 OA
HETATM   18  C   UNL     1      -3.090   0.715 -30.968  1.00  0.00     0.168 C 
HETATM   19  C   UNL     1      -4.354   0.173 -31.587  1.00  0.00     0.029 C 
HETATM   20  C   UNL     1      -4.462   0.975 -32.863  1.00  0.00     0.035 C 
ENDBRANCH  15  16
ENDBRANCH  12  15
ENDBRANCH  10  11
BRANCH  10  21
HETATM   21  C   UNL     1      -9.403   4.422 -34.256  1.00  0.00     0.014 A 
HETATM   22  S   UNL     1      -9.375   6.115 -33.989  1.00  0.00    -0.104 SA
HETATM   23  C   UNL     1     -10.771   6.379 -34.931  1.00  0.00     0.050 A 
HETATM   24  C   UNL     1     -11.270   5.206 -35.446  1.00  0.00     0.008 A 
HETATM   25  C   UNL     1     -10.487   4.085 -35.058  1.00  0.00     0.017 A 
ENDBRANCH  10  21
ENDBRANCH   2  10
BRANCH   1  26
HETATM   26  C   UNL     1      -8.231   0.468 -33.317  1.00  0.00     0.101 C 
HETATM   27  N   UNL     1      -7.719  -0.802 -33.162  1.00  0.00    -0.351 N 
HETATM   28  C   UNL     1      -7.136  -1.254 -34.329  1.00  0.00     0.043 C 
HETATM   29  H   UNL     1      -7.697  -1.301 -32.278  1.00  0.00     0.166 HD
HETATM   30  C   UNL     1      -7.506  -0.342 -35.305  1.00  0.00     0.033 C 
HETATM   31  C   UNL     1      -8.203   0.716 -34.679  1.00  0.00     0.037 C 
BRANCH  28  32
HETATM   32  C   UNL     1      -6.306  -2.466 -34.417  1.00  0.00    -0.009 A 
HETATM   33  C   UNL     1      -4.944  -2.462 -34.082  1.00  0.00     0.013 A 
HETATM   34  C   UNL     1      -4.165  -3.616 -34.219  1.00  0.00     0.001 A 
HETATM   35  C   UNL     1      -4.736  -4.795 -34.690  1.00  0.00     0.000 A 
HETATM   36  C   UNL     1      -6.086  -4.822 -35.021  1.00  0.00     0.001 A 
HETATM   37  C   UNL     1      -6.862  -3.667 -34.886  1.00  0.00     0.013 A 
ENDBRANCH  28  32
ENDBRANCH   1  26
TORSDOF 9
ENDMDL
MODEL 4
REMARK VINA RESULT:      -7.9      2.065      6.206
REMARK  9 active torsions:
REMARK  status: ('A' for Active; 'I' for Inactive)
REMARK    1  A    between atoms: C_4  and  C_5 
REMARK    2  A    between atoms: C_8  and  C_9 
REMARK       I    between atoms: C_9  and  N_10 
REMARK    3  A    between atoms: N_10  and  C_26 
REMARK    4  A    between atoms: N_10  and  C_11 
REMARK    5  A    between atoms: C_11  and  C_12 
REMARK    6  A    between atoms: C_11  and  C_21 
REMARK       I    between atoms: C_12  and  N_13 
REMARK    7  A    between atoms: N_13  and  C_14 
REMARK    8  A    between atoms: C_14  and  C_15 
REMARK    9  A    between atoms: C_26  and  C_27 
ROOT
HETATM    1  C   UNL     1      -5.042   4.444 -33.938  1.00  0.00     0.271 C 
HETATM    2  N   UNL     1      -4.056   4.021 -33.031  1.00  0.00    -0.324 N 
HETATM    3  O   UNL     1      -4.720   4.871 -35.048  1.00  0.00    -0.266 OA
ENDROOT
BRANCH   2   4
HETATM    4  C   UNL     1      -2.663   4.139 -33.477  1.00  0.00     0.173 C 
BRANCH   4   5
HETATM    5  C   UNL     1      -2.010   5.386 -32.966  1.00  0.00     0.000 A 
HETATM    6  S   UNL     1      -0.899   5.301 -31.660  1.00  0.00    -0.105 SA
HETATM    7  C   UNL     1      -0.563   6.975 -31.748  1.00  0.00     0.050 A 
HETATM    8  C   UNL     1      -1.265   7.589 -32.760  1.00  0.00     0.008 A 
HETATM    9  C   UNL     1      -2.098   6.672 -33.464  1.00  0.00     0.017 A 
ENDBRANCH   4   5
ENDBRANCH   2   4
BRANCH   2  10
HETATM   10  C   UNL     1      -4.329   3.482 -31.681  1.00  0.00     0.220 C 
BRANCH  10  11
HETATM   11  C   UNL     1      -4.881   2.034 -31.745  1.00  0.00     0.245 C 
HETATM   12  N   UNL     1      -4.068   1.010 -32.150  1.00  0.00    -0.357 N 
HETATM   13  H   UNL     1      -3.207   1.238 -32.634  1.00  0.00     0.162 HD
HETATM   14  O   UNL     1      -6.017   1.789 -31.311  1.00  0.00    -0.271 OA
BRANCH  12  15
HETATM   15  C   UNL     1      -4.554  -0.354 -32.284  1.00  0.00     0.154 C 
BRANCH  15  16
HETATM   16  C   UNL     1      -4.903  -0.698 -33.738  1.00  0.00     0.139 C 
HETATM   17  O   UNL     1      -4.610  -2.093 -33.983  1.00  0.00    -0.384 OA
HETATM   18  C   UNL     1      -5.689  -2.632 -34.752  1.00  0.00     0.168 C 
HETATM   19  C   UNL     1      -6.913  -1.885 -34.284  1.00  0.00     0.029 C 
HETATM   20  C   UNL     1      -6.378  -0.487 -34.070  1.00  0.00     0.035 C 
ENDBRANCH  15  16
ENDBRANCH  12  15
ENDBRANCH  10  11
BRANCH  10  21
HETATM   21  C   UNL     1      -4.992   4.504 -30.768  1.00  0.00     0.014 A 
HETATM   22  S   UNL     1      -4.563   6.159 -30.659  1.00  0.00    -0.104 SA
HETATM   23  C   UNL     1      -5.749   6.483 -29.478  1.00  0.00     0.050 A 
HETATM   24  C   UNL     1      -6.470   5.359 -29.153  1.00  0.00     0.008 A 
HETATM   25  C   UNL     1      -6.034   4.223 -29.892  1.00  0.00     0.017 A 
ENDBRANCH  10  21
ENDBRANCH   2  10
BRANCH   1  26
HETATM   26  C   UNL     1      -6.452   4.297 -33.618  1.00  0.00     0.101 C 
HETATM   27  N   UNL     1      -7.195   3.136 -33.584  1.00  0.00    -0.351 N 
HETATM   28  C   UNL     1      -8.534   3.403 -33.374  1.00  0.00     0.043 C 
HETATM   29  H   UNL     1      -6.816   2.214 -33.778  1.00  0.00     0.166 HD
HETATM   30  C   UNL     1      -8.594   4.743 -33.028  1.00  0.00     0.033 C 
HETATM   31  C   UNL     1      -7.299   5.293 -33.159  1.00  0.00     0.037 C 
BRANCH  28  32
HETATM   32  C   UNL     1      -9.603   2.401 -33.518  1.00  0.00    -0.009 A 
HETATM   33  C   UNL     1     -10.787   2.672 -34.220  1.00  0.00     0.013 A 
HETATM   34  C   UNL     1     -11.808   1.719 -34.303  1.00  0.00     0.001 A 
HETATM   35  C   UNL     1     -11.662   0.479 -33.688  1.00  0.00     0.000 A 
HETATM   36  C   UNL     1     -10.493   0.188 -32.994  1.00  0.00     0.001 A 
HETATM   37  C   UNL     1      -9.474   1.142 -32.910  1.00  0.00     0.013 A 
ENDBRANCH  28  32
ENDBRANCH   1  26
TORSDOF 9
ENDMDL
MODEL 5
REMARK VINA RESULT:      -7.7      2.440      4.224
REMARK  9 active torsions:
REMARK  status: ('A' for Active; 'I' for Inactive)
REMARK    1  A    between atoms: C_4  and  C_5 
REMARK    2  A    between atoms: C_8  and  C_9 
REMARK       I    between atoms: C_9  and  N_10 
REMARK    3  A    between atoms: N_10  and  C_26 
REMARK    4  A    between atoms: N_10  and  C_11 
REMARK    5  A    between atoms: C_11  and  C_12 
REMARK    6  A    between atoms: C_11  and  C_21 
REMARK       I    between atoms: C_12  and  N_13 
REMARK    7  A    between atoms: N_13  and  C_14 
REMARK    8  A    between atoms: C_14  and  C_15 
REMARK    9  A    between atoms: C_26  and  C_27 
ROOT
HETATM    1  C   UNL     1      -8.921   1.390 -32.414  1.00  0.00     0.271 C 
HETATM    2  N   UNL     1      -8.988   2.785 -32.571  1.00  0.00    -0.324 N 
HETATM    3  O   UNL     1      -9.477   0.848 -31.457  1.00  0.00    -0.266 OA
ENDROOT
BRANCH   2   4
HETATM    4  C   UNL     1      -9.724   3.525 -31.540  1.00  0.00     0.173 C 
BRANCH   4   5
HETATM    5  C   UNL     1     -11.169   3.699 -31.894  1.00  0.00     0.000 A 
HETATM    6  S   UNL     1     -12.000   5.130 -31.435  1.00  0.00    -0.105 SA
HETATM    7  C   UNL     1     -13.430   4.634 -32.227  1.00  0.00     0.050 A 
HETATM    8  C   UNL     1     -13.281   3.414 -32.845  1.00  0.00     0.008 A 
HETATM    9  C   UNL     1     -11.976   2.875 -32.655  1.00  0.00     0.017 A 
ENDBRANCH   4   5
ENDBRANCH   2   4
BRANCH   2  10
HETATM   10  C   UNL     1      -8.369   3.536 -33.684  1.00  0.00     0.220 C 
BRANCH  10  11
HETATM   11  C   UNL     1      -6.865   3.810 -33.423  1.00  0.00     0.245 C 
HETATM   12  N   UNL     1      -6.252   3.265 -32.328  1.00  0.00    -0.357 N 
HETATM   13  H   UNL     1      -6.830   2.903 -31.578  1.00  0.00     0.162 HD
HETATM   14  O   UNL     1      -6.195   4.418 -34.271  1.00  0.00    -0.271 OA
BRANCH  12  15
HETATM   15  C   UNL     1      -4.860   3.541 -32.007  1.00  0.00     0.154 C 
BRANCH  15  16
HETATM   16  C   UNL     1      -3.948   2.354 -32.345  1.00  0.00     0.139 C 
HETATM   17  O   UNL     1      -3.116   2.049 -31.202  1.00  0.00    -0.384 OA
HETATM   18  C   UNL     1      -3.075   0.625 -31.067  1.00  0.00     0.168 C 
HETATM   19  C   UNL     1      -4.428   0.150 -31.535  1.00  0.00     0.029 C 
HETATM   20  C   UNL     1      -4.718   1.081 -32.689  1.00  0.00     0.035 C 
ENDBRANCH  15  16
ENDBRANCH  12  15
ENDBRANCH  10  11
BRANCH  10  21
HETATM   21  C   UNL     1      -9.263   4.656 -34.200  1.00  0.00     0.014 A 
HETATM   22  S   UNL     1     -10.466   4.484 -35.409  1.00  0.00    -0.104 SA
HETATM   23  C   UNL     1     -10.908   6.128 -35.331  1.00  0.00     0.050 A 
HETATM   24  C   UNL     1     -10.158   6.818 -34.408  1.00  0.00     0.008 A 
HETATM   25  C   UNL     1      -9.214   5.973 -33.760  1.00  0.00     0.017 A 
ENDBRANCH  10  21
ENDBRANCH   2  10
BRANCH   1  26
HETATM   26  C   UNL     1      -8.279   0.562 -33.421  1.00  0.00     0.101 C 
HETATM   27  N   UNL     1      -7.802  -0.723 -33.280  1.00  0.00    -0.351 N 
HETATM   28  C   UNL     1      -7.132  -1.138 -34.415  1.00  0.00     0.043 C 
HETATM   29  H   UNL     1      -7.860  -1.259 -32.419  1.00  0.00     0.166 HD
HETATM   30  C   UNL     1      -7.406  -0.179 -35.377  1.00  0.00     0.033 C 
HETATM   31  C   UNL     1      -8.136   0.866 -34.765  1.00  0.00     0.037 C 
BRANCH  28  32
HETATM   32  C   UNL     1      -6.317  -2.361 -34.487  1.00  0.00    -0.009 A 
HETATM   33  C   UNL     1      -6.869  -3.605 -34.824  1.00  0.00     0.013 A 
HETATM   34  C   UNL     1      -6.081  -4.762 -34.840  1.00  0.00     0.001 A 
HETATM   35  C   UNL     1      -4.728  -4.693 -34.522  1.00  0.00     0.000 A 
HETATM   36  C   UNL     1      -4.160  -3.467 -34.192  1.00  0.00     0.001 A 
HETATM   37  C   UNL     1      -4.949  -2.313 -34.175  1.00  0.00     0.013 A 
ENDBRANCH  28  32
ENDBRANCH   1  26
TORSDOF 9
ENDMDL
MODEL 6
REMARK VINA RESULT:      -7.7      1.850      5.142
REMARK  9 active torsions:
REMARK  status: ('A' for Active; 'I' for Inactive)
REMARK    1  A    between atoms: C_4  and  C_5 
REMARK    2  A    between atoms: C_8  and  C_9 
REMARK       I    between atoms: C_9  and  N_10 
REMARK    3  A    between atoms: N_10  and  C_26 
REMARK    4  A    between atoms: N_10  and  C_11 
REMARK    5  A    between atoms: C_11  and  C_12 
REMARK    6  A    between atoms: C_11  and  C_21 
REMARK       I    between atoms: C_12  and  N_13 
REMARK    7  A    between atoms: N_13  and  C_14 
REMARK    8  A    between atoms: C_14  and  C_15 
REMARK    9  A    between atoms: C_26  and  C_27 
ROOT
HETATM    1  C   UNL     1      -5.756   1.964 -30.543  1.00  0.00     0.271 C 
HETATM    2  N   UNL     1      -6.198   3.246 -30.911  1.00  0.00    -0.324 N 
HETATM    3  O   UNL     1      -5.931   1.555 -29.393  1.00  0.00    -0.266 OA
ENDROOT
BRANCH   2   4
HETATM    4  C   UNL     1      -6.842   4.042 -29.861  1.00  0.00     0.173 C 
BRANCH   4   5
HETATM    5  C   UNL     1      -8.304   4.241 -30.120  1.00  0.00     0.000 A 
HETATM    6  S   UNL     1      -8.907   5.806 -30.489  1.00  0.00    -0.105 SA
HETATM    7  C   UNL     1     -10.492   5.214 -30.724  1.00  0.00     0.050 A 
HETATM    8  C   UNL     1     -10.566   3.851 -30.545  1.00  0.00     0.008 A 
HETATM    9  C   UNL     1      -9.304   3.289 -30.198  1.00  0.00     0.017 A 
ENDBRANCH   4   5
ENDBRANCH   2   4
BRANCH   2  10
HETATM   10  C   UNL     1      -6.051   3.831 -32.261  1.00  0.00     0.220 C 
BRANCH  10  11
HETATM   11  C   UNL     1      -6.903   3.070 -33.310  1.00  0.00     0.245 C 
HETATM   12  N   UNL     1      -8.233   3.364 -33.452  1.00  0.00    -0.357 N 
HETATM   13  H   UNL     1      -8.696   3.885 -32.717  1.00  0.00     0.162 HD
HETATM   14  O   UNL     1      -6.353   2.288 -34.099  1.00  0.00    -0.271 OA
BRANCH  12  15
HETATM   15  C   UNL     1      -9.088   2.638 -34.379  1.00  0.00     0.154 C 
BRANCH  15  16
HETATM   16  C   UNL     1     -10.527   2.524 -33.860  1.00  0.00     0.139 C 
HETATM   17  O   UNL     1     -11.315   3.615 -34.390  1.00  0.00    -0.384 OA
HETATM   18  C   UNL     1     -12.582   3.081 -34.785  1.00  0.00     0.168 C 
HETATM   19  C   UNL     1     -12.285   1.679 -35.255  1.00  0.00     0.029 C 
HETATM   20  C   UNL     1     -11.219   1.229 -34.282  1.00  0.00     0.035 C 
ENDBRANCH  15  16
ENDBRANCH  12  15
ENDBRANCH  10  11
BRANCH  10  21
HETATM   21  C   UNL     1      -4.610   4.201 -32.583  1.00  0.00     0.014 A 
HETATM   22  S   UNL     1      -3.416   4.629 -31.430  1.00  0.00    -0.104 SA
HETATM   23  C   UNL     1      -2.218   4.858 -32.620  1.00  0.00     0.050 A 
HETATM   24  C   UNL     1      -2.701   4.623 -33.886  1.00  0.00     0.008 A 
HETATM   25  C   UNL     1      -4.072   4.247 -33.864  1.00  0.00     0.017 A 
ENDBRANCH  10  21
ENDBRANCH   2  10
BRANCH   1  26
HETATM   26  C   UNL     1      -5.173   1.071 -31.531  1.00  0.00     0.101 C 
HETATM   27  N   UNL     1      -5.814   0.112 -32.284  1.00  0.00    -0.351 N 
HETATM   28  C   UNL     1      -4.913  -0.636 -33.017  1.00  0.00     0.043 C 
HETATM   29  H   UNL     1      -6.811  -0.076 -32.237  1.00  0.00     0.166 HD
HETATM   30  C   UNL     1      -3.702   0.029 -32.904  1.00  0.00     0.033 C 
HETATM   31  C   UNL     1      -3.869   1.100 -31.998  1.00  0.00     0.037 C 
BRANCH  28  32
HETATM   32  C   UNL     1      -5.262  -1.874 -33.733  1.00  0.00    -0.009 A 
HETATM   33  C   UNL     1      -6.548  -2.101 -34.244  1.00  0.00     0.013 A 
HETATM   34  C   UNL     1      -6.868  -3.306 -34.879  1.00  0.00     0.001 A 
HETATM   35  C   UNL     1      -5.906  -4.302 -35.018  1.00  0.00     0.000 A 
HETATM   36  C   UNL     1      -4.623  -4.094 -34.525  1.00  0.00     0.001 A 
HETATM   37  C   UNL     1      -4.306  -2.890 -33.888  1.00  0.00     0.013 A 
ENDBRANCH  28  32
ENDBRANCH   1  26
TORSDOF 9
ENDMDL
MODEL 7
REMARK VINA RESULT:      -7.6      2.444      4.687
REMARK  9 active torsions:
REMARK  status: ('A' for Active; 'I' for Inactive)
REMARK    1  A    between atoms: C_4  and  C_5 
REMARK    2  A    between atoms: C_8  and  C_9 
REMARK       I    between atoms: C_9  and  N_10 
REMARK    3  A    between atoms: N_10  and  C_26 
REMARK    4  A    between atoms: N_10  and  C_11 
REMARK    5  A    between atoms: C_11  and  C_12 
REMARK    6  A    between atoms: C_11  and  C_21 
REMARK       I    between atoms: C_12  and  N_13 
REMARK    7  A    between atoms: N_13  and  C_14 
REMARK    8  A    between atoms: C_14  and  C_15 
REMARK    9  A    between atoms: C_26  and  C_27 
ROOT
HETATM    1  C   UNL     1      -7.331   3.400 -33.232  1.00  0.00     0.271 C 
HETATM    2  N   UNL     1      -6.837   4.035 -32.081  1.00  0.00    -0.324 N 
HETATM    3  O   UNL     1      -7.516   4.046 -34.265  1.00  0.00    -0.266 OA
ENDROOT
BRANCH   2   4
HETATM    4  C   UNL     1      -6.584   5.476 -32.187  1.00  0.00     0.173 C 
BRANCH   4   5
HETATM    5  C   UNL     1      -5.202   5.772 -32.684  1.00  0.00     0.000 A 
HETATM    6  S   UNL     1      -4.071   6.559 -31.661  1.00  0.00    -0.105 SA
HETATM    7  C   UNL     1      -2.830   6.443 -32.830  1.00  0.00     0.050 A 
HETATM    8  C   UNL     1      -3.255   5.803 -33.972  1.00  0.00     0.008 A 
HETATM    9  C   UNL     1      -4.624   5.415 -33.887  1.00  0.00     0.017 A 
ENDBRANCH   4   5
ENDBRANCH   2   4
BRANCH   2  10
HETATM   10  C   UNL     1      -6.568   3.357 -30.795  1.00  0.00     0.220 C 
BRANCH  10  11
HETATM   11  C   UNL     1      -6.636   4.345 -29.601  1.00  0.00     0.245 C 
HETATM   12  N   UNL     1      -5.516   4.590 -28.853  1.00  0.00    -0.357 N 
HETATM   13  H   UNL     1      -4.734   3.949 -28.925  1.00  0.00     0.162 HD
HETATM   14  O   UNL     1      -7.668   5.003 -29.406  1.00  0.00    -0.271 OA
BRANCH  12  15
HETATM   15  C   UNL     1      -5.542   5.461 -27.688  1.00  0.00     0.154 C 
BRANCH  15  16
HETATM   16  C   UNL     1      -4.705   6.729 -27.903  1.00  0.00     0.139 C 
HETATM   17  O   UNL     1      -5.564   7.797 -28.364  1.00  0.00    -0.384 OA
HETATM   18  C   UNL     1      -5.183   8.989 -27.669  1.00  0.00     0.168 C 
HETATM   19  C   UNL     1      -4.733   8.519 -26.308  1.00  0.00     0.029 C 
HETATM   20  C   UNL     1      -4.024   7.224 -26.629  1.00  0.00     0.035 C 
ENDBRANCH  15  16
ENDBRANCH  12  15
ENDBRANCH  10  11
BRANCH  10  21
HETATM   21  C   UNL     1      -5.418   2.363 -30.888  1.00  0.00     0.014 A 
HETATM   22  S   UNL     1      -3.883   2.688 -31.578  1.00  0.00    -0.104 SA
HETATM   23  C   UNL     1      -3.306   1.116 -31.259  1.00  0.00     0.050 A 
HETATM   24  C   UNL     1      -4.255   0.337 -30.641  1.00  0.00     0.008 A 
HETATM   25  C   UNL     1      -5.467   1.052 -30.430  1.00  0.00     0.017 A 
ENDBRANCH  10  21
ENDBRANCH   2  10
BRANCH   1  26
HETATM   26  C   UNL     1      -7.542   1.961 -33.250  1.00  0.00     0.101 C 
HETATM   27  N   UNL     1      -6.606   0.973 -33.465  1.00  0.00    -0.351 N 
HETATM   28  C   UNL     1      -7.200  -0.272 -33.544  1.00  0.00     0.043 C 
HETATM   29  H   UNL     1      -5.621   1.150 -33.631  1.00  0.00     0.166 HD
HETATM   30  C   UNL     1      -8.509  -0.085 -33.129  1.00  0.00     0.033 C 
HETATM   31  C   UNL     1      -8.715   1.299 -32.926  1.00  0.00     0.037 C 
BRANCH  28  32
HETATM   32  C   UNL     1      -6.503  -1.487 -33.995  1.00  0.00    -0.009 A 
HETATM   33  C   UNL     1      -7.194  -2.598 -34.500  1.00  0.00     0.013 A 
HETATM   34  C   UNL     1      -6.512  -3.760 -34.878  1.00  0.00     0.001 A 
HETATM   35  C   UNL     1      -5.126  -3.829 -34.760  1.00  0.00     0.000 A 
HETATM   36  C   UNL     1      -4.422  -2.736 -34.268  1.00  0.00     0.001 A 
HETATM   37  C   UNL     1      -5.106  -1.576 -33.889  1.00  0.00     0.013 A 
ENDBRANCH  28  32
ENDBRANCH   1  26
TORSDOF 9
ENDMDL
MODEL 8
REMARK VINA RESULT:      -7.6      1.651      2.147
REMARK  9 active torsions:
REMARK  status: ('A' for Active; 'I' for Inactive)
REMARK    1  A    between atoms: C_4  and  C_5 
REMARK    2  A    between atoms: C_8  and  C_9 
REMARK       I    between atoms: C_9  and  N_10 
REMARK    3  A    between atoms: N_10  and  C_26 
REMARK    4  A    between atoms: N_10  and  C_11 
REMARK    5  A    between atoms: C_11  and  C_12 
REMARK    6  A    between atoms: C_11  and  C_21 
REMARK       I    between atoms: C_12  and  N_13 
REMARK    7  A    between atoms: N_13  and  C_14 
REMARK    8  A    between atoms: C_14  and  C_15 
REMARK    9  A    between atoms: C_26  and  C_27 
ROOT
HETATM    1  C   UNL     1      -6.718   2.578 -31.016  1.00  0.00     0.271 C 
HETATM    2  N   UNL     1      -7.378   3.598 -31.722  1.00  0.00    -0.324 N 
HETATM    3  O   UNL     1      -6.896   2.450 -29.803  1.00  0.00    -0.266 OA
ENDROOT
BRANCH   2   4
HETATM    4  C   UNL     1      -8.249   4.479 -30.937  1.00  0.00     0.173 C 
BRANCH   4   5
HETATM    5  C   UNL     1      -7.570   5.763 -30.569  1.00  0.00     0.000 A 
HETATM    6  S   UNL     1      -6.431   5.796 -29.286  1.00  0.00    -0.105 SA
HETATM    7  C   UNL     1      -6.078   7.447 -29.551  1.00  0.00     0.050 A 
HETATM    8  C   UNL     1      -6.796   7.965 -30.604  1.00  0.00     0.008 A 
HETATM    9  C   UNL     1      -7.656   6.993 -31.193  1.00  0.00     0.017 A 
ENDBRANCH   4   5
ENDBRANCH   2   4
BRANCH   2  10
HETATM   10  C   UNL     1      -7.248   3.835 -33.176  1.00  0.00     0.220 C 
BRANCH  10  11
HETATM   11  C   UNL     1      -5.972   4.652 -33.509  1.00  0.00     0.245 C 
HETATM   12  N   UNL     1      -5.156   5.087 -32.500  1.00  0.00    -0.357 N 
HETATM   13  H   UNL     1      -5.515   5.088 -31.552  1.00  0.00     0.162 HD
HETATM   14  O   UNL     1      -5.630   4.804 -34.691  1.00  0.00    -0.271 OA
BRANCH  12  15
HETATM   15  C   UNL     1      -3.982   5.907 -32.756  1.00  0.00     0.154 C 
BRANCH  15  16
HETATM   16  C   UNL     1      -2.961   5.818 -31.614  1.00  0.00     0.139 C 
HETATM   17  O   UNL     1      -2.032   4.743 -31.886  1.00  0.00    -0.384 OA
HETATM   18  C   UNL     1      -0.722   5.210 -31.550  1.00  0.00     0.168 C 
HETATM   19  C   UNL     1      -0.740   6.684 -31.866  1.00  0.00     0.029 C 
HETATM   20  C   UNL     1      -2.134   7.090 -31.445  1.00  0.00     0.035 C 
ENDBRANCH  15  16
ENDBRANCH  12  15
ENDBRANCH  10  11
BRANCH  10  21
HETATM   21  C   UNL     1      -8.573   4.203 -33.829  1.00  0.00     0.014 A 
HETATM   22  S   UNL     1      -9.850   3.109 -34.161  1.00  0.00    -0.104 SA
HETATM   23  C   UNL     1     -10.835   4.322 -34.840  1.00  0.00     0.050 A 
HETATM   24  C   UNL     1     -10.217   5.550 -34.829  1.00  0.00     0.008 A 
HETATM   25  C   UNL     1      -8.919   5.481 -34.250  1.00  0.00     0.017 A 
ENDBRANCH  10  21
ENDBRANCH   2  10
BRANCH   1  26
HETATM   26  C   UNL     1      -5.893   1.608 -31.717  1.00  0.00     0.101 C 
HETATM   27  N   UNL     1      -6.310   0.566 -32.517  1.00  0.00    -0.351 N 
HETATM   28  C   UNL     1      -5.247  -0.227 -32.902  1.00  0.00     0.043 C 
HETATM   29  H   UNL     1      -7.283   0.361 -32.721  1.00  0.00     0.166 HD
HETATM   30  C   UNL     1      -4.110   0.473 -32.533  1.00  0.00     0.033 C 
HETATM   31  C   UNL     1      -4.512   1.623 -31.816  1.00  0.00     0.037 C 
BRANCH  28  32
HETATM   32  C   UNL     1      -5.394  -1.536 -33.560  1.00  0.00    -0.009 A 
HETATM   33  C   UNL     1      -4.313  -2.414 -33.720  1.00  0.00     0.013 A 
HETATM   34  C   UNL     1      -4.469  -3.633 -34.391  1.00  0.00     0.001 A 
HETATM   35  C   UNL     1      -5.709  -3.995 -34.909  1.00  0.00     0.000 A 
HETATM   36  C   UNL     1      -6.795  -3.141 -34.754  1.00  0.00     0.001 A 
HETATM   37  C   UNL     1      -6.637  -1.923 -34.086  1.00  0.00     0.013 A 
ENDBRANCH  28  32
ENDBRANCH   1  26
TORSDOF 9
ENDMDL
MODEL 9
REMARK VINA RESULT:      -7.6      2.089      5.221
REMARK  9 active torsions:
REMARK  status: ('A' for Active; 'I' for Inactive)
REMARK    1  A    between atoms: C_4  and  C_5 
REMARK    2  A    between atoms: C_8  and  C_9 
REMARK       I    between atoms: C_9  and  N_10 
REMARK    3  A    between atoms: N_10  and  C_26 
REMARK    4  A    between atoms: N_10  and  C_11 
REMARK    5  A    between atoms: C_11  and  C_12 
REMARK    6  A    between atoms: C_11  and  C_21 
REMARK       I    between atoms: C_12  and  N_13 
REMARK    7  A    between atoms: N_13  and  C_14 
REMARK    8  A    between atoms: C_14  and  C_15 
REMARK    9  A    between atoms: C_26  and  C_27 
ROOT
HETATM    1  C   UNL     1      -3.547   3.346 -31.237  1.00  0.00     0.271 C 
HETATM    2  N   UNL     1      -4.240   4.533 -30.945  1.00  0.00    -0.324 N 
HETATM    3  O   UNL     1      -2.321   3.360 -31.360  1.00  0.00    -0.266 OA
ENDROOT
BRANCH   2   4
HETATM    4  C   UNL     1      -3.430   5.750 -30.821  1.00  0.00     0.173 C 
BRANCH   4   5
HETATM    5  C   UNL     1      -2.780   6.131 -32.116  1.00  0.00     0.000 A 
HETATM    6  S   UNL     1      -1.143   6.646 -32.137  1.00  0.00    -0.105 SA
HETATM    7  C   UNL     1      -1.138   6.782 -33.841  1.00  0.00     0.050 A 
HETATM    8  C   UNL     1      -2.348   6.428 -34.390  1.00  0.00     0.008 A 
HETATM    9  C   UNL     1      -3.296   6.051 -33.396  1.00  0.00     0.017 A 
ENDBRANCH   4   5
ENDBRANCH   2   4
BRANCH   2  10
HETATM   10  C   UNL     1      -5.705   4.630 -30.766  1.00  0.00     0.220 C 
BRANCH  10  11
HETATM   11  C   UNL     1      -6.459   4.449 -32.109  1.00  0.00     0.245 C 
HETATM   12  N   UNL     1      -7.359   3.428 -32.255  1.00  0.00    -0.357 N 
HETATM   13  H   UNL     1      -7.341   2.666 -31.587  1.00  0.00     0.162 HD
HETATM   14  O   UNL     1      -6.336   5.299 -33.003  1.00  0.00    -0.271 OA
BRANCH  12  15
HETATM   15  C   UNL     1      -8.046   3.180 -33.513  1.00  0.00     0.154 C 
BRANCH  15  16
HETATM   16  C   UNL     1      -9.517   2.798 -33.297  1.00  0.00     0.139 C 
HETATM   17  O   UNL     1     -10.105   2.424 -34.564  1.00  0.00    -0.384 OA
HETATM   18  C   UNL     1     -10.914   1.266 -34.339  1.00  0.00     0.168 C 
HETATM   19  C   UNL     1     -10.208   0.503 -33.246  1.00  0.00     0.029 C 
HETATM   20  C   UNL     1      -9.699   1.612 -32.353  1.00  0.00     0.035 C 
ENDBRANCH  15  16
ENDBRANCH  12  15
ENDBRANCH  10  11
BRANCH  10  21
HETATM   21  C   UNL     1      -6.104   5.755 -29.821  1.00  0.00     0.014 A 
HETATM   22  S   UNL     1      -5.847   5.762 -28.127  1.00  0.00    -0.104 SA
HETATM   23  C   UNL     1      -6.562   7.297 -27.933  1.00  0.00     0.050 A 
HETATM   24  C   UNL     1      -7.002   7.812 -29.129  1.00  0.00     0.008 A 
HETATM   25  C   UNL     1      -6.741   6.927 -30.211  1.00  0.00     0.017 A 
ENDBRANCH  10  21
ENDBRANCH   2  10
BRANCH   1  26
HETATM   26  C   UNL     1      -4.251   2.077 -31.306  1.00  0.00     0.101 C 
HETATM   27  N   UNL     1      -4.183   1.126 -32.301  1.00  0.00    -0.351 N 
HETATM   28  C   UNL     1      -5.097   0.112 -32.089  1.00  0.00     0.043 C 
HETATM   29  H   UNL     1      -3.598   1.208 -33.127  1.00  0.00     0.166 HD
HETATM   30  C   UNL     1      -5.580   0.310 -30.806  1.00  0.00     0.033 C 
HETATM   31  C   UNL     1      -5.038   1.519 -30.312  1.00  0.00     0.037 C 
BRANCH  28  32
HETATM   32  C   UNL     1      -5.426  -0.919 -33.087  1.00  0.00    -0.009 A 
HETATM   33  C   UNL     1      -6.719  -1.063 -33.611  1.00  0.00     0.013 A 
HETATM   34  C   UNL     1      -7.017  -2.081 -34.523  1.00  0.00     0.001 A 
HETATM   35  C   UNL     1      -6.026  -2.970 -34.930  1.00  0.00     0.000 A 
HETATM   36  C   UNL     1      -4.736  -2.840 -34.428  1.00  0.00     0.001 A 
HETATM   37  C   UNL     1      -4.440  -1.823 -33.515  1.00  0.00     0.013 A 
ENDBRANCH  28  32
ENDBRANCH   1  26
TORSDOF 9
ENDMDL
MODEL 10
REMARK VINA RESULT:      -7.6      1.986      5.210
REMARK  9 active torsions:
REMARK  status: ('A' for Active; 'I' for Inactive)
REMARK    1  A    between atoms: C_4  and  C_5 
REMARK    2  A    between atoms: C_8  and  C_9 
REMARK       I    between atoms: C_9  and  N_10 
REMARK    3  A    between atoms: N_10  and  C_26 
REMARK    4  A    between atoms: N_10  and  C_11 
REMARK    5  A    between atoms: C_11  and  C_12 
REMARK    6  A    between atoms: C_11  and  C_21 
REMARK       I    between atoms: C_12  and  N_13 
REMARK    7  A    between atoms: N_13  and  C_14 
REMARK    8  A    between atoms: C_14  and  C_15 
REMARK    9  A    between atoms: C_26  and  C_27 
ROOT
HETATM    1  C   UNL     1      -5.368   3.923 -30.675  1.00  0.00     0.271 C 
HETATM    2  N   UNL     1      -5.761   5.115 -31.304  1.00  0.00    -0.324 N 
HETATM    3  O   UNL     1      -5.537   3.777 -29.463  1.00  0.00    -0.266 OA
ENDROOT
BRANCH   2   4
HETATM    4  C   UNL     1      -6.349   6.147 -30.442  1.00  0.00     0.173 C 
BRANCH   4   5
HETATM    5  C   UNL     1      -7.846   6.151 -30.507  1.00  0.00     0.000 A 
HETATM    6  S   UNL     1      -8.675   7.505 -31.158  1.00  0.00    -0.105 SA
HETATM    7  C   UNL     1     -10.195   6.746 -30.980  1.00  0.00     0.050 A 
HETATM    8  C   UNL     1     -10.081   5.480 -30.453  1.00  0.00     0.008 A 
HETATM    9  C   UNL     1      -8.726   5.135 -30.181  1.00  0.00     0.017 A 
ENDBRANCH   4   5
ENDBRANCH   2   4
BRANCH   2  10
HETATM   10  C   UNL     1      -5.616   5.392 -32.750  1.00  0.00     0.220 C 
BRANCH  10  11
HETATM   11  C   UNL     1      -6.614   4.558 -33.594  1.00  0.00     0.245 C 
HETATM   12  N   UNL     1      -7.945   4.880 -33.594  1.00  0.00    -0.357 N 
HETATM   13  H   UNL     1      -8.296   5.488 -32.864  1.00  0.00     0.162 HD
HETATM   14  O   UNL     1      -6.189   3.682 -34.362  1.00  0.00    -0.271 OA
BRANCH  12  15
HETATM   15  C   UNL     1      -8.929   4.093 -34.321  1.00  0.00     0.154 C 
BRANCH  15  16
HETATM   16  C   UNL     1      -9.625   3.068 -33.416  1.00  0.00     0.139 C 
HETATM   17  O   UNL     1     -10.988   3.487 -33.179  1.00  0.00    -0.384 OA
HETATM   18  C   UNL     1     -11.820   2.327 -33.275  1.00  0.00     0.168 C 
HETATM   19  C   UNL     1     -11.157   1.458 -34.315  1.00  0.00     0.029 C 
HETATM   20  C   UNL     1      -9.688   1.670 -34.027  1.00  0.00     0.035 C 
ENDBRANCH  15  16
ENDBRANCH  12  15
ENDBRANCH  10  11
BRANCH  10  21
HETATM   21  C   UNL     1      -4.160   5.491 -33.182  1.00  0.00     0.014 A 
HETATM   22  S   UNL     1      -2.888   6.138 -32.232  1.00  0.00    -0.104 SA
HETATM   23  C   UNL     1      -1.720   5.855 -33.441  1.00  0.00     0.050 A 
HETATM   24  C   UNL     1      -2.270   5.282 -34.562  1.00  0.00     0.008 A 
HETATM   25  C   UNL     1      -3.670   5.075 -34.414  1.00  0.00     0.017 A 
ENDBRANCH  10  21
ENDBRANCH   2  10
BRANCH   1  26
HETATM   26  C   UNL     1      -4.844   2.813 -31.455  1.00  0.00     0.101 C 
HETATM   27  N   UNL     1      -5.550   1.918 -32.230  1.00  0.00    -0.351 N 
HETATM   28  C   UNL     1      -4.730   0.917 -32.713  1.00  0.00     0.043 C 
HETATM   29  H   UNL     1      -6.557   1.946 -32.355  1.00  0.00     0.166 HD
HETATM   30  C   UNL     1      -3.438   1.329 -32.431  1.00  0.00     0.033 C 
HETATM   31  C   UNL     1      -3.508   2.517 -31.669  1.00  0.00     0.037 C 
BRANCH  28  32
HETATM   32  C   UNL     1      -5.224  -0.303 -33.372  1.00  0.00    -0.009 A 
HETATM   33  C   UNL     1      -4.419  -1.440 -33.532  1.00  0.00     0.013 A 
HETATM   34  C   UNL     1      -4.897  -2.571 -34.204  1.00  0.00     0.001 A 
HETATM   35  C   UNL     1      -6.188  -2.584 -34.725  1.00  0.00     0.000 A 
HETATM   36  C   UNL     1      -7.004  -1.469 -34.570  1.00  0.00     0.001 A 
HETATM   37  C   UNL     1      -6.524  -0.339 -33.900  1.00  0.00     0.013 A 
ENDBRANCH  28  32
ENDBRANCH   1  26
TORSDOF 9
ENDMDL
