MODEL 1
REMARK VINA RESULT:      -8.9      0.000      0.000
REMARK  5 active torsions:
REMARK  status: ('A' for Active; 'I' for Inactive)
REMARK    1  A    between atoms: C_3  and  N_4 
REMARK    2  A    between atoms: N_5  and  C_6 
REMARK    3  A    between atoms: C_6  and  C_7 
REMARK    4  A    between atoms: C_7  and  C_8 
REMARK    5  A    between atoms: C_19  and  C_20 
ROOT
HETATM    1  C   UNL     1      -6.019   0.047 -29.933  1.00  0.00     0.175 C 
HETATM    2  N   UNL     1      -6.404   1.007 -30.957  1.00  0.00    -0.186 N 
HETATM    3  C   UNL     1      -6.821   2.243 -30.702  1.00  0.00     0.680 C 
HETATM    4  N   UNL     1      -6.791   2.949 -31.826  1.00  0.00    -0.184 N 
HETATM    5  C   UNL     1      -6.503   2.081 -32.870  1.00  0.00     0.140 C 
HETATM    6  C   UNL     1      -6.324   0.816 -32.348  1.00  0.00     0.077 C 
ENDROOT
BRANCH   4   7
HETATM    7  C   UNL     1      -6.950   4.413 -31.977  1.00  0.00     0.231 C 
BRANCH   7   8
HETATM    8  C   UNL     1      -6.561   4.942 -33.353  1.00  0.00     0.178 C 
HETATM    9  O   UNL     1      -7.384   5.070 -34.263  1.00  0.00    -0.290 OA
BRANCH   8  10
HETATM   10  C   UNL     1      -5.158   5.377 -33.588  1.00  0.00     0.014 A 
HETATM   11  C   UNL     1      -4.485   6.210 -32.686  1.00  0.00     0.055 A 
HETATM   12  C   UNL     1      -3.199   6.591 -33.012  1.00  0.00     0.106 A 
HETATM   13  C   UNL     1      -2.582   6.177 -34.169  1.00  0.00     0.105 A 
HETATM   14  O   UNL     1      -2.405   7.405 -32.266  1.00  0.00    -0.323 OA
HETATM   15  O   UNL     1      -1.325   6.675 -34.294  1.00  0.00    -0.323 OA
HETATM   16  C   UNL     1      -3.219   5.358 -35.075  1.00  0.00     0.040 A 
HETATM   17  C   UNL     1      -1.225   7.478 -33.100  1.00  0.00     0.352 A 
HETATM   18  C   UNL     1      -4.526   4.959 -34.782  1.00  0.00     0.018 A 
ENDBRANCH   8  10
ENDBRANCH   7   8
ENDBRANCH   4   7
BRANCH   3  19
HETATM   19  N   UNL     1      -7.186   2.680 -29.502  1.00  0.00    -0.234 N 
HETATM   20  H   UNL     1      -7.013   3.625 -29.199  1.00  0.00     0.174 HD
HETATM   21  H   UNL     1      -7.341   1.990 -28.766  1.00  0.00     0.174 HD
ENDBRANCH   3  19
BRANCH   6  22
HETATM   22  C   UNL     1      -6.079  -0.438 -33.142  1.00  0.00    -0.007 A 
HETATM   23  C   UNL     1      -4.780  -0.958 -33.255  1.00  0.00     0.017 A 
HETATM   24  C   UNL     1      -4.553  -2.121 -33.997  1.00  0.00     0.043 A 
HETATM   25  C   UNL     1      -5.614  -2.750 -34.636  1.00  0.00     0.116 A 
HETATM   26  F   UNL     1      -5.392  -3.861 -35.348  1.00  0.00    -0.206 F 
HETATM   27  C   UNL     1      -6.900  -2.236 -34.550  1.00  0.00     0.043 A 
HETATM   28  C   UNL     1      -7.135  -1.076 -33.806  1.00  0.00     0.017 A 
ENDBRANCH   6  22
TORSDOF 5
ENDMDL
MODEL 2
REMARK VINA RESULT:      -8.8      1.855      2.217
REMARK  5 active torsions:
REMARK  status: ('A' for Active; 'I' for Inactive)
REMARK    1  A    between atoms: C_3  and  N_4 
REMARK    2  A    between atoms: N_5  and  C_6 
REMARK    3  A    between atoms: C_6  and  C_7 
REMARK    4  A    between atoms: C_7  and  C_8 
REMARK    5  A    between atoms: C_19  and  C_20 
ROOT
HETATM    1  C   UNL     1      -4.178   0.203 -30.843  1.00  0.00     0.175 C 
HETATM    2  N   UNL     1      -4.850   1.077 -31.794  1.00  0.00    -0.186 N 
HETATM    3  C   UNL     1      -5.008   2.385 -31.622  1.00  0.00     0.680 C 
HETATM    4  N   UNL     1      -5.368   2.932 -32.777  1.00  0.00    -0.184 N 
HETATM    5  C   UNL     1      -5.610   1.906 -33.680  1.00  0.00     0.140 C 
HETATM    6  C   UNL     1      -5.357   0.703 -33.051  1.00  0.00     0.077 C 
ENDROOT
BRANCH   4   7
HETATM    7  C   UNL     1      -5.432   4.372 -33.113  1.00  0.00     0.231 C 
BRANCH   7   8
HETATM    8  C   UNL     1      -4.302   4.850 -34.018  1.00  0.00     0.178 C 
HETATM    9  O   UNL     1      -4.420   4.899 -35.245  1.00  0.00    -0.290 OA
BRANCH   8  10
HETATM   10  C   UNL     1      -3.039   5.335 -33.399  1.00  0.00     0.014 A 
HETATM   11  C   UNL     1      -2.298   4.539 -32.518  1.00  0.00     0.055 A 
HETATM   12  C   UNL     1      -1.160   5.093 -31.965  1.00  0.00     0.106 A 
HETATM   13  C   UNL     1      -0.751   6.372 -32.259  1.00  0.00     0.105 A 
HETATM   14  O   UNL     1      -0.332   4.475 -31.082  1.00  0.00    -0.323 OA
HETATM   15  O   UNL     1       0.385   6.717 -31.601  1.00  0.00    -0.323 OA
HETATM   16  C   UNL     1      -1.459   7.179 -33.122  1.00  0.00     0.040 A 
HETATM   17  C   UNL     1       0.634   5.522 -30.832  1.00  0.00     0.352 A 
HETATM   18  C   UNL     1      -2.621   6.653 -33.694  1.00  0.00     0.018 A 
ENDBRANCH   8  10
ENDBRANCH   7   8
ENDBRANCH   4   7
BRANCH   3  19
HETATM   19  N   UNL     1      -4.814   3.021 -30.471  1.00  0.00    -0.234 N 
HETATM   20  H   UNL     1      -5.389   3.795 -30.182  1.00  0.00     0.174 HD
HETATM   21  H   UNL     1      -3.895   2.950 -30.033  1.00  0.00     0.174 HD
ENDBRANCH   3  19
BRANCH   6  22
HETATM   22  C   UNL     1      -5.576  -0.662 -33.642  1.00  0.00    -0.007 A 
HETATM   23  C   UNL     1      -4.485  -1.522 -33.849  1.00  0.00     0.017 A 
HETATM   24  C   UNL     1      -4.688  -2.790 -34.403  1.00  0.00     0.043 A 
HETATM   25  C   UNL     1      -5.969  -3.189 -34.762  1.00  0.00     0.116 A 
HETATM   26  F   UNL     1      -6.159  -4.402 -35.295  1.00  0.00    -0.206 F 
HETATM   27  C   UNL     1      -7.053  -2.342 -34.582  1.00  0.00     0.043 A 
HETATM   28  C   UNL     1      -6.858  -1.075 -34.024  1.00  0.00     0.017 A 
ENDBRANCH   6  22
TORSDOF 5
ENDMDL
MODEL 3
REMARK VINA RESULT:      -8.5      0.972      1.370
REMARK  5 active torsions:
REMARK  status: ('A' for Active; 'I' for Inactive)
REMARK    1  A    between atoms: C_3  and  N_4 
REMARK    2  A    between atoms: N_5  and  C_6 
REMARK    3  A    between atoms: C_6  and  C_7 
REMARK    4  A    between atoms: C_7  and  C_8 
REMARK    5  A    between atoms: C_19  and  C_20 
ROOT
HETATM    1  C   UNL     1      -6.434  -0.092 -30.534  1.00  0.00     0.175 C 
HETATM    2  N   UNL     1      -6.751   0.680 -31.726  1.00  0.00    -0.186 N 
HETATM    3  C   UNL     1      -7.269   1.904 -31.706  1.00  0.00     0.680 C 
HETATM    4  N   UNL     1      -7.148   2.444 -32.914  1.00  0.00    -0.184 N 
HETATM    5  C   UNL     1      -6.686   1.461 -33.777  1.00  0.00     0.140 C 
HETATM    6  C   UNL     1      -6.495   0.300 -33.055  1.00  0.00     0.077 C 
ENDROOT
BRANCH   4   7
HETATM    7  C   UNL     1      -7.375   3.854 -33.298  1.00  0.00     0.231 C 
BRANCH   7   8
HETATM    8  C   UNL     1      -6.527   4.855 -32.520  1.00  0.00     0.178 C 
HETATM    9  O   UNL     1      -6.878   5.300 -31.424  1.00  0.00    -0.290 OA
BRANCH   8  10
HETATM   10  C   UNL     1      -5.204   5.258 -33.067  1.00  0.00     0.014 A 
HETATM   11  C   UNL     1      -4.297   6.018 -32.319  1.00  0.00     0.055 A 
HETATM   12  C   UNL     1      -3.112   6.376 -32.929  1.00  0.00     0.106 A 
HETATM   13  C   UNL     1      -2.811   6.006 -34.219  1.00  0.00     0.105 A 
HETATM   14  O   UNL     1      -2.127   7.122 -32.362  1.00  0.00    -0.323 OA
HETATM   15  O   UNL     1      -1.600   6.470 -34.622  1.00  0.00    -0.323 OA
HETATM   16  C   UNL     1      -3.682   5.258 -34.980  1.00  0.00     0.040 A 
HETATM   17  C   UNL     1      -1.181   7.203 -33.452  1.00  0.00     0.352 A 
HETATM   18  C   UNL     1      -4.896   4.886 -34.396  1.00  0.00     0.018 A 
ENDBRANCH   8  10
ENDBRANCH   7   8
ENDBRANCH   4   7
BRANCH   3  19
HETATM   19  N   UNL     1      -7.800   2.479 -30.632  1.00  0.00    -0.234 N 
HETATM   20  H   UNL     1      -8.197   3.404 -30.659  1.00  0.00     0.174 HD
HETATM   21  H   UNL     1      -7.519   2.132 -29.714  1.00  0.00     0.174 HD
ENDBRANCH   3  19
BRANCH   6  22
HETATM   22  C   UNL     1      -6.083  -1.031 -33.621  1.00  0.00    -0.007 A 
HETATM   23  C   UNL     1      -7.045  -1.886 -34.181  1.00  0.00     0.017 A 
HETATM   24  C   UNL     1      -6.663  -3.126 -34.703  1.00  0.00     0.043 A 
HETATM   25  C   UNL     1      -5.330  -3.514 -34.651  1.00  0.00     0.116 A 
HETATM   26  F   UNL     1      -4.968  -4.703 -35.148  1.00  0.00    -0.206 F 
HETATM   27  C   UNL     1      -4.372  -2.688 -34.082  1.00  0.00     0.043 A 
HETATM   28  C   UNL     1      -4.746  -1.446 -33.563  1.00  0.00     0.017 A 
ENDBRANCH   6  22
TORSDOF 5
ENDMDL
MODEL 4
REMARK VINA RESULT:      -8.4      4.014      7.626
REMARK  5 active torsions:
REMARK  status: ('A' for Active; 'I' for Inactive)
REMARK    1  A    between atoms: C_3  and  N_4 
REMARK    2  A    between atoms: N_5  and  C_6 
REMARK    3  A    between atoms: C_6  and  C_7 
REMARK    4  A    between atoms: C_7  and  C_8 
REMARK    5  A    between atoms: C_19  and  C_20 
ROOT
HETATM    1  C   UNL     1      -5.494   4.492 -30.091  1.00  0.00     0.175 C 
HETATM    2  N   UNL     1      -5.455   3.366 -31.012  1.00  0.00    -0.186 N 
HETATM    3  C   UNL     1      -6.185   2.264 -30.873  1.00  0.00     0.680 C 
HETATM    4  N   UNL     1      -6.159   1.582 -32.012  1.00  0.00    -0.184 N 
HETATM    5  C   UNL     1      -5.241   2.192 -32.855  1.00  0.00     0.140 C 
HETATM    6  C   UNL     1      -4.720   3.295 -32.209  1.00  0.00     0.077 C 
ENDROOT
BRANCH   4   7
HETATM    7  C   UNL     1      -7.000   0.425 -32.390  1.00  0.00     0.231 C 
BRANCH   7   8
HETATM    8  C   UNL     1      -6.741  -0.097 -33.800  1.00  0.00     0.178 C 
HETATM    9  O   UNL     1      -6.875   0.616 -34.798  1.00  0.00    -0.290 OA
BRANCH   8  10
HETATM   10  C   UNL     1      -6.251  -1.490 -33.974  1.00  0.00     0.014 A 
HETATM   11  C   UNL     1      -4.980  -1.884 -33.538  1.00  0.00     0.055 A 
HETATM   12  C   UNL     1      -4.601  -3.189 -33.781  1.00  0.00     0.106 A 
HETATM   13  C   UNL     1      -5.426  -4.086 -34.418  1.00  0.00     0.105 A 
HETATM   14  O   UNL     1      -3.404  -3.737 -33.444  1.00  0.00    -0.323 OA
HETATM   15  O   UNL     1      -4.853  -5.308 -34.559  1.00  0.00    -0.323 OA
HETATM   16  C   UNL     1      -6.682  -3.728 -34.858  1.00  0.00     0.040 A 
HETATM   17  C   UNL     1      -3.558  -5.077 -33.966  1.00  0.00     0.352 A 
HETATM   18  C   UNL     1      -7.095  -2.411 -34.637  1.00  0.00     0.018 A 
ENDBRANCH   8  10
ENDBRANCH   7   8
ENDBRANCH   4   7
BRANCH   3  19
HETATM   19  N   UNL     1      -6.838   1.930 -29.765  1.00  0.00    -0.234 N 
HETATM   20  H   UNL     1      -7.084   0.976 -29.553  1.00  0.00     0.174 HD
HETATM   21  H   UNL     1      -7.380   2.654 -29.291  1.00  0.00     0.174 HD
ENDBRANCH   3  19
BRANCH   6  22
HETATM   22  C   UNL     1      -3.631   4.189 -32.733  1.00  0.00    -0.007 A 
HETATM   23  C   UNL     1      -2.382   4.228 -32.091  1.00  0.00     0.017 A 
HETATM   24  C   UNL     1      -1.371   5.063 -32.575  1.00  0.00     0.043 A 
HETATM   25  C   UNL     1      -1.611   5.866 -33.683  1.00  0.00     0.116 A 
HETATM   26  F   UNL     1      -0.641   6.666 -34.141  1.00  0.00    -0.206 F 
HETATM   27  C   UNL     1      -2.846   5.853 -34.315  1.00  0.00     0.043 A 
HETATM   28  C   UNL     1      -3.860   5.017 -33.839  1.00  0.00     0.017 A 
ENDBRANCH   6  22
TORSDOF 5
ENDMDL
MODEL 5
REMARK VINA RESULT:      -8.4      3.598      6.152
REMARK  5 active torsions:
REMARK  status: ('A' for Active; 'I' for Inactive)
REMARK    1  A    between atoms: C_3  and  N_4 
REMARK    2  A    between atoms: N_5  and  C_6 
REMARK    3  A    between atoms: C_6  and  C_7 
REMARK    4  A    between atoms: C_7  and  C_8 
REMARK    5  A    between atoms: C_19  and  C_20 
ROOT
HETATM    1  C   UNL     1      -6.337  -0.358 -30.730  1.00  0.00     0.175 C 
HETATM    2  N   UNL     1      -6.760   0.339 -31.936  1.00  0.00    -0.186 N 
HETATM    3  C   UNL     1      -7.298   1.555 -31.943  1.00  0.00     0.680 C 
HETATM    4  N   UNL     1      -7.282   2.026 -33.185  1.00  0.00    -0.184 N 
HETATM    5  C   UNL     1      -6.870   1.002 -34.026  1.00  0.00     0.140 C 
HETATM    6  C   UNL     1      -6.601  -0.113 -33.257  1.00  0.00     0.077 C 
ENDROOT
BRANCH   4   7
HETATM    7  C   UNL     1      -7.564   3.409 -33.630  1.00  0.00     0.231 C 
BRANCH   7   8
HETATM    8  C   UNL     1      -8.917   3.945 -33.172  1.00  0.00     0.178 C 
HETATM    9  O   UNL     1      -9.016   4.880 -32.374  1.00  0.00    -0.290 OA
BRANCH   8  10
HETATM   10  C   UNL     1     -10.156   3.364 -33.754  1.00  0.00     0.014 A 
HETATM   11  C   UNL     1     -10.786   2.250 -33.186  1.00  0.00     0.055 A 
HETATM   12  C   UNL     1     -11.909   1.762 -33.822  1.00  0.00     0.106 A 
HETATM   13  C   UNL     1     -12.410   2.335 -34.968  1.00  0.00     0.105 A 
HETATM   14  O   UNL     1     -12.635   0.684 -33.424  1.00  0.00    -0.323 OA
HETATM   15  O   UNL     1     -13.513   1.692 -35.429  1.00  0.00    -0.323 OA
HETATM   16  C   UNL     1     -11.813   3.431 -35.550  1.00  0.00     0.040 A 
HETATM   17  C   UNL     1     -13.638   0.626 -34.465  1.00  0.00     0.352 A 
HETATM   18  C   UNL     1     -10.668   3.947 -34.936  1.00  0.00     0.018 A 
ENDBRANCH   8  10
ENDBRANCH   7   8
ENDBRANCH   4   7
BRANCH   3  19
HETATM   19  N   UNL     1      -7.754   2.183 -30.865  1.00  0.00    -0.234 N 
HETATM   20  H   UNL     1      -7.237   2.920 -30.414  1.00  0.00     0.174 HD
HETATM   21  H   UNL     1      -8.460   1.711 -30.298  1.00  0.00     0.174 HD
ENDBRANCH   3  19
BRANCH   6  22
HETATM   22  C   UNL     1      -6.210  -1.468 -33.778  1.00  0.00    -0.007 A 
HETATM   23  C   UNL     1      -4.859  -1.851 -33.801  1.00  0.00     0.017 A 
HETATM   24  C   UNL     1      -4.495  -3.110 -34.289  1.00  0.00     0.043 A 
HETATM   25  C   UNL     1      -5.473  -3.973 -34.766  1.00  0.00     0.116 A 
HETATM   26  F   UNL     1      -5.121  -5.176 -35.237  1.00  0.00    -0.206 F 
HETATM   27  C   UNL     1      -6.810  -3.601 -34.769  1.00  0.00     0.043 A 
HETATM   28  C   UNL     1      -7.181  -2.346 -34.277  1.00  0.00     0.017 A 
ENDBRANCH   6  22
TORSDOF 5
ENDMDL
MODEL 6
REMARK VINA RESULT:      -8.3      1.923      2.478
REMARK  5 active torsions:
REMARK  status: ('A' for Active; 'I' for Inactive)
REMARK    1  A    between atoms: C_3  and  N_4 
REMARK    2  A    between atoms: N_5  and  C_6 
REMARK    3  A    between atoms: C_6  and  C_7 
REMARK    4  A    between atoms: C_7  and  C_8 
REMARK    5  A    between atoms: C_19  and  C_20 
ROOT
HETATM    1  C   UNL     1      -8.688   0.349 -33.679  1.00  0.00     0.175 C 
HETATM    2  N   UNL     1      -7.430   1.080 -33.642  1.00  0.00    -0.186 N 
HETATM    3  C   UNL     1      -7.338   2.403 -33.549  1.00  0.00     0.680 C 
HETATM    4  N   UNL     1      -6.091   2.727 -33.227  1.00  0.00    -0.184 N 
HETATM    5  C   UNL     1      -5.321   1.574 -33.280  1.00  0.00     0.140 C 
HETATM    6  C   UNL     1      -6.142   0.516 -33.617  1.00  0.00     0.077 C 
ENDROOT
BRANCH   4   7
HETATM    7  C   UNL     1      -5.584   4.050 -32.800  1.00  0.00     0.231 C 
BRANCH   7   8
HETATM    8  C   UNL     1      -4.585   4.674 -33.768  1.00  0.00     0.178 C 
HETATM    9  O   UNL     1      -4.843   4.837 -34.963  1.00  0.00    -0.290 OA
BRANCH   8  10
HETATM   10  C   UNL     1      -3.281   5.162 -33.243  1.00  0.00     0.014 A 
HETATM   11  C   UNL     1      -2.590   4.477 -32.237  1.00  0.00     0.055 A 
HETATM   12  C   UNL     1      -1.407   5.030 -31.789  1.00  0.00     0.106 A 
HETATM   13  C   UNL     1      -0.907   6.205 -32.300  1.00  0.00     0.105 A 
HETATM   14  O   UNL     1      -0.616   4.513 -30.812  1.00  0.00    -0.323 OA
HETATM   15  O   UNL     1       0.260   6.571 -31.712  1.00  0.00    -0.323 OA
HETATM   16  C   UNL     1      -1.564   6.901 -33.290  1.00  0.00     0.040 A 
HETATM   17  C   UNL     1       0.429   5.512 -30.747  1.00  0.00     0.352 A 
HETATM   18  C   UNL     1      -2.770   6.374 -33.762  1.00  0.00     0.018 A 
ENDBRANCH   8  10
ENDBRANCH   7   8
ENDBRANCH   4   7
BRANCH   3  19
HETATM   19  N   UNL     1      -8.351   3.242 -33.737  1.00  0.00    -0.234 N 
HETATM   20  H   UNL     1      -8.856   3.287 -34.607  1.00  0.00     0.174 HD
HETATM   21  H   UNL     1      -8.412   4.062 -33.133  1.00  0.00     0.174 HD
ENDBRANCH   3  19
BRANCH   6  22
HETATM   22  C   UNL     1      -5.697  -0.899 -33.866  1.00  0.00    -0.007 A 
HETATM   23  C   UNL     1      -4.523  -1.384 -33.267  1.00  0.00     0.017 A 
HETATM   24  C   UNL     1      -4.108  -2.698 -33.502  1.00  0.00     0.043 A 
HETATM   25  C   UNL     1      -4.852  -3.517 -34.342  1.00  0.00     0.116 A 
HETATM   26  F   UNL     1      -4.450  -4.773 -34.567  1.00  0.00    -0.206 F 
HETATM   27  C   UNL     1      -6.004  -3.045 -34.955  1.00  0.00     0.043 A 
HETATM   28  C   UNL     1      -6.427  -1.734 -34.721  1.00  0.00     0.017 A 
ENDBRANCH   6  22
TORSDOF 5
ENDMDL
MODEL 7
REMARK VINA RESULT:      -8.1      3.748      6.592
REMARK  5 active torsions:
REMARK  status: ('A' for Active; 'I' for Inactive)
REMARK    1  A    between atoms: C_3  and  N_4 
REMARK    2  A    between atoms: N_5  and  C_6 
REMARK    3  A    between atoms: C_6  and  C_7 
REMARK    4  A    between atoms: C_7  and  C_8 
REMARK    5  A    between atoms: C_19  and  C_20 
ROOT
HETATM    1  C   UNL     1      -6.794   5.607 -31.584  1.00  0.00     0.175 C 
HETATM    2  N   UNL     1      -6.964   4.367 -32.327  1.00  0.00    -0.186 N 
HETATM    3  C   UNL     1      -8.035   3.585 -32.238  1.00  0.00     0.680 C 
HETATM    4  N   UNL     1      -8.024   2.723 -33.248  1.00  0.00    -0.184 N 
HETATM    5  C   UNL     1      -6.812   2.852 -33.910  1.00  0.00     0.140 C 
HETATM    6  C   UNL     1      -6.082   3.849 -33.293  1.00  0.00     0.077 C 
ENDROOT
BRANCH   4   7
HETATM    7  C   UNL     1      -9.118   1.824 -33.678  1.00  0.00     0.231 C 
BRANCH   7   8
HETATM    8  C   UNL     1      -9.005   0.403 -33.135  1.00  0.00     0.178 C 
HETATM    9  O   UNL     1      -9.963  -0.181 -32.623  1.00  0.00    -0.290 OA
BRANCH   8  10
HETATM   10  C   UNL     1      -7.717  -0.325 -33.285  1.00  0.00     0.014 A 
HETATM   11  C   UNL     1      -6.757  -0.341 -32.266  1.00  0.00     0.055 A 
HETATM   12  C   UNL     1      -5.576  -1.011 -32.516  1.00  0.00     0.106 A 
HETATM   13  C   UNL     1      -5.334  -1.650 -33.709  1.00  0.00     0.105 A 
HETATM   14  O   UNL     1      -4.531  -1.116 -31.652  1.00  0.00    -0.323 OA
HETATM   15  O   UNL     1      -4.111  -2.238 -33.744  1.00  0.00    -0.323 OA
HETATM   16  C   UNL     1      -6.260  -1.653 -34.729  1.00  0.00     0.040 A 
HETATM   17  C   UNL     1      -3.591  -1.873 -32.449  1.00  0.00     0.352 A 
HETATM   18  C   UNL     1      -7.463  -0.975 -34.514  1.00  0.00     0.018 A 
ENDBRANCH   8  10
ENDBRANCH   7   8
ENDBRANCH   4   7
BRANCH   3  19
HETATM   19  N   UNL     1      -8.961   3.684 -31.291  1.00  0.00    -0.234 N 
HETATM   20  H   UNL     1      -9.577   4.479 -31.223  1.00  0.00     0.174 HD
HETATM   21  H   UNL     1      -8.842   3.129 -30.443  1.00  0.00     0.174 HD
ENDBRANCH   3  19
BRANCH   6  22
HETATM   22  C   UNL     1      -4.676   4.254 -33.639  1.00  0.00    -0.007 A 
HETATM   23  C   UNL     1      -3.611   3.882 -32.804  1.00  0.00     0.017 A 
HETATM   24  C   UNL     1      -2.303   4.262 -33.124  1.00  0.00     0.043 A 
HETATM   25  C   UNL     1      -2.065   5.023 -34.262  1.00  0.00     0.116 A 
HETATM   26  F   UNL     1      -0.814   5.388 -34.563  1.00  0.00    -0.206 F 
HETATM   27  C   UNL     1      -3.111   5.414 -35.086  1.00  0.00     0.043 A 
HETATM   28  C   UNL     1      -4.419   5.033 -34.774  1.00  0.00     0.017 A 
ENDBRANCH   6  22
TORSDOF 5
ENDMDL
MODEL 8
REMARK VINA RESULT:      -8.1      4.440      8.123
REMARK  5 active torsions:
REMARK  status: ('A' for Active; 'I' for Inactive)
REMARK    1  A    between atoms: C_3  and  N_4 
REMARK    2  A    between atoms: N_5  and  C_6 
REMARK    3  A    between atoms: C_6  and  C_7 
REMARK    4  A    between atoms: C_7  and  C_8 
REMARK    5  A    between atoms: C_19  and  C_20 
ROOT
HETATM    1  C   UNL     1      -3.493   5.718 -34.347  1.00  0.00     0.175 C 
HETATM    2  N   UNL     1      -3.953   4.866 -33.260  1.00  0.00    -0.186 N 
HETATM    3  C   UNL     1      -5.031   4.091 -33.325  1.00  0.00     0.680 C 
HETATM    4  N   UNL     1      -5.001   3.226 -32.318  1.00  0.00    -0.184 N 
HETATM    5  C   UNL     1      -3.948   3.574 -31.485  1.00  0.00     0.140 C 
HETATM    6  C   UNL     1      -3.305   4.668 -32.027  1.00  0.00     0.077 C 
ENDROOT
BRANCH   4   7
HETATM    7  C   UNL     1      -5.864   2.040 -32.123  1.00  0.00     0.231 C 
BRANCH   7   8
HETATM    8  C   UNL     1      -5.789   1.023 -33.258  1.00  0.00     0.178 C 
HETATM    9  O   UNL     1      -6.300   1.232 -34.360  1.00  0.00    -0.290 OA
BRANCH   8  10
HETATM   10  C   UNL     1      -5.020  -0.233 -33.050  1.00  0.00     0.014 A 
HETATM   11  C   UNL     1      -5.159  -1.332 -33.906  1.00  0.00     0.055 A 
HETATM   12  C   UNL     1      -4.432  -2.467 -33.607  1.00  0.00     0.106 A 
HETATM   13  C   UNL     1      -3.593  -2.535 -32.519  1.00  0.00     0.105 A 
HETATM   14  O   UNL     1      -4.455  -3.627 -34.314  1.00  0.00    -0.323 OA
HETATM   15  O   UNL     1      -2.983  -3.742 -32.409  1.00  0.00    -0.323 OA
HETATM   16  C   UNL     1      -3.435  -1.470 -31.660  1.00  0.00     0.040 A 
HETATM   17  C   UNL     1      -3.554  -4.445 -33.532  1.00  0.00     0.352 A 
HETATM   18  C   UNL     1      -4.164  -0.307 -31.927  1.00  0.00     0.018 A 
ENDBRANCH   8  10
ENDBRANCH   7   8
ENDBRANCH   4   7
BRANCH   3  19
HETATM   19  N   UNL     1      -5.964   4.179 -34.267  1.00  0.00    -0.234 N 
HETATM   20  H   UNL     1      -6.794   4.736 -34.150  1.00  0.00     0.174 HD
HETATM   21  H   UNL     1      -6.010   3.438 -34.967  1.00  0.00     0.174 HD
ENDBRANCH   3  19
BRANCH   6  22
HETATM   22  C   UNL     1      -2.163   5.419 -31.400  1.00  0.00    -0.007 A 
HETATM   23  C   UNL     1      -0.839   5.106 -31.748  1.00  0.00     0.017 A 
HETATM   24  C   UNL     1       0.223   5.801 -31.162  1.00  0.00     0.043 A 
HETATM   25  C   UNL     1      -0.036   6.791 -30.223  1.00  0.00     0.116 A 
HETATM   26  F   UNL     1       0.983   7.452 -29.661  1.00  0.00    -0.206 F 
HETATM   27  C   UNL     1      -1.338   7.097 -29.854  1.00  0.00     0.043 A 
HETATM   28  C   UNL     1      -2.404   6.410 -30.440  1.00  0.00     0.017 A 
ENDBRANCH   6  22
TORSDOF 5
ENDMDL
MODEL 9
REMARK VINA RESULT:      -7.9      1.833      2.433
REMARK  5 active torsions:
REMARK  status: ('A' for Active; 'I' for Inactive)
REMARK    1  A    between atoms: C_3  and  N_4 
REMARK    2  A    between atoms: N_5  and  C_6 
REMARK    3  A    between atoms: C_6  and  C_7 
REMARK    4  A    between atoms: C_7  and  C_8 
REMARK    5  A    between atoms: C_19  and  C_20 
ROOT
HETATM    1  C   UNL     1      -6.447  -0.335 -30.571  1.00  0.00     0.175 C 
HETATM    2  N   UNL     1      -6.112   0.551 -31.677  1.00  0.00    -0.186 N 
HETATM    3  C   UNL     1      -6.090   1.877 -31.589  1.00  0.00     0.680 C 
HETATM    4  N   UNL     1      -5.457   2.369 -32.648  1.00  0.00    -0.184 N 
HETATM    5  C   UNL     1      -5.213   1.322 -33.525  1.00  0.00     0.140 C 
HETATM    6  C   UNL     1      -5.690   0.158 -32.959  1.00  0.00     0.077 C 
ENDROOT
BRANCH   4   7
HETATM    7  C   UNL     1      -4.999   3.760 -32.859  1.00  0.00     0.231 C 
BRANCH   7   8
HETATM    8  C   UNL     1      -3.572   4.024 -32.390  1.00  0.00     0.178 C 
HETATM    9  O   UNL     1      -2.782   3.109 -32.148  1.00  0.00    -0.290 OA
BRANCH   8  10
HETATM   10  C   UNL     1      -3.098   5.429 -32.281  1.00  0.00     0.014 A 
HETATM   11  C   UNL     1      -3.401   6.225 -31.169  1.00  0.00     0.055 A 
HETATM   12  C   UNL     1      -2.948   7.529 -31.179  1.00  0.00     0.106 A 
HETATM   13  C   UNL     1      -2.222   8.045 -32.226  1.00  0.00     0.105 A 
HETATM   14  O   UNL     1      -3.162   8.445 -30.198  1.00  0.00    -0.323 OA
HETATM   15  O   UNL     1      -1.885   9.346 -32.033  1.00  0.00    -0.323 OA
HETATM   16  C   UNL     1      -1.907   7.287 -33.332  1.00  0.00     0.040 A 
HETATM   17  C   UNL     1      -2.508   9.607 -30.758  1.00  0.00     0.352 A 
HETATM   18  C   UNL     1      -2.358   5.964 -33.360  1.00  0.00     0.018 A 
ENDBRANCH   8  10
ENDBRANCH   7   8
ENDBRANCH   4   7
BRANCH   3  19
HETATM   19  N   UNL     1      -6.611   2.573 -30.584  1.00  0.00    -0.234 N 
HETATM   20  H   UNL     1      -6.043   2.960 -29.848  1.00  0.00     0.174 HD
HETATM   21  H   UNL     1      -7.601   2.443 -30.373  1.00  0.00     0.174 HD
ENDBRANCH   3  19
BRANCH   6  22
HETATM   22  C   UNL     1      -5.705  -1.197 -33.612  1.00  0.00    -0.007 A 
HETATM   23  C   UNL     1      -6.919  -1.757 -34.043  1.00  0.00     0.017 A 
HETATM   24  C   UNL     1      -6.933  -3.019 -34.646  1.00  0.00     0.043 A 
HETATM   25  C   UNL     1      -5.746  -3.722 -34.802  1.00  0.00     0.116 A 
HETATM   26  F   UNL     1      -5.764  -4.931 -35.376  1.00  0.00    -0.206 F 
HETATM   27  C   UNL     1      -4.542  -3.190 -34.362  1.00  0.00     0.043 A 
HETATM   28  C   UNL     1      -4.520  -1.927 -33.764  1.00  0.00     0.017 A 
ENDBRANCH   6  22
TORSDOF 5
ENDMDL
MODEL 10
REMARK VINA RESULT:      -7.9      4.478      8.212
REMARK  5 active torsions:
REMARK  status: ('A' for Active; 'I' for Inactive)
REMARK    1  A    between atoms: C_3  and  N_4 
REMARK    2  A    between atoms: N_5  and  C_6 
REMARK    3  A    between atoms: C_6  and  C_7 
REMARK    4  A    between atoms: C_7  and  C_8 
REMARK    5  A    between atoms: C_19  and  C_20 
ROOT
HETATM    1  C   UNL     1      -1.331   5.857 -34.420  1.00  0.00     0.175 C 
HETATM    2  N   UNL     1      -2.464   5.437 -33.608  1.00  0.00    -0.186 N 
HETATM    3  C   UNL     1      -3.619   5.007 -34.106  1.00  0.00     0.680 C 
HETATM    4  N   UNL     1      -4.313   4.417 -33.139  1.00  0.00    -0.184 N 
HETATM    5  C   UNL     1      -3.643   4.629 -31.942  1.00  0.00     0.140 C 
HETATM    6  C   UNL     1      -2.493   5.344 -32.206  1.00  0.00     0.077 C 
ENDROOT
BRANCH   4   7
HETATM    7  C   UNL     1      -5.539   3.601 -33.277  1.00  0.00     0.231 C 
BRANCH   7   8
HETATM    8  C   UNL     1      -5.534   2.326 -32.440  1.00  0.00     0.178 C 
HETATM    9  O   UNL     1      -5.518   2.350 -31.207  1.00  0.00    -0.290 OA
BRANCH   8  10
HETATM   10  C   UNL     1      -5.617   1.011 -33.131  1.00  0.00     0.014 A 
HETATM   11  C   UNL     1      -4.705  -0.018 -32.866  1.00  0.00     0.055 A 
HETATM   12  C   UNL     1      -4.841  -1.188 -33.587  1.00  0.00     0.106 A 
HETATM   13  C   UNL     1      -5.828  -1.359 -34.528  1.00  0.00     0.105 A 
HETATM   14  O   UNL     1      -4.040  -2.280 -33.474  1.00  0.00    -0.323 OA
HETATM   15  O   UNL     1      -5.774  -2.578 -35.122  1.00  0.00    -0.323 OA
HETATM   16  C   UNL     1      -6.740  -0.365 -34.810  1.00  0.00     0.040 A 
HETATM   17  C   UNL     1      -4.620  -3.152 -34.472  1.00  0.00     0.352 A 
HETATM   18  C   UNL     1      -6.626   0.837 -34.105  1.00  0.00     0.018 A 
ENDBRANCH   8  10
ENDBRANCH   7   8
ENDBRANCH   4   7
BRANCH   3  19
HETATM   19  N   UNL     1      -3.989   5.143 -35.375  1.00  0.00    -0.234 N 
HETATM   20  H   UNL     1      -4.850   5.594 -35.638  1.00  0.00     0.174 HD
HETATM   21  H   UNL     1      -3.577   4.514 -36.064  1.00  0.00     0.174 HD
ENDBRANCH   3  19
BRANCH   6  22
HETATM   22  C   UNL     1      -1.521   5.860 -31.180  1.00  0.00    -0.007 A 
HETATM   23  C   UNL     1      -1.608   7.188 -30.732  1.00  0.00     0.017 A 
HETATM   24  C   UNL     1      -0.702   7.667 -29.781  1.00  0.00     0.043 A 
HETATM   25  C   UNL     1       0.294   6.831 -29.294  1.00  0.00     0.116 A 
HETATM   26  F   UNL     1       1.162   7.294 -28.387  1.00  0.00    -0.206 F 
HETATM   27  C   UNL     1       0.404   5.522 -29.742  1.00  0.00     0.043 A 
HETATM   28  C   UNL     1      -0.502   5.034 -30.688  1.00  0.00     0.017 A 
ENDBRANCH   6  22
TORSDOF 5
ENDMDL
