MODEL 1
REMARK VINA RESULT:      -8.9      0.000      0.000
REMARK  8 active torsions:
REMARK  status: ('A' for Active; 'I' for Inactive)
REMARK    1  A    between atoms: C_2  and  C_3 
REMARK    2  A    between atoms: C_3  and  O_4 
REMARK    3  A    between atoms: O_4  and  C_5 
REMARK    4  A    between atoms: C_8  and  C_9 
REMARK    5  A    between atoms: N_10  and  C_11 
REMARK    6  A    between atoms: C_11  and  C_12 
REMARK    7  A    between atoms: C_25  and  C_26 
REMARK    8  A    between atoms: C_27  and  O_28 
ROOT
HETATM    1  C   UNL     1      -6.465   2.242 -32.918  1.00  0.00     0.159 A 
HETATM    2  N   UNL     1      -5.347   2.429 -31.952  1.00  0.00    -0.329 N 
HETATM    3  C   UNL     1      -5.760   2.849 -30.682  1.00  0.00     0.273 A 
HETATM    4  O   UNL     1      -5.075   3.159 -29.724  1.00  0.00    -0.266 OA
HETATM    5  C   UNL     1      -7.171   2.878 -30.785  1.00  0.00     0.129 A 
HETATM    6  C   UNL     1      -7.610   2.546 -32.031  1.00  0.00     0.034 A 
HETATM    7  N   UNL     1      -8.245   3.138 -30.026  1.00  0.00    -0.272 N 
HETATM    8  H   UNL     1      -8.293   3.412 -29.049  1.00  0.00     0.189 HD
HETATM    9  N   UNL     1      -9.398   2.990 -30.730  1.00  0.00    -0.173 NA
HETATM   10  C   UNL     1      -9.010   2.619 -31.973  1.00  0.00     0.101 A 
ENDROOT
BRANCH   1  11
HETATM   11  C   UNL     1      -6.650   0.825 -33.405  1.00  0.00    -0.030 A 
HETATM   12  C   UNL     1      -7.215   0.517 -34.654  1.00  0.00     0.012 A 
HETATM   13  C   UNL     1      -7.261  -0.804 -35.107  1.00  0.00     0.037 A 
HETATM   14  C   UNL     1      -6.738  -1.837 -34.331  1.00  0.00     0.069 A 
HETATM   15  C   UNL     1      -6.235  -1.555 -33.063  1.00  0.00     0.037 A 
HETATM   16  C   UNL     1      -6.186  -0.235 -32.607  1.00  0.00     0.012 A 
BRANCH  14  17
HETATM   17  O   UNL     1      -6.776  -3.080 -34.903  1.00  0.00    -0.348 OA
BRANCH  17  18
HETATM   18  C   UNL     1      -5.518  -3.580 -35.359  1.00  0.00     0.202 C 
BRANCH  18  19
HETATM   19  C   UNL     1      -5.194  -4.799 -34.548  1.00  0.00    -0.011 C 
HETATM   20  C   UNL     1      -4.093  -4.941 -33.797  1.00  0.00     0.009 C 
ENDBRANCH  18  19
ENDBRANCH  17  18
ENDBRANCH  14  17
ENDBRANCH   1  11
BRANCH   2  21
HETATM   21  C   UNL     1      -3.970   2.513 -32.392  1.00  0.00     0.167 C 
BRANCH  21  22
HETATM   22  C   UNL     1      -3.565   3.933 -32.684  1.00  0.00    -0.023 A 
HETATM   23  C   UNL     1      -4.226   4.686 -33.649  1.00  0.00     0.125 A 
HETATM   24  N   UNL     1      -3.943   5.979 -33.926  1.00  0.00    -0.273 NA
HETATM   25  C   UNL     1      -2.949   6.552 -33.213  1.00  0.00     0.116 A 
HETATM   26  C   UNL     1      -2.224   5.891 -32.236  1.00  0.00     0.020 A 
HETATM   27  C   UNL     1      -2.539   4.561 -31.971  1.00  0.00     0.012 A 
ENDBRANCH  21  22
ENDBRANCH   2  21
BRANCH  10  28
HETATM   28  C   UNL     1      -9.975   2.330 -33.027  1.00  0.00     0.028 A 
HETATM   29  C   UNL     1     -10.584   1.075 -33.166  1.00  0.00     0.078 A 
HETATM   30  C   UNL     1     -11.582   0.863 -34.117  1.00  0.00     0.037 A 
HETATM   31  C   UNL     1     -11.958   1.898 -34.972  1.00  0.00     0.003 A 
HETATM   32  C   UNL     1     -11.337   3.142 -34.873  1.00  0.00     0.001 A 
HETATM   33  C   UNL     1     -10.353   3.358 -33.905  1.00  0.00     0.017 A 
BRANCH  29  34
HETATM   34  O   UNL     1     -10.229  -0.011 -32.410  1.00  0.00    -0.360 OA
HETATM   35  H   UNL     1     -10.220  -0.780 -33.009  1.00  0.00     0.217 HD
ENDBRANCH  29  34
ENDBRANCH  10  28
TORSDOF 8
ENDMDL
MODEL 2
REMARK VINA RESULT:      -8.9      3.027      6.978
REMARK  8 active torsions:
REMARK  status: ('A' for Active; 'I' for Inactive)
REMARK    1  A    between atoms: C_2  and  C_3 
REMARK    2  A    between atoms: C_3  and  O_4 
REMARK    3  A    between atoms: O_4  and  C_5 
REMARK    4  A    between atoms: C_8  and  C_9 
REMARK    5  A    between atoms: N_10  and  C_11 
REMARK    6  A    between atoms: C_11  and  C_12 
REMARK    7  A    between atoms: C_25  and  C_26 
REMARK    8  A    between atoms: C_27  and  O_28 
ROOT
HETATM    1  C   UNL     1     -10.503   2.127 -33.408  1.00  0.00     0.159 A 
HETATM    2  N   UNL     1     -11.606   1.896 -34.382  1.00  0.00    -0.329 N 
HETATM    3  C   UNL     1     -11.765   2.930 -35.313  1.00  0.00     0.273 A 
HETATM    4  O   UNL     1     -12.623   3.057 -36.167  1.00  0.00    -0.266 OA
HETATM    5  C   UNL     1     -10.717   3.825 -34.996  1.00  0.00     0.129 A 
HETATM    6  C   UNL     1      -9.983   3.413 -33.925  1.00  0.00     0.034 A 
HETATM    7  N   UNL     1     -10.201   4.987 -35.424  1.00  0.00    -0.272 N 
HETATM    8  H   UNL     1     -10.493   5.574 -36.200  1.00  0.00     0.189 HD
HETATM    9  N   UNL     1      -9.138   5.368 -34.669  1.00  0.00    -0.173 NA
HETATM   10  C   UNL     1      -8.996   4.393 -33.740  1.00  0.00     0.101 A 
ENDROOT
BRANCH   1  11
HETATM   11  C   UNL     1      -9.371   1.131 -33.486  1.00  0.00    -0.030 A 
HETATM   12  C   UNL     1      -8.805   0.716 -34.702  1.00  0.00     0.012 A 
HETATM   13  C   UNL     1      -7.686  -0.121 -34.718  1.00  0.00     0.037 A 
HETATM   14  C   UNL     1      -7.106  -0.549 -33.525  1.00  0.00     0.069 A 
HETATM   15  C   UNL     1      -7.695  -0.198 -32.311  1.00  0.00     0.037 A 
HETATM   16  C   UNL     1      -8.814   0.639 -32.293  1.00  0.00     0.012 A 
BRANCH  14  17
HETATM   17  O   UNL     1      -5.976  -1.309 -33.659  1.00  0.00    -0.348 OA
BRANCH  17  18
HETATM   18  C   UNL     1      -5.922  -2.119 -34.834  1.00  0.00     0.202 C 
BRANCH  18  19
HETATM   19  C   UNL     1      -6.610  -3.415 -34.523  1.00  0.00    -0.011 C 
HETATM   20  C   UNL     1      -6.600  -4.490 -35.323  1.00  0.00     0.009 C 
ENDBRANCH  18  19
ENDBRANCH  17  18
ENDBRANCH  14  17
ENDBRANCH   1  11
BRANCH   2  21
HETATM   21  C   UNL     1     -12.619   0.887 -34.156  1.00  0.00     0.167 C 
BRANCH  21  22
HETATM   22  C   UNL     1     -13.847   1.467 -33.508  1.00  0.00    -0.023 A 
HETATM   23  C   UNL     1     -15.122   1.084 -33.911  1.00  0.00     0.125 A 
HETATM   24  N   UNL     1     -16.264   1.530 -33.339  1.00  0.00    -0.273 NA
HETATM   25  C   UNL     1     -16.133   2.405 -32.319  1.00  0.00     0.116 A 
HETATM   26  C   UNL     1     -14.913   2.856 -31.844  1.00  0.00     0.020 A 
HETATM   27  C   UNL     1     -13.755   2.379 -32.451  1.00  0.00     0.012 A 
ENDBRANCH  21  22
ENDBRANCH   2  21
BRANCH  10  28
HETATM   28  C   UNL     1      -7.928   4.423 -32.747  1.00  0.00     0.028 A 
HETATM   29  C   UNL     1      -6.599   4.715 -33.082  1.00  0.00     0.078 A 
HETATM   30  C   UNL     1      -5.621   4.843 -32.096  1.00  0.00     0.037 A 
HETATM   31  C   UNL     1      -5.956   4.641 -30.757  1.00  0.00     0.003 A 
HETATM   32  C   UNL     1      -7.265   4.314 -30.409  1.00  0.00     0.001 A 
HETATM   33  C   UNL     1      -8.247   4.208 -31.398  1.00  0.00     0.017 A 
BRANCH  29  34
HETATM   34  O   UNL     1      -6.174   4.865 -34.376  1.00  0.00    -0.360 OA
HETATM   35  H   UNL     1      -5.801   4.008 -34.651  1.00  0.00     0.217 HD
ENDBRANCH  29  34
ENDBRANCH  10  28
TORSDOF 8
ENDMDL
MODEL 3
REMARK VINA RESULT:      -8.8      1.745      2.425
REMARK  8 active torsions:
REMARK  status: ('A' for Active; 'I' for Inactive)
REMARK    1  A    between atoms: C_2  and  C_3 
REMARK    2  A    between atoms: C_3  and  O_4 
REMARK    3  A    between atoms: O_4  and  C_5 
REMARK    4  A    between atoms: C_8  and  C_9 
REMARK    5  A    between atoms: N_10  and  C_11 
REMARK    6  A    between atoms: C_11  and  C_12 
REMARK    7  A    between atoms: C_25  and  C_26 
REMARK    8  A    between atoms: C_27  and  O_28 
ROOT
HETATM    1  C   UNL     1      -6.794   3.602 -33.808  1.00  0.00     0.159 A 
HETATM    2  N   UNL     1      -5.741   4.605 -33.485  1.00  0.00    -0.329 N 
HETATM    3  C   UNL     1      -6.000   5.343 -32.323  1.00  0.00     0.273 A 
HETATM    4  O   UNL     1      -5.369   6.276 -31.860  1.00  0.00    -0.266 OA
HETATM    5  C   UNL     1      -7.202   4.781 -31.834  1.00  0.00     0.129 A 
HETATM    6  C   UNL     1      -7.687   3.799 -32.644  1.00  0.00     0.034 A 
HETATM    7  N   UNL     1      -8.044   4.912 -30.798  1.00  0.00    -0.272 N 
HETATM    8  H   UNL     1      -7.995   5.543 -30.004  1.00  0.00     0.189 HD
HETATM    9  N   UNL     1      -9.084   4.043 -30.890  1.00  0.00    -0.173 NA
HETATM   10  C   UNL     1      -8.865   3.347 -32.031  1.00  0.00     0.101 A 
ENDROOT
BRANCH   1  11
HETATM   11  C   UNL     1      -6.332   2.166 -33.772  1.00  0.00    -0.030 A 
HETATM   12  C   UNL     1      -5.463   1.671 -32.786  1.00  0.00     0.012 A 
HETATM   13  C   UNL     1      -5.153   0.309 -32.729  1.00  0.00     0.037 A 
HETATM   14  C   UNL     1      -5.711  -0.582 -33.644  1.00  0.00     0.069 A 
HETATM   15  C   UNL     1      -6.523  -0.096 -34.667  1.00  0.00     0.037 A 
HETATM   16  C   UNL     1      -6.835   1.265 -34.726  1.00  0.00     0.012 A 
BRANCH  14  17
HETATM   17  O   UNL     1      -5.392  -1.899 -33.452  1.00  0.00    -0.348 OA
BRANCH  17  18
HETATM   18  C   UNL     1      -4.853  -2.568 -34.594  1.00  0.00     0.202 C 
BRANCH  18  19
HETATM   19  C   UNL     1      -5.483  -3.927 -34.662  1.00  0.00    -0.011 C 
HETATM   20  C   UNL     1      -6.747  -4.159 -35.043  1.00  0.00     0.009 C 
ENDBRANCH  18  19
ENDBRANCH  17  18
ENDBRANCH  14  17
ENDBRANCH   1  11
BRANCH   2  21
HETATM   21  C   UNL     1      -4.753   5.010 -34.462  1.00  0.00     0.167 C 
BRANCH  21  22
HETATM   22  C   UNL     1      -3.399   5.207 -33.835  1.00  0.00    -0.023 A 
HETATM   23  C   UNL     1      -2.842   4.241 -33.003  1.00  0.00     0.125 A 
HETATM   24  N   UNL     1      -1.613   4.336 -32.449  1.00  0.00    -0.273 NA
HETATM   25  C   UNL     1      -0.902   5.449 -32.728  1.00  0.00     0.116 A 
HETATM   26  C   UNL     1      -1.363   6.473 -33.538  1.00  0.00     0.020 A 
HETATM   27  C   UNL     1      -2.632   6.348 -34.096  1.00  0.00     0.012 A 
ENDBRANCH  21  22
ENDBRANCH   2  21
BRANCH  10  28
HETATM   28  C   UNL     1      -9.760   2.281 -32.468  1.00  0.00     0.028 A 
HETATM   29  C   UNL     1     -10.976   2.539 -33.116  1.00  0.00     0.078 A 
HETATM   30  C   UNL     1     -11.756   1.498 -33.618  1.00  0.00     0.037 A 
HETATM   31  C   UNL     1     -11.347   0.177 -33.443  1.00  0.00     0.003 A 
HETATM   32  C   UNL     1     -10.159  -0.100 -32.768  1.00  0.00     0.001 A 
HETATM   33  C   UNL     1      -9.369   0.946 -32.285  1.00  0.00     0.017 A 
BRANCH  29  34
HETATM   34  O   UNL     1     -11.480   3.803 -33.274  1.00  0.00    -0.360 OA
HETATM   35  H   UNL     1     -12.443   3.741 -33.136  1.00  0.00     0.217 HD
ENDBRANCH  29  34
ENDBRANCH  10  28
TORSDOF 8
ENDMDL
MODEL 4
REMARK VINA RESULT:      -8.6      2.900      6.362
REMARK  8 active torsions:
REMARK  status: ('A' for Active; 'I' for Inactive)
REMARK    1  A    between atoms: C_2  and  C_3 
REMARK    2  A    between atoms: C_3  and  O_4 
REMARK    3  A    between atoms: O_4  and  C_5 
REMARK    4  A    between atoms: C_8  and  C_9 
REMARK    5  A    between atoms: N_10  and  C_11 
REMARK    6  A    between atoms: C_11  and  C_12 
REMARK    7  A    between atoms: C_25  and  C_26 
REMARK    8  A    between atoms: C_27  and  O_28 
ROOT
HETATM    1  C   UNL     1      -6.974   1.265 -32.984  1.00  0.00     0.159 A 
HETATM    2  N   UNL     1      -6.042   0.109 -33.104  1.00  0.00    -0.329 N 
HETATM    3  C   UNL     1      -5.372  -0.204 -31.914  1.00  0.00     0.273 A 
HETATM    4  O   UNL     1      -4.501  -1.034 -31.729  1.00  0.00    -0.266 OA
HETATM    5  C   UNL     1      -5.913   0.710 -30.979  1.00  0.00     0.129 A 
HETATM    6  C   UNL     1      -6.817   1.559 -31.542  1.00  0.00     0.034 A 
HETATM    7  N   UNL     1      -5.815   1.017 -29.678  1.00  0.00    -0.272 N 
HETATM    8  H   UNL     1      -5.241   0.590 -28.956  1.00  0.00     0.189 HD
HETATM    9  N   UNL     1      -6.630   2.053 -29.349  1.00  0.00    -0.173 NA
HETATM   10  C   UNL     1      -7.257   2.390 -30.501  1.00  0.00     0.101 A 
ENDROOT
BRANCH   1  11
HETATM   11  C   UNL     1      -8.428   0.930 -33.210  1.00  0.00    -0.030 A 
HETATM   12  C   UNL     1      -9.063  -0.161 -32.593  1.00  0.00     0.012 A 
HETATM   13  C   UNL     1     -10.437  -0.363 -32.745  1.00  0.00     0.037 A 
HETATM   14  C   UNL     1     -11.203   0.521 -33.503  1.00  0.00     0.069 A 
HETATM   15  C   UNL     1     -10.577   1.569 -34.174  1.00  0.00     0.037 A 
HETATM   16  C   UNL     1      -9.202   1.775 -34.023  1.00  0.00     0.012 A 
BRANCH  14  17
HETATM   17  O   UNL     1     -12.547   0.264 -33.527  1.00  0.00    -0.348 OA
BRANCH  17  18
HETATM   18  C   UNL     1     -13.356   1.301 -34.085  1.00  0.00     0.202 C 
BRANCH  18  19
HETATM   19  C   UNL     1     -14.117   1.936 -32.960  1.00  0.00    -0.011 C 
HETATM   20  C   UNL     1     -13.835   3.137 -32.436  1.00  0.00     0.009 C 
ENDBRANCH  18  19
ENDBRANCH  17  18
ENDBRANCH  14  17
ENDBRANCH   1  11
BRANCH   2  21
HETATM   21  C   UNL     1      -5.616  -0.392 -34.393  1.00  0.00     0.167 C 
BRANCH  21  22
HETATM   22  C   UNL     1      -5.742  -1.889 -34.478  1.00  0.00    -0.023 A 
HETATM   23  C   UNL     1      -4.616  -2.706 -34.503  1.00  0.00     0.125 A 
HETATM   24  N   UNL     1      -4.661  -4.058 -34.531  1.00  0.00    -0.273 NA
HETATM   25  C   UNL     1      -5.885  -4.627 -34.540  1.00  0.00     0.116 A 
HETATM   26  C   UNL     1      -7.068  -3.908 -34.523  1.00  0.00     0.020 A 
HETATM   27  C   UNL     1      -6.991  -2.518 -34.493  1.00  0.00     0.012 A 
ENDBRANCH  21  22
ENDBRANCH   2  21
BRANCH  10  28
HETATM   28  C   UNL     1      -8.251   3.456 -30.554  1.00  0.00     0.028 A 
HETATM   29  C   UNL     1      -7.898   4.813 -30.580  1.00  0.00     0.078 A 
HETATM   30  C   UNL     1      -8.867   5.803 -30.741  1.00  0.00     0.037 A 
HETATM   31  C   UNL     1     -10.212   5.449 -30.840  1.00  0.00     0.003 A 
HETATM   32  C   UNL     1     -10.584   4.107 -30.779  1.00  0.00     0.001 A 
HETATM   33  C   UNL     1      -9.610   3.116 -30.639  1.00  0.00     0.017 A 
BRANCH  29  34
HETATM   34  O   UNL     1      -6.609   5.248 -30.427  1.00  0.00    -0.360 OA
HETATM   35  H   UNL     1      -6.030   4.483 -30.598  1.00  0.00     0.217 HD
ENDBRANCH  29  34
ENDBRANCH  10  28
TORSDOF 8
ENDMDL
MODEL 5
REMARK VINA RESULT:      -8.6      2.003      2.735
REMARK  8 active torsions:
REMARK  status: ('A' for Active; 'I' for Inactive)
REMARK    1  A    between atoms: C_2  and  C_3 
REMARK    2  A    between atoms: C_3  and  O_4 
REMARK    3  A    between atoms: O_4  and  C_5 
REMARK    4  A    between atoms: C_8  and  C_9 
REMARK    5  A    between atoms: N_10  and  C_11 
REMARK    6  A    between atoms: C_11  and  C_12 
REMARK    7  A    between atoms: C_25  and  C_26 
REMARK    8  A    between atoms: C_27  and  O_28 
ROOT
HETATM    1  C   UNL     1      -7.894   3.375 -32.468  1.00  0.00     0.159 A 
HETATM    2  N   UNL     1      -7.134   3.512 -31.195  1.00  0.00    -0.329 N 
HETATM    3  C   UNL     1      -7.945   3.718 -30.071  1.00  0.00     0.273 A 
HETATM    4  O   UNL     1      -7.609   3.944 -28.923  1.00  0.00    -0.266 OA
HETATM    5  C   UNL     1      -9.258   3.652 -30.594  1.00  0.00     0.129 A 
HETATM    6  C   UNL     1      -9.275   3.464 -31.943  1.00  0.00     0.034 A 
HETATM    7  N   UNL     1     -10.530   3.720 -30.173  1.00  0.00    -0.272 N 
HETATM    8  H   UNL     1     -10.891   3.850 -29.233  1.00  0.00     0.189 HD
HETATM    9  N   UNL     1     -11.403   3.582 -31.205  1.00  0.00    -0.173 NA
HETATM   10  C   UNL     1     -10.629   3.419 -32.304  1.00  0.00     0.101 A 
ENDROOT
BRANCH   1  11
HETATM   11  C   UNL     1      -7.764   2.030 -33.140  1.00  0.00    -0.030 A 
HETATM   12  C   UNL     1      -7.039   1.840 -34.329  1.00  0.00     0.012 A 
HETATM   13  C   UNL     1      -6.853   0.557 -34.851  1.00  0.00     0.037 A 
HETATM   14  C   UNL     1      -7.375  -0.556 -34.196  1.00  0.00     0.069 A 
HETATM   15  C   UNL     1      -8.151  -0.378 -33.052  1.00  0.00     0.037 A 
HETATM   16  C   UNL     1      -8.338   0.904 -32.526  1.00  0.00     0.012 A 
BRANCH  14  17
HETATM   17  O   UNL     1      -7.074  -1.766 -34.760  1.00  0.00    -0.348 OA
BRANCH  17  18
HETATM   18  C   UNL     1      -5.747  -2.238 -34.520  1.00  0.00     0.202 C 
BRANCH  18  19
HETATM   19  C   UNL     1      -5.639  -3.611 -35.113  1.00  0.00    -0.011 C 
HETATM   20  C   UNL     1      -6.657  -4.477 -35.209  1.00  0.00     0.009 C 
ENDBRANCH  18  19
ENDBRANCH  17  18
ENDBRANCH  14  17
ENDBRANCH   1  11
BRANCH   2  21
HETATM   21  C   UNL     1      -5.709   3.764 -31.183  1.00  0.00     0.167 C 
BRANCH  21  22
HETATM   22  C   UNL     1      -4.917   2.489 -31.286  1.00  0.00    -0.023 A 
HETATM   23  C   UNL     1      -3.788   2.405 -32.094  1.00  0.00     0.125 A 
HETATM   24  N   UNL     1      -3.006   1.306 -32.193  1.00  0.00    -0.273 NA
HETATM   25  C   UNL     1      -3.368   0.233 -31.459  1.00  0.00     0.116 A 
HETATM   26  C   UNL     1      -4.475   0.207 -30.629  1.00  0.00     0.020 A 
HETATM   27  C   UNL     1      -5.260   1.353 -30.545  1.00  0.00     0.012 A 
ENDBRANCH  21  22
ENDBRANCH   2  21
BRANCH  10  28
HETATM   28  C   UNL     1     -11.205   3.205 -33.627  1.00  0.00     0.028 A 
HETATM   29  C   UNL     1     -11.832   2.005 -33.989  1.00  0.00     0.078 A 
HETATM   30  C   UNL     1     -12.468   1.871 -35.223  1.00  0.00     0.037 A 
HETATM   31  C   UNL     1     -12.450   2.929 -36.132  1.00  0.00     0.003 A 
HETATM   32  C   UNL     1     -11.799   4.117 -35.803  1.00  0.00     0.001 A 
HETATM   33  C   UNL     1     -11.182   4.255 -34.557  1.00  0.00     0.017 A 
BRANCH  29  34
HETATM   34  O   UNL     1     -11.841   0.898 -33.182  1.00  0.00    -0.360 OA
HETATM   35  H   UNL     1     -11.025   0.931 -32.650  1.00  0.00     0.217 HD
ENDBRANCH  29  34
ENDBRANCH  10  28
TORSDOF 8
ENDMDL
MODEL 6
REMARK VINA RESULT:      -8.5      2.321      6.219
REMARK  8 active torsions:
REMARK  status: ('A' for Active; 'I' for Inactive)
REMARK    1  A    between atoms: C_2  and  C_3 
REMARK    2  A    between atoms: C_3  and  O_4 
REMARK    3  A    between atoms: O_4  and  C_5 
REMARK    4  A    between atoms: C_8  and  C_9 
REMARK    5  A    between atoms: N_10  and  C_11 
REMARK    6  A    between atoms: C_11  and  C_12 
REMARK    7  A    between atoms: C_25  and  C_26 
REMARK    8  A    between atoms: C_27  and  O_28 
ROOT
HETATM    1  C   UNL     1      -6.289   2.446 -30.612  1.00  0.00     0.159 A 
HETATM    2  N   UNL     1      -6.483   3.862 -30.194  1.00  0.00    -0.329 N 
HETATM    3  C   UNL     1      -5.391   4.691 -30.478  1.00  0.00     0.273 A 
HETATM    4  O   UNL     1      -5.230   5.862 -30.184  1.00  0.00    -0.266 OA
HETATM    5  C   UNL     1      -4.490   3.834 -31.150  1.00  0.00     0.129 A 
HETATM    6  C   UNL     1      -4.955   2.556 -31.243  1.00  0.00     0.034 A 
HETATM    7  N   UNL     1      -3.286   3.876 -31.740  1.00  0.00    -0.272 N 
HETATM    8  H   UNL     1      -2.655   4.663 -31.859  1.00  0.00     0.189 HD
HETATM    9  N   UNL     1      -2.928   2.660 -32.228  1.00  0.00    -0.173 NA
HETATM   10  C   UNL     1      -3.962   1.839 -31.926  1.00  0.00     0.101 A 
ENDROOT
BRANCH   1  11
HETATM   11  C   UNL     1      -7.243   1.964 -31.678  1.00  0.00    -0.030 A 
HETATM   12  C   UNL     1      -8.004   0.791 -31.544  1.00  0.00     0.012 A 
HETATM   13  C   UNL     1      -8.955   0.447 -32.508  1.00  0.00     0.037 A 
HETATM   14  C   UNL     1      -9.172   1.268 -33.613  1.00  0.00     0.069 A 
HETATM   15  C   UNL     1      -8.380   2.400 -33.792  1.00  0.00     0.037 A 
HETATM   16  C   UNL     1      -7.427   2.748 -32.830  1.00  0.00     0.012 A 
BRANCH  14  17
HETATM   17  O   UNL     1     -10.174   0.869 -34.456  1.00  0.00    -0.348 OA
BRANCH  17  18
HETATM   18  C   UNL     1     -11.257   1.791 -34.595  1.00  0.00     0.202 C 
BRANCH  18  19
HETATM   19  C   UNL     1     -12.336   1.370 -33.642  1.00  0.00    -0.011 C 
HETATM   20  C   UNL     1     -13.066   0.252 -33.769  1.00  0.00     0.009 C 
ENDBRANCH  18  19
ENDBRANCH  17  18
ENDBRANCH  14  17
ENDBRANCH   1  11
BRANCH   2  21
HETATM   21  C   UNL     1      -7.535   4.245 -29.276  1.00  0.00     0.167 C 
BRANCH  21  22
HETATM   22  C   UNL     1      -8.770   4.703 -30.003  1.00  0.00    -0.023 A 
HETATM   23  C   UNL     1      -8.885   6.005 -30.479  1.00  0.00     0.125 A 
HETATM   24  N   UNL     1      -9.946   6.465 -31.180  1.00  0.00    -0.273 NA
HETATM   25  C   UNL     1     -10.946   5.590 -31.416  1.00  0.00     0.116 A 
HETATM   26  C   UNL     1     -10.936   4.275 -30.983  1.00  0.00     0.020 A 
HETATM   27  C   UNL     1      -9.831   3.829 -30.265  1.00  0.00     0.012 A 
ENDBRANCH  21  22
ENDBRANCH   2  21
BRANCH  10  28
HETATM   28  C   UNL     1      -3.970   0.434 -32.318  1.00  0.00     0.028 A 
HETATM   29  C   UNL     1      -3.107  -0.511 -31.745  1.00  0.00     0.078 A 
HETATM   30  C   UNL     1      -3.213  -1.865 -32.062  1.00  0.00     0.037 A 
HETATM   31  C   UNL     1      -4.165  -2.289 -32.990  1.00  0.00     0.003 A 
HETATM   32  C   UNL     1      -5.007  -1.358 -33.596  1.00  0.00     0.001 A 
HETATM   33  C   UNL     1      -4.912  -0.005 -33.261  1.00  0.00     0.017 A 
BRANCH  29  34
HETATM   34  O   UNL     1      -2.105  -0.172 -30.875  1.00  0.00    -0.360 OA
HETATM   35  H   UNL     1      -2.184   0.787 -30.715  1.00  0.00     0.217 HD
ENDBRANCH  29  34
ENDBRANCH  10  28
TORSDOF 8
ENDMDL
MODEL 7
REMARK VINA RESULT:      -8.4     15.602     17.383
REMARK  8 active torsions:
REMARK  status: ('A' for Active; 'I' for Inactive)
REMARK    1  A    between atoms: C_2  and  C_3 
REMARK    2  A    between atoms: C_3  and  O_4 
REMARK    3  A    between atoms: O_4  and  C_5 
REMARK    4  A    between atoms: C_8  and  C_9 
REMARK    5  A    between atoms: N_10  and  C_11 
REMARK    6  A    between atoms: C_11  and  C_12 
REMARK    7  A    between atoms: C_25  and  C_26 
REMARK    8  A    between atoms: C_27  and  O_28 
ROOT
HETATM    1  C   UNL     1      -4.989 -12.779 -38.790  1.00  0.00     0.159 A 
HETATM    2  N   UNL     1      -3.772 -12.931 -37.946  1.00  0.00    -0.329 N 
HETATM    3  C   UNL     1      -4.032 -13.424 -36.661  1.00  0.00     0.273 A 
HETATM    4  O   UNL     1      -3.257 -13.574 -35.733  1.00  0.00    -0.266 OA
HETATM    5  C   UNL     1      -5.426 -13.663 -36.673  1.00  0.00     0.129 A 
HETATM    6  C   UNL     1      -6.006 -13.309 -37.854  1.00  0.00     0.034 A 
HETATM    7  N   UNL     1      -6.388 -14.138 -35.869  1.00  0.00    -0.272 N 
HETATM    8  H   UNL     1      -6.318 -14.495 -34.921  1.00  0.00     0.189 HD
HETATM    9  N   UNL     1      -7.602 -14.113 -36.479  1.00  0.00    -0.173 NA
HETATM   10  C   UNL     1      -7.370 -13.603 -37.711  1.00  0.00     0.101 A 
ENDROOT
BRANCH   1  11
HETATM   11  C   UNL     1      -5.021 -13.656 -40.018  1.00  0.00    -0.030 A 
HETATM   12  C   UNL     1      -5.284 -13.155 -41.304  1.00  0.00     0.012 A 
HETATM   13  C   UNL     1      -5.191 -13.986 -42.423  1.00  0.00     0.037 A 
HETATM   14  C   UNL     1      -4.826 -15.324 -42.283  1.00  0.00     0.069 A 
HETATM   15  C   UNL     1      -4.627 -15.851 -41.009  1.00  0.00     0.037 A 
HETATM   16  C   UNL     1      -4.718 -15.022 -39.887  1.00  0.00     0.012 A 
BRANCH  14  17
HETATM   17  O   UNL     1      -4.701 -16.026 -43.452  1.00  0.00    -0.348 OA
BRANCH  17  18
HETATM   18  C   UNL     1      -3.627 -15.612 -44.299  1.00  0.00     0.202 C 
BRANCH  18  19
HETATM   19  C   UNL     1      -2.662 -16.756 -44.398  1.00  0.00    -0.011 C 
HETATM   20  C   UNL     1      -2.036 -17.312 -43.352  1.00  0.00     0.009 C 
ENDBRANCH  18  19
ENDBRANCH  17  18
ENDBRANCH  14  17
ENDBRANCH   1  11
BRANCH   2  21
HETATM   21  C   UNL     1      -2.519 -12.299 -38.299  1.00  0.00     0.167 C 
BRANCH  21  22
HETATM   22  C   UNL     1      -1.521 -13.296 -38.824  1.00  0.00    -0.023 A 
HETATM   23  C   UNL     1      -0.686 -14.001 -37.963  1.00  0.00     0.125 A 
HETATM   24  N   UNL     1       0.197 -14.943 -38.365  1.00  0.00    -0.273 NA
HETATM   25  C   UNL     1       0.260 -15.193 -39.691  1.00  0.00     0.116 A 
HETATM   26  C   UNL     1      -0.520 -14.544 -40.633  1.00  0.00     0.020 A 
HETATM   27  C   UNL     1      -1.421 -13.581 -40.190  1.00  0.00     0.012 A 
ENDBRANCH  21  22
ENDBRANCH   2  21
BRANCH  10  28
HETATM   28  C   UNL     1      -8.436 -13.445 -38.694  1.00  0.00     0.028 A 
HETATM   29  C   UNL     1      -9.291 -14.497 -39.052  1.00  0.00     0.078 A 
HETATM   30  C   UNL     1     -10.368 -14.285 -39.913  1.00  0.00     0.037 A 
HETATM   31  C   UNL     1     -10.582 -13.020 -40.459  1.00  0.00     0.003 A 
HETATM   32  C   UNL     1      -9.721 -11.971 -40.142  1.00  0.00     0.001 A 
HETATM   33  C   UNL     1      -8.655 -12.181 -39.263  1.00  0.00     0.017 A 
BRANCH  29  34
HETATM   34  O   UNL     1      -9.113 -15.781 -38.611  1.00  0.00    -0.360 OA
HETATM   35  H   UNL     1      -9.566 -15.849 -37.751  1.00  0.00     0.217 HD
ENDBRANCH  29  34
ENDBRANCH  10  28
TORSDOF 8
ENDMDL
MODEL 8
REMARK VINA RESULT:      -8.2     16.232     17.655
REMARK  8 active torsions:
REMARK  status: ('A' for Active; 'I' for Inactive)
REMARK    1  A    between atoms: C_2  and  C_3 
REMARK    2  A    between atoms: C_3  and  O_4 
REMARK    3  A    between atoms: O_4  and  C_5 
REMARK    4  A    between atoms: C_8  and  C_9 
REMARK    5  A    between atoms: N_10  and  C_11 
REMARK    6  A    between atoms: C_11  and  C_12 
REMARK    7  A    between atoms: C_25  and  C_26 
REMARK    8  A    between atoms: C_27  and  O_28 
ROOT
HETATM    1  C   UNL     1      -5.869 -13.975 -37.321  1.00  0.00     0.159 A 
HETATM    2  N   UNL     1      -4.840 -14.491 -36.376  1.00  0.00    -0.329 N 
HETATM    3  C   UNL     1      -5.193 -15.698 -35.759  1.00  0.00     0.273 A 
HETATM    4  O   UNL     1      -4.598 -16.309 -34.890  1.00  0.00    -0.266 OA
HETATM    5  C   UNL     1      -6.438 -16.020 -36.348  1.00  0.00     0.129 A 
HETATM    6  C   UNL     1      -6.858 -15.073 -37.232  1.00  0.00     0.034 A 
HETATM    7  N   UNL     1      -7.366 -16.988 -36.312  1.00  0.00    -0.272 N 
HETATM    8  H   UNL     1      -7.380 -17.846 -35.768  1.00  0.00     0.189 HD
HETATM    9  N   UNL     1      -8.400 -16.716 -37.149  1.00  0.00    -0.173 NA
HETATM   10  C   UNL     1      -8.089 -15.531 -37.726  1.00  0.00     0.101 A 
ENDROOT
BRANCH   1  11
HETATM   11  C   UNL     1      -5.423 -13.899 -38.761  1.00  0.00    -0.030 A 
HETATM   12  C   UNL     1      -4.774 -14.960 -39.414  1.00  0.00     0.012 A 
HETATM   13  C   UNL     1      -4.482 -14.884 -40.778  1.00  0.00     0.037 A 
HETATM   14  C   UNL     1      -4.839 -13.757 -41.516  1.00  0.00     0.069 A 
HETATM   15  C   UNL     1      -5.424 -12.671 -40.870  1.00  0.00     0.037 A 
HETATM   16  C   UNL     1      -5.719 -12.744 -39.505  1.00  0.00     0.012 A 
BRANCH  14  17
HETATM   17  O   UNL     1      -4.565 -13.819 -42.856  1.00  0.00    -0.348 OA
BRANCH  17  18
HETATM   18  C   UNL     1      -5.155 -14.922 -43.548  1.00  0.00     0.202 C 
BRANCH  18  19
HETATM   19  C   UNL     1      -4.102 -15.517 -44.434  1.00  0.00    -0.011 C 
HETATM   20  C   UNL     1      -2.954 -16.051 -43.994  1.00  0.00     0.009 C 
ENDBRANCH  18  19
ENDBRANCH  17  18
ENDBRANCH  14  17
ENDBRANCH   1  11
BRANCH   2  21
HETATM   21  C   UNL     1      -3.768 -13.651 -35.888  1.00  0.00     0.167 C 
BRANCH  21  22
HETATM   22  C   UNL     1      -2.566 -13.699 -36.792  1.00  0.00    -0.023 A 
HETATM   23  C   UNL     1      -1.689 -14.779 -36.768  1.00  0.00     0.125 A 
HETATM   24  N   UNL     1      -0.620 -14.906 -37.586  1.00  0.00    -0.273 NA
HETATM   25  C   UNL     1      -0.407 -13.908 -38.470  1.00  0.00     0.116 A 
HETATM   26  C   UNL     1      -1.213 -12.787 -38.574  1.00  0.00     0.020 A 
HETATM   27  C   UNL     1      -2.307 -12.684 -37.719  1.00  0.00     0.012 A 
ENDBRANCH  21  22
ENDBRANCH   2  21
BRANCH  10  28
HETATM   28  C   UNL     1      -8.950 -14.909 -38.724  1.00  0.00     0.028 A 
HETATM   29  C   UNL     1      -9.535 -15.636 -39.771  1.00  0.00     0.078 A 
HETATM   30  C   UNL     1     -10.440 -15.035 -40.645  1.00  0.00     0.037 A 
HETATM   31  C   UNL     1     -10.743 -13.680 -40.506  1.00  0.00     0.003 A 
HETATM   32  C   UNL     1     -10.142 -12.933 -39.495  1.00  0.00     0.001 A 
HETATM   33  C   UNL     1      -9.253 -13.544 -38.608  1.00  0.00     0.017 A 
BRANCH  29  34
HETATM   34  O   UNL     1      -9.244 -16.952 -40.014  1.00  0.00    -0.360 OA
HETATM   35  H   UNL     1      -9.163 -17.049 -40.981  1.00  0.00     0.217 HD
ENDBRANCH  29  34
ENDBRANCH  10  28
TORSDOF 8
ENDMDL
MODEL 9
REMARK VINA RESULT:      -8.1      2.718      6.734
REMARK  8 active torsions:
REMARK  status: ('A' for Active; 'I' for Inactive)
REMARK    1  A    between atoms: C_2  and  C_3 
REMARK    2  A    between atoms: C_3  and  O_4 
REMARK    3  A    between atoms: O_4  and  C_5 
REMARK    4  A    between atoms: C_8  and  C_9 
REMARK    5  A    between atoms: N_10  and  C_11 
REMARK    6  A    between atoms: C_11  and  C_12 
REMARK    7  A    between atoms: C_25  and  C_26 
REMARK    8  A    between atoms: C_27  and  O_28 
ROOT
HETATM    1  C   UNL     1      -6.705   3.493 -32.375  1.00  0.00     0.159 A 
HETATM    2  N   UNL     1      -7.301   4.562 -31.527  1.00  0.00    -0.329 N 
HETATM    3  C   UNL     1      -7.502   4.181 -30.195  1.00  0.00     0.273 A 
HETATM    4  O   UNL     1      -8.040   4.806 -29.299  1.00  0.00    -0.266 OA
HETATM    5  C   UNL     1      -6.974   2.870 -30.141  1.00  0.00     0.129 A 
HETATM    6  C   UNL     1      -6.517   2.441 -31.351  1.00  0.00     0.034 A 
HETATM    7  N   UNL     1      -6.776   1.884 -29.254  1.00  0.00    -0.272 N 
HETATM    8  H   UNL     1      -6.991   1.857 -28.262  1.00  0.00     0.189 HD
HETATM    9  N   UNL     1      -6.197   0.801 -29.836  1.00  0.00    -0.173 NA
HETATM   10  C   UNL     1      -6.031   1.143 -31.136  1.00  0.00     0.101 A 
ENDROOT
BRANCH   1  11
HETATM   11  C   UNL     1      -5.339   3.815 -32.931  1.00  0.00    -0.030 A 
HETATM   12  C   UNL     1      -5.153   4.499 -34.143  1.00  0.00     0.012 A 
HETATM   13  C   UNL     1      -3.872   4.873 -34.560  1.00  0.00     0.037 A 
HETATM   14  C   UNL     1      -2.759   4.582 -33.774  1.00  0.00     0.069 A 
HETATM   15  C   UNL     1      -2.921   3.846 -32.601  1.00  0.00     0.037 A 
HETATM   16  C   UNL     1      -4.200   3.471 -32.181  1.00  0.00     0.012 A 
BRANCH  14  17
HETATM   17  O   UNL     1      -1.564   5.054 -34.246  1.00  0.00    -0.348 OA
BRANCH  17  18
HETATM   18  C   UNL     1      -1.466   6.477 -34.339  1.00  0.00     0.202 C 
BRANCH  18  19
HETATM   19  C   UNL     1      -1.045   6.991 -32.995  1.00  0.00    -0.011 C 
HETATM   20  C   UNL     1      -1.684   7.954 -32.318  1.00  0.00     0.009 C 
ENDBRANCH  18  19
ENDBRANCH  17  18
ENDBRANCH  14  17
ENDBRANCH   1  11
BRANCH   2  21
HETATM   21  C   UNL     1      -7.930   5.729 -32.107  1.00  0.00     0.167 C 
BRANCH  21  22
HETATM   22  C   UNL     1      -9.118   5.360 -32.953  1.00  0.00    -0.023 A 
HETATM   23  C   UNL     1     -10.313   4.946 -32.374  1.00  0.00     0.125 A 
HETATM   24  N   UNL     1     -11.431   4.646 -33.074  1.00  0.00    -0.273 NA
HETATM   25  C   UNL     1     -11.357   4.757 -34.417  1.00  0.00     0.116 A 
HETATM   26  C   UNL     1     -10.217   5.154 -35.094  1.00  0.00     0.020 A 
HETATM   27  C   UNL     1      -9.082   5.458 -34.348  1.00  0.00     0.012 A 
ENDBRANCH  21  22
ENDBRANCH   2  21
BRANCH  10  28
HETATM   28  C   UNL     1      -5.403   0.243 -32.096  1.00  0.00     0.028 A 
HETATM   29  C   UNL     1      -4.120  -0.288 -31.902  1.00  0.00     0.078 A 
HETATM   30  C   UNL     1      -3.591  -1.230 -32.783  1.00  0.00     0.037 A 
HETATM   31  C   UNL     1      -4.329  -1.627 -33.899  1.00  0.00     0.003 A 
HETATM   32  C   UNL     1      -5.591  -1.083 -34.127  1.00  0.00     0.001 A 
HETATM   33  C   UNL     1      -6.126  -0.155 -33.230  1.00  0.00     0.017 A 
BRANCH  29  34
HETATM   34  O   UNL     1      -3.306   0.096 -30.869  1.00  0.00    -0.360 OA
HETATM   35  H   UNL     1      -2.649  -0.614 -30.749  1.00  0.00     0.217 HD
ENDBRANCH  29  34
ENDBRANCH  10  28
TORSDOF 8
ENDMDL
MODEL 10
REMARK VINA RESULT:      -8.1      3.112      7.330
REMARK  8 active torsions:
REMARK  status: ('A' for Active; 'I' for Inactive)
REMARK    1  A    between atoms: C_2  and  C_3 
REMARK    2  A    between atoms: C_3  and  O_4 
REMARK    3  A    between atoms: O_4  and  C_5 
REMARK    4  A    between atoms: C_8  and  C_9 
REMARK    5  A    between atoms: N_10  and  C_11 
REMARK    6  A    between atoms: C_11  and  C_12 
REMARK    7  A    between atoms: C_25  and  C_26 
REMARK    8  A    between atoms: C_27  and  O_28 
ROOT
HETATM    1  C   UNL     1      -6.110   3.316 -30.308  1.00  0.00     0.159 A 
HETATM    2  N   UNL     1      -7.340   2.541 -30.630  1.00  0.00    -0.329 N 
HETATM    3  C   UNL     1      -8.528   3.193 -30.277  1.00  0.00     0.273 A 
HETATM    4  O   UNL     1      -9.671   2.778 -30.343  1.00  0.00    -0.266 OA
HETATM    5  C   UNL     1      -8.086   4.439 -29.776  1.00  0.00     0.129 A 
HETATM    6  C   UNL     1      -6.728   4.549 -29.771  1.00  0.00     0.034 A 
HETATM    7  N   UNL     1      -8.591   5.581 -29.286  1.00  0.00    -0.272 N 
HETATM    8  H   UNL     1      -9.561   5.850 -29.149  1.00  0.00     0.189 HD
HETATM    9  N   UNL     1      -7.608   6.457 -28.952  1.00  0.00    -0.173 NA
HETATM   10  C   UNL     1      -6.450   5.823 -29.255  1.00  0.00     0.101 A 
ENDROOT
BRANCH   1  11
HETATM   11  C   UNL     1      -5.286   3.721 -31.506  1.00  0.00    -0.030 A 
HETATM   12  C   UNL     1      -5.839   4.351 -32.632  1.00  0.00     0.012 A 
HETATM   13  C   UNL     1      -5.019   4.808 -33.667  1.00  0.00     0.037 A 
HETATM   14  C   UNL     1      -3.635   4.656 -33.593  1.00  0.00     0.069 A 
HETATM   15  C   UNL     1      -3.077   3.975 -32.513  1.00  0.00     0.037 A 
HETATM   16  C   UNL     1      -3.895   3.517 -31.476  1.00  0.00     0.012 A 
BRANCH  14  17
HETATM   17  O   UNL     1      -2.927   5.201 -34.629  1.00  0.00    -0.348 OA
BRANCH  17  18
HETATM   18  C   UNL     1      -1.511   5.251 -34.440  1.00  0.00     0.202 C 
BRANCH  18  19
HETATM   19  C   UNL     1      -1.155   6.655 -34.052  1.00  0.00    -0.011 C 
HETATM   20  C   UNL     1      -0.830   7.040 -32.810  1.00  0.00     0.009 C 
ENDBRANCH  18  19
ENDBRANCH  17  18
ENDBRANCH  14  17
ENDBRANCH   1  11
BRANCH   2  21
HETATM   21  C   UNL     1      -7.289   1.128 -30.940  1.00  0.00     0.167 C 
BRANCH  21  22
HETATM   22  C   UNL     1      -7.401   0.877 -32.419  1.00  0.00    -0.023 A 
HETATM   23  C   UNL     1      -8.636   0.875 -33.058  1.00  0.00     0.125 A 
HETATM   24  N   UNL     1      -8.802   0.703 -34.389  1.00  0.00    -0.273 NA
HETATM   25  C   UNL     1      -7.684   0.519 -35.123  1.00  0.00     0.116 A 
HETATM   26  C   UNL     1      -6.407   0.497 -34.588  1.00  0.00     0.020 A 
HETATM   27  C   UNL     1      -6.268   0.677 -33.215  1.00  0.00     0.012 A 
ENDBRANCH  21  22
ENDBRANCH   2  21
BRANCH  10  28
HETATM   28  C   UNL     1      -5.151   6.458 -29.065  1.00  0.00     0.028 A 
HETATM   29  C   UNL     1      -4.571   6.620 -27.799  1.00  0.00     0.078 A 
HETATM   30  C   UNL     1      -3.281   7.132 -27.661  1.00  0.00     0.037 A 
HETATM   31  C   UNL     1      -2.566   7.526 -28.792  1.00  0.00     0.003 A 
HETATM   32  C   UNL     1      -3.141   7.406 -30.056  1.00  0.00     0.001 A 
HETATM   33  C   UNL     1      -4.425   6.873 -30.192  1.00  0.00     0.017 A 
BRANCH  29  34
HETATM   34  O   UNL     1      -5.228   6.318 -26.636  1.00  0.00    -0.360 OA
HETATM   35  H   UNL     1      -4.557   6.297 -25.930  1.00  0.00     0.217 HD
ENDBRANCH  29  34
ENDBRANCH  10  28
TORSDOF 8
ENDMDL
