MODEL 1
REMARK VINA RESULT:      -8.4      0.000      0.000
REMARK  8 active torsions:
REMARK  status: ('A' for Active; 'I' for Inactive)
REMARK    1  A    between atoms: C_8  and  C_9 
REMARK       I    between atoms: C_9  and  N_10 
REMARK    2  A    between atoms: N_10  and  N_11 
REMARK    3  A    between atoms: N_11  and  C_12 
REMARK    4  A    between atoms: C_12  and  N_13 
REMARK    5  A    between atoms: N_13  and  C_14 
REMARK    6  A    between atoms: C_15  and  O_16 
REMARK    7  A    between atoms: C_19  and  O_20 
REMARK    8  A    between atoms: C_26  and  C_27 
ROOT
HETATM    1  C   UNL     1      -4.864   4.061 -33.657  1.00  0.00     0.275 C 
HETATM    2  N   UNL     1      -5.518   2.872 -33.411  1.00  0.00    -0.263 N 
HETATM    3  O   UNL     1      -5.179   4.823 -34.569  1.00  0.00    -0.266 OA
HETATM    4  H   UNL     1      -5.105   2.185 -32.784  1.00  0.00     0.190 HD
ENDROOT
BRANCH   2   5
HETATM    5  N   UNL     1      -6.548   2.447 -34.275  1.00  0.00    -0.273 N 
HETATM    6  H   UNL     1      -6.858   3.184 -34.913  1.00  0.00     0.189 HD
BRANCH   5   7
HETATM    7  C   UNL     1      -7.542   1.670 -33.756  1.00  0.00     0.191 C 
HETATM    8  S   UNL     1      -9.122   2.205 -33.802  1.00  0.00    -0.039 SA
BRANCH   7   9
HETATM    9  N   UNL     1      -7.246   0.502 -33.125  1.00  0.00    -0.330 N 
HETATM   10  H   UNL     1      -7.850   0.281 -32.337  1.00  0.00     0.168 HD
BRANCH   9  11
HETATM   11  C   UNL     1      -6.421  -0.583 -33.511  1.00  0.00     0.068 A 
HETATM   12  C   UNL     1      -5.197  -0.742 -32.827  1.00  0.00     0.097 A 
HETATM   13  C   UNL     1      -4.349  -1.812 -33.145  1.00  0.00     0.075 A 
HETATM   14  C   UNL     1      -4.718  -2.733 -34.127  1.00  0.00     0.070 A 
HETATM   15  C   UNL     1      -5.939  -2.581 -34.786  1.00  0.00     0.039 A 
HETATM   16  C   UNL     1      -6.792  -1.521 -34.475  1.00  0.00     0.035 A 
BRANCH  12  17
HETATM   17  O   UNL     1      -4.929   0.218 -31.877  1.00  0.00    -0.354 OA
HETATM   18  C   UNL     1      -3.810   0.002 -31.026  1.00  0.00     0.210 C 
ENDBRANCH  12  17
BRANCH  14  19
HETATM   19  O   UNL     1      -3.990  -3.816 -34.530  1.00  0.00    -0.356 OA
HETATM   20  C   UNL     1      -3.593  -4.744 -33.528  1.00  0.00     0.210 C 
ENDBRANCH  14  19
ENDBRANCH   9  11
ENDBRANCH   7   9
ENDBRANCH   5   7
ENDBRANCH   2   5
BRANCH   1  21
HETATM   21  C   UNL     1      -3.751   4.317 -32.768  1.00  0.00     0.098 A 
HETATM   22  C   UNL     1      -3.194   5.524 -32.389  1.00  0.00     0.138 A 
HETATM   23  N   UNL     1      -3.449   6.814 -32.727  1.00  0.00    -0.370 N 
HETATM   24  N   UNL     1      -2.172   5.210 -31.523  1.00  0.00    -0.240 N 
HETATM   25  C   UNL     1      -2.789   7.921 -32.042  1.00  0.00     0.081 C 
HETATM   26  H   UNL     1      -3.931   7.060 -33.593  1.00  0.00     0.161 HD
HETATM   27  C   UNL     1      -3.633   8.358 -30.848  1.00  0.00     0.032 C 
HETATM   28  C   UNL     1      -1.362   7.521 -31.658  1.00  0.00     0.061 C 
HETATM   29  C   UNL     1      -1.313   6.191 -30.882  1.00  0.00     0.221 C 
HETATM   30  N   UNL     1      -2.068   3.897 -31.268  1.00  0.00    -0.181 NA
HETATM   31  C   UNL     1      -2.995   3.353 -32.061  1.00  0.00     0.160 A 
BRANCH  29  32
HETATM   32  C   UNL     1       0.124   5.723 -30.778  1.00  0.00     0.409 C 
HETATM   33  F   UNL     1       0.509   4.981 -31.841  1.00  0.00    -0.169 F 
HETATM   34  F   UNL     1       0.948   6.808 -30.751  1.00  0.00    -0.169 F 
HETATM   35  F   UNL     1       0.389   5.030 -29.651  1.00  0.00    -0.169 F 
ENDBRANCH  29  32
ENDBRANCH   1  21
TORSDOF 8
ENDMDL
MODEL 2
REMARK VINA RESULT:      -8.0      1.724      2.234
REMARK  8 active torsions:
REMARK  status: ('A' for Active; 'I' for Inactive)
REMARK    1  A    between atoms: C_8  and  C_9 
REMARK       I    between atoms: C_9  and  N_10 
REMARK    2  A    between atoms: N_10  and  N_11 
REMARK    3  A    between atoms: N_11  and  C_12 
REMARK    4  A    between atoms: C_12  and  N_13 
REMARK    5  A    between atoms: N_13  and  C_14 
REMARK    6  A    between atoms: C_15  and  O_16 
REMARK    7  A    between atoms: C_19  and  O_20 
REMARK    8  A    between atoms: C_26  and  C_27 
ROOT
HETATM    1  C   UNL     1      -5.911   4.043 -30.742  1.00  0.00     0.275 C 
HETATM    2  N   UNL     1      -5.635   2.727 -31.046  1.00  0.00    -0.263 N 
HETATM    3  O   UNL     1      -7.049   4.462 -30.545  1.00  0.00    -0.266 OA
HETATM    4  H   UNL     1      -4.716   2.468 -31.396  1.00  0.00     0.190 HD
ENDROOT
BRANCH   2   5
HETATM    5  N   UNL     1      -6.694   1.812 -31.222  1.00  0.00    -0.273 N 
HETATM    6  H   UNL     1      -6.592   0.974 -30.646  1.00  0.00     0.189 HD
BRANCH   5   7
HETATM    7  C   UNL     1      -7.152   1.596 -32.489  1.00  0.00     0.191 C 
HETATM    8  S   UNL     1      -8.777   1.773 -32.824  1.00  0.00    -0.039 SA
BRANCH   7   9
HETATM    9  N   UNL     1      -6.309   1.156 -33.462  1.00  0.00    -0.330 N 
HETATM   10  H   UNL     1      -5.809   1.892 -33.954  1.00  0.00     0.168 HD
BRANCH   9  11
HETATM   11  C   UNL     1      -5.808  -0.138 -33.745  1.00  0.00     0.068 A 
HETATM   12  C   UNL     1      -4.575  -0.498 -33.161  1.00  0.00     0.097 A 
HETATM   13  C   UNL     1      -4.040  -1.775 -33.383  1.00  0.00     0.075 A 
HETATM   14  C   UNL     1      -4.731  -2.700 -34.168  1.00  0.00     0.070 A 
HETATM   15  C   UNL     1      -5.959  -2.344 -34.727  1.00  0.00     0.039 A 
HETATM   16  C   UNL     1      -6.503  -1.077 -34.510  1.00  0.00     0.035 A 
BRANCH  12  17
HETATM   17  O   UNL     1      -3.977   0.484 -32.405  1.00  0.00    -0.354 OA
HETATM   18  C   UNL     1      -3.266   0.074 -31.243  1.00  0.00     0.210 C 
ENDBRANCH  12  17
BRANCH  14  19
HETATM   19  O   UNL     1      -4.325  -3.972 -34.460  1.00  0.00    -0.356 OA
HETATM   20  C   UNL     1      -3.500  -4.628 -33.505  1.00  0.00     0.210 C 
ENDBRANCH  14  19
ENDBRANCH   9  11
ENDBRANCH   7   9
ENDBRANCH   5   7
ENDBRANCH   2   5
BRANCH   1  21
HETATM   21  C   UNL     1      -4.743   4.897 -30.710  1.00  0.00     0.098 A 
HETATM   22  C   UNL     1      -3.647   4.912 -31.553  1.00  0.00     0.138 A 
HETATM   23  N   UNL     1      -3.280   4.152 -32.616  1.00  0.00    -0.370 N 
HETATM   24  N   UNL     1      -2.832   5.921 -31.091  1.00  0.00    -0.240 N 
HETATM   25  C   UNL     1      -2.117   4.497 -33.428  1.00  0.00     0.081 C 
HETATM   26  H   UNL     1      -3.655   3.214 -32.764  1.00  0.00     0.161 HD
HETATM   27  C   UNL     1      -2.548   5.404 -34.578  1.00  0.00     0.032 C 
HETATM   28  C   UNL     1      -1.030   5.116 -32.546  1.00  0.00     0.061 C 
HETATM   29  C   UNL     1      -1.560   6.283 -31.691  1.00  0.00     0.221 C 
HETATM   30  N   UNL     1      -3.349   6.597 -30.054  1.00  0.00    -0.181 NA
HETATM   31  C   UNL     1      -4.485   5.943 -29.794  1.00  0.00     0.160 A 
BRANCH  29  32
HETATM   32  C   UNL     1      -0.519   6.662 -30.658  1.00  0.00     0.409 C 
HETATM   33  F   UNL     1      -0.385   5.730 -29.687  1.00  0.00    -0.169 F 
HETATM   34  F   UNL     1       0.698   6.762 -31.262  1.00  0.00    -0.169 F 
HETATM   35  F   UNL     1      -0.741   7.859 -30.076  1.00  0.00    -0.169 F 
ENDBRANCH  29  32
ENDBRANCH   1  21
TORSDOF 8
ENDMDL
MODEL 3
REMARK VINA RESULT:      -7.8      4.750      7.671
REMARK  8 active torsions:
REMARK  status: ('A' for Active; 'I' for Inactive)
REMARK    1  A    between atoms: C_8  and  C_9 
REMARK       I    between atoms: C_9  and  N_10 
REMARK    2  A    between atoms: N_10  and  N_11 
REMARK    3  A    between atoms: N_11  and  C_12 
REMARK    4  A    between atoms: C_12  and  N_13 
REMARK    5  A    between atoms: N_13  and  C_14 
REMARK    6  A    between atoms: C_15  and  O_16 
REMARK    7  A    between atoms: C_19  and  O_20 
REMARK    8  A    between atoms: C_26  and  C_27 
ROOT
HETATM    1  C   UNL     1      -5.113   0.805 -30.500  1.00  0.00     0.275 C 
HETATM    2  N   UNL     1      -4.669   2.072 -30.816  1.00  0.00    -0.263 N 
HETATM    3  O   UNL     1      -5.784   0.559 -29.501  1.00  0.00    -0.266 OA
HETATM    4  H   UNL     1      -3.958   2.198 -31.532  1.00  0.00     0.190 HD
ENDROOT
BRANCH   2   5
HETATM    5  N   UNL     1      -4.916   3.141 -29.930  1.00  0.00    -0.273 N 
HETATM    6  H   UNL     1      -5.315   2.833 -29.040  1.00  0.00     0.189 HD
BRANCH   5   7
HETATM    7  C   UNL     1      -5.448   4.289 -30.441  1.00  0.00     0.191 C 
HETATM    8  S   UNL     1      -4.491   5.646 -30.602  1.00  0.00    -0.039 SA
BRANCH   7   9
HETATM    9  N   UNL     1      -6.773   4.361 -30.739  1.00  0.00    -0.330 N 
HETATM   10  H   UNL     1      -7.209   5.252 -30.516  1.00  0.00     0.168 HD
BRANCH   9  11
HETATM   11  C   UNL     1      -7.597   3.524 -31.530  1.00  0.00     0.068 A 
HETATM   12  C   UNL     1      -7.545   3.700 -32.930  1.00  0.00     0.097 A 
HETATM   13  C   UNL     1      -8.317   2.884 -33.768  1.00  0.00     0.075 A 
HETATM   14  C   UNL     1      -9.128   1.885 -33.225  1.00  0.00     0.070 A 
HETATM   15  C   UNL     1      -9.161   1.705 -31.842  1.00  0.00     0.039 A 
HETATM   16  C   UNL     1      -8.393   2.509 -30.997  1.00  0.00     0.035 A 
BRANCH  12  17
HETATM   17  O   UNL     1      -6.714   4.708 -33.362  1.00  0.00    -0.354 OA
HETATM   18  C   UNL     1      -5.612   4.341 -34.183  1.00  0.00     0.210 C 
ENDBRANCH  12  17
BRANCH  14  19
HETATM   19  O   UNL     1      -9.926   1.024 -33.926  1.00  0.00    -0.356 OA
HETATM   20  C   UNL     1     -11.311   1.013 -33.605  1.00  0.00     0.210 C 
ENDBRANCH  14  19
ENDBRANCH   9  11
ENDBRANCH   7   9
ENDBRANCH   5   7
ENDBRANCH   2   5
BRANCH   1  21
HETATM   21  C   UNL     1      -4.689  -0.217 -31.433  1.00  0.00     0.098 A 
HETATM   22  C   UNL     1      -5.403  -0.825 -32.449  1.00  0.00     0.138 A 
HETATM   23  N   UNL     1      -6.686  -0.717 -32.878  1.00  0.00    -0.370 N 
HETATM   24  N   UNL     1      -4.533  -1.713 -33.040  1.00  0.00    -0.240 N 
HETATM   25  C   UNL     1      -7.136  -1.384 -34.096  1.00  0.00     0.081 C 
HETATM   26  H   UNL     1      -7.428  -0.358 -32.276  1.00  0.00     0.161 HD
HETATM   27  C   UNL     1      -6.952  -0.448 -35.288  1.00  0.00     0.032 C 
HETATM   28  C   UNL     1      -6.407  -2.720 -34.259  1.00  0.00     0.061 C 
HETATM   29  C   UNL     1      -4.877  -2.570 -34.161  1.00  0.00     0.221 C 
HETATM   30  N   UNL     1      -3.296  -1.678 -32.523  1.00  0.00    -0.181 NA
HETATM   31  C   UNL     1      -3.406  -0.805 -31.517  1.00  0.00     0.160 A 
BRANCH  29  32
HETATM   32  C   UNL     1      -4.244  -3.943 -34.055  1.00  0.00     0.409 C 
HETATM   33  F   UNL     1      -4.057  -4.333 -32.774  1.00  0.00    -0.169 F 
HETATM   34  F   UNL     1      -5.075  -4.864 -34.618  1.00  0.00    -0.169 F 
HETATM   35  F   UNL     1      -3.072  -4.052 -34.714  1.00  0.00    -0.169 F 
ENDBRANCH  29  32
ENDBRANCH   1  21
TORSDOF 8
ENDMDL
MODEL 4
REMARK VINA RESULT:      -7.8      4.477      9.013
REMARK  8 active torsions:
REMARK  status: ('A' for Active; 'I' for Inactive)
REMARK    1  A    between atoms: C_8  and  C_9 
REMARK       I    between atoms: C_9  and  N_10 
REMARK    2  A    between atoms: N_10  and  N_11 
REMARK    3  A    between atoms: N_11  and  C_12 
REMARK    4  A    between atoms: C_12  and  N_13 
REMARK    5  A    between atoms: N_13  and  C_14 
REMARK    6  A    between atoms: C_15  and  O_16 
REMARK    7  A    between atoms: C_19  and  O_20 
REMARK    8  A    between atoms: C_26  and  C_27 
ROOT
HETATM    1  C   UNL     1      -3.717   3.035 -31.907  1.00  0.00     0.275 C 
HETATM    2  N   UNL     1      -4.037   4.286 -32.391  1.00  0.00    -0.263 N 
HETATM    3  O   UNL     1      -2.692   2.804 -31.269  1.00  0.00    -0.266 OA
HETATM    4  H   UNL     1      -4.782   4.391 -33.076  1.00  0.00     0.190 HD
ENDROOT
BRANCH   2   5
HETATM    5  N   UNL     1      -3.128   5.352 -32.231  1.00  0.00    -0.273 N 
HETATM    6  H   UNL     1      -3.592   6.241 -32.028  1.00  0.00     0.189 HD
BRANCH   5   7
HETATM    7  C   UNL     1      -2.073   5.430 -33.092  1.00  0.00     0.191 C 
HETATM    8  S   UNL     1      -2.306   5.138 -34.718  1.00  0.00    -0.039 SA
BRANCH   7   9
HETATM    9  N   UNL     1      -0.816   5.661 -32.624  1.00  0.00    -0.330 N 
HETATM   10  H   UNL     1      -0.129   5.874 -33.342  1.00  0.00     0.168 HD
BRANCH   9  11
HETATM   11  C   UNL     1      -0.342   5.910 -31.313  1.00  0.00     0.068 A 
HETATM   12  C   UNL     1      -0.608   7.179 -30.757  1.00  0.00     0.097 A 
HETATM   13  C   UNL     1      -0.188   7.477 -29.454  1.00  0.00     0.075 A 
HETATM   14  C   UNL     1       0.482   6.516 -28.694  1.00  0.00     0.070 A 
HETATM   15  C   UNL     1       0.727   5.256 -29.243  1.00  0.00     0.039 A 
HETATM   16  C   UNL     1       0.308   4.948 -30.539  1.00  0.00     0.035 A 
BRANCH  12  17
HETATM   17  O   UNL     1      -1.275   8.053 -31.586  1.00  0.00    -0.354 OA
HETATM   18  C   UNL     1      -2.409   8.725 -31.053  1.00  0.00     0.210 C 
ENDBRANCH  12  17
BRANCH  14  19
HETATM   19  O   UNL     1       0.943   6.674 -27.417  1.00  0.00    -0.356 OA
HETATM   20  C   UNL     1       0.434   7.775 -26.673  1.00  0.00     0.210 C 
ENDBRANCH  14  19
ENDBRANCH   9  11
ENDBRANCH   7   9
ENDBRANCH   5   7
ENDBRANCH   2   5
BRANCH   1  21
HETATM   21  C   UNL     1      -4.680   2.009 -32.244  1.00  0.00     0.098 A 
HETATM   22  C   UNL     1      -4.463   0.703 -32.643  1.00  0.00     0.138 A 
HETATM   23  N   UNL     1      -3.341  -0.023 -32.883  1.00  0.00    -0.370 N 
HETATM   24  N   UNL     1      -5.712   0.154 -32.827  1.00  0.00    -0.240 N 
HETATM   25  C   UNL     1      -3.409  -1.455 -33.152  1.00  0.00     0.081 C 
HETATM   26  H   UNL     1      -2.447   0.422 -33.099  1.00  0.00     0.161 HD
HETATM   27  C   UNL     1      -3.290  -2.227 -31.840  1.00  0.00     0.032 C 
HETATM   28  C   UNL     1      -4.686  -1.781 -33.930  1.00  0.00     0.061 C 
HETATM   29  C   UNL     1      -5.948  -1.215 -33.251  1.00  0.00     0.221 C 
HETATM   30  N   UNL     1      -6.716   0.988 -32.518  1.00  0.00    -0.181 NA
HETATM   31  C   UNL     1      -6.089   2.127 -32.212  1.00  0.00     0.160 A 
BRANCH  29  32
HETATM   32  C   UNL     1      -7.123  -1.332 -34.200  1.00  0.00     0.409 C 
HETATM   33  F   UNL     1      -7.013  -0.513 -35.270  1.00  0.00    -0.169 F 
HETATM   34  F   UNL     1      -7.177  -2.601 -34.694  1.00  0.00    -0.169 F 
HETATM   35  F   UNL     1      -8.319  -1.114 -33.614  1.00  0.00    -0.169 F 
ENDBRANCH  29  32
ENDBRANCH   1  21
TORSDOF 8
ENDMDL
MODEL 5
REMARK VINA RESULT:      -7.7      4.181      8.608
REMARK  8 active torsions:
REMARK  status: ('A' for Active; 'I' for Inactive)
REMARK    1  A    between atoms: C_8  and  C_9 
REMARK       I    between atoms: C_9  and  N_10 
REMARK    2  A    between atoms: N_10  and  N_11 
REMARK    3  A    between atoms: N_11  and  C_12 
REMARK    4  A    between atoms: C_12  and  N_13 
REMARK    5  A    between atoms: N_13  and  C_14 
REMARK    6  A    between atoms: C_15  and  O_16 
REMARK    7  A    between atoms: C_19  and  O_20 
REMARK    8  A    between atoms: C_26  and  C_27 
ROOT
HETATM    1  C   UNL     1      -5.313   0.959 -30.313  1.00  0.00     0.275 C 
HETATM    2  N   UNL     1      -4.976   2.272 -30.564  1.00  0.00    -0.263 N 
HETATM    3  O   UNL     1      -5.864   0.594 -29.276  1.00  0.00    -0.266 OA
HETATM    4  H   UNL     1      -4.349   2.498 -31.333  1.00  0.00     0.190 HD
ENDROOT
BRANCH   2   5
HETATM    5  N   UNL     1      -5.189   3.252 -29.573  1.00  0.00    -0.273 N 
HETATM    6  H   UNL     1      -5.494   2.853 -28.681  1.00  0.00     0.189 HD
BRANCH   5   7
HETATM    7  C   UNL     1      -5.813   4.409 -29.937  1.00  0.00     0.191 C 
HETATM    8  S   UNL     1      -7.445   4.597 -29.645  1.00  0.00    -0.039 SA
BRANCH   7   9
HETATM    9  N   UNL     1      -5.135   5.375 -30.613  1.00  0.00    -0.330 N 
HETATM   10  H   UNL     1      -5.711   5.944 -31.229  1.00  0.00     0.168 HD
BRANCH   9  11
HETATM   11  C   UNL     1      -3.833   5.901 -30.430  1.00  0.00     0.068 A 
HETATM   12  C   UNL     1      -2.779   5.278 -31.132  1.00  0.00     0.097 A 
HETATM   13  C   UNL     1      -1.471   5.768 -31.014  1.00  0.00     0.075 A 
HETATM   14  C   UNL     1      -1.208   6.883 -30.216  1.00  0.00     0.070 A 
HETATM   15  C   UNL     1      -2.257   7.505 -29.539  1.00  0.00     0.039 A 
HETATM   16  C   UNL     1      -3.564   7.028 -29.653  1.00  0.00     0.035 A 
BRANCH  12  17
HETATM   17  O   UNL     1      -3.145   4.190 -31.892  1.00  0.00    -0.354 OA
HETATM   18  C   UNL     1      -2.545   4.056 -33.175  1.00  0.00     0.210 C 
ENDBRANCH  12  17
BRANCH  14  19
HETATM   19  O   UNL     1       0.015   7.461 -30.016  1.00  0.00    -0.356 OA
HETATM   20  C   UNL     1       0.576   7.364 -28.713  1.00  0.00     0.210 C 
ENDBRANCH  14  19
ENDBRANCH   9  11
ENDBRANCH   7   9
ENDBRANCH   5   7
ENDBRANCH   2   5
BRANCH   1  21
HETATM   21  C   UNL     1      -4.930   0.041 -31.364  1.00  0.00     0.098 A 
HETATM   22  C   UNL     1      -5.693  -0.476 -32.394  1.00  0.00     0.138 A 
HETATM   23  N   UNL     1      -7.000  -0.348 -32.740  1.00  0.00    -0.370 N 
HETATM   24  N   UNL     1      -4.848  -1.287 -33.117  1.00  0.00    -0.240 N 
HETATM   25  C   UNL     1      -7.510  -0.900 -33.991  1.00  0.00     0.081 C 
HETATM   26  H   UNL     1      -7.711  -0.063 -32.065  1.00  0.00     0.161 HD
HETATM   27  C   UNL     1      -7.403   0.152 -35.093  1.00  0.00     0.032 C 
HETATM   28  C   UNL     1      -6.776  -2.201 -34.326  1.00  0.00     0.061 C 
HETATM   29  C   UNL     1      -5.244  -2.036 -34.297  1.00  0.00     0.221 C 
HETATM   30  N   UNL     1      -3.585  -1.283 -32.667  1.00  0.00    -0.181 NA
HETATM   31  C   UNL     1      -3.647  -0.516 -31.575  1.00  0.00     0.160 A 
BRANCH  29  32
HETATM   32  C   UNL     1      -4.592  -3.402 -34.362  1.00  0.00     0.409 C 
HETATM   33  F   UNL     1      -4.304  -3.901 -33.139  1.00  0.00    -0.169 F 
HETATM   34  F   UNL     1      -5.453  -4.284 -34.942  1.00  0.00    -0.169 F 
HETATM   35  F   UNL     1      -3.472  -3.433 -35.113  1.00  0.00    -0.169 F 
ENDBRANCH  29  32
ENDBRANCH   1  21
TORSDOF 8
ENDMDL
MODEL 6
REMARK VINA RESULT:      -7.7      4.205      8.098
REMARK  8 active torsions:
REMARK  status: ('A' for Active; 'I' for Inactive)
REMARK    1  A    between atoms: C_8  and  C_9 
REMARK       I    between atoms: C_9  and  N_10 
REMARK    2  A    between atoms: N_10  and  N_11 
REMARK    3  A    between atoms: N_11  and  C_12 
REMARK    4  A    between atoms: C_12  and  N_13 
REMARK    5  A    between atoms: N_13  and  C_14 
REMARK    6  A    between atoms: C_15  and  O_16 
REMARK    7  A    between atoms: C_19  and  O_20 
REMARK    8  A    between atoms: C_26  and  C_27 
ROOT
HETATM    1  C   UNL     1      -5.373   0.910 -30.389  1.00  0.00     0.275 C 
HETATM    2  N   UNL     1      -5.006   2.213 -30.656  1.00  0.00    -0.263 N 
HETATM    3  O   UNL     1      -5.968   0.577 -29.367  1.00  0.00    -0.266 OA
HETATM    4  H   UNL     1      -4.348   2.412 -31.405  1.00  0.00     0.190 HD
ENDROOT
BRANCH   2   5
HETATM    5  N   UNL     1      -5.241   3.217 -29.694  1.00  0.00    -0.273 N 
HETATM    6  H   UNL     1      -5.262   2.853 -28.738  1.00  0.00     0.189 HD
BRANCH   5   7
HETATM    7  C   UNL     1      -6.178   4.168 -29.975  1.00  0.00     0.191 C 
HETATM    8  S   UNL     1      -7.794   3.839 -29.723  1.00  0.00    -0.039 SA
BRANCH   7   9
HETATM    9  N   UNL     1      -5.813   5.352 -30.537  1.00  0.00    -0.330 N 
HETATM   10  H   UNL     1      -6.179   6.175 -30.067  1.00  0.00     0.168 HD
BRANCH   9  11
HETATM   11  C   UNL     1      -4.818   5.659 -31.497  1.00  0.00     0.068 A 
HETATM   12  C   UNL     1      -4.978   5.119 -32.791  1.00  0.00     0.097 A 
HETATM   13  C   UNL     1      -4.041   5.409 -33.793  1.00  0.00     0.075 A 
HETATM   14  C   UNL     1      -2.955   6.244 -33.520  1.00  0.00     0.070 A 
HETATM   15  C   UNL     1      -2.814   6.790 -32.243  1.00  0.00     0.039 A 
HETATM   16  C   UNL     1      -3.743   6.511 -31.240  1.00  0.00     0.035 A 
BRANCH  12  17
HETATM   17  O   UNL     1      -6.080   4.312 -32.956  1.00  0.00    -0.354 OA
HETATM   18  C   UNL     1      -6.017   3.317 -33.972  1.00  0.00     0.210 C 
ENDBRANCH  12  17
BRANCH  14  19
HETATM   19  O   UNL     1      -1.976   6.607 -34.401  1.00  0.00    -0.356 OA
HETATM   20  C   UNL     1      -1.117   5.579 -34.881  1.00  0.00     0.210 C 
ENDBRANCH  14  19
ENDBRANCH   9  11
ENDBRANCH   7   9
ENDBRANCH   5   7
ENDBRANCH   2   5
BRANCH   1  21
HETATM   21  C   UNL     1      -4.965  -0.036 -31.405  1.00  0.00     0.098 A 
HETATM   22  C   UNL     1      -5.699  -0.570 -32.449  1.00  0.00     0.138 A 
HETATM   23  N   UNL     1      -6.992  -0.437 -32.841  1.00  0.00    -0.370 N 
HETATM   24  N   UNL     1      -4.839  -1.406 -33.123  1.00  0.00    -0.240 N 
HETATM   25  C   UNL     1      -7.466  -1.013 -34.095  1.00  0.00     0.081 C 
HETATM   26  H   UNL     1      -7.722  -0.129 -32.197  1.00  0.00     0.161 HD
HETATM   27  C   UNL     1      -7.312   0.011 -35.217  1.00  0.00     0.032 C 
HETATM   28  C   UNL     1      -6.735  -2.329 -34.374  1.00  0.00     0.061 C 
HETATM   29  C   UNL     1      -5.204  -2.178 -34.298  1.00  0.00     0.221 C 
HETATM   30  N   UNL     1      -3.591  -1.403 -32.632  1.00  0.00    -0.181 NA
HETATM   31  C   UNL     1      -3.682  -0.609 -31.561  1.00  0.00     0.160 A 
BRANCH  29  32
HETATM   32  C   UNL     1      -4.563  -3.551 -34.310  1.00  0.00     0.409 C 
HETATM   33  F   UNL     1      -5.322  -4.475 -34.941  1.00  0.00    -0.169 F 
HETATM   34  F   UNL     1      -3.386  -3.491 -34.994  1.00  0.00    -0.169 F 
HETATM   35  F   UNL     1      -4.252  -4.016 -33.082  1.00  0.00    -0.169 F 
ENDBRANCH  29  32
ENDBRANCH   1  21
TORSDOF 8
ENDMDL
MODEL 7
REMARK VINA RESULT:      -7.6      2.757      3.692
REMARK  8 active torsions:
REMARK  status: ('A' for Active; 'I' for Inactive)
REMARK    1  A    between atoms: C_8  and  C_9 
REMARK       I    between atoms: C_9  and  N_10 
REMARK    2  A    between atoms: N_10  and  N_11 
REMARK    3  A    between atoms: N_11  and  C_12 
REMARK    4  A    between atoms: C_12  and  N_13 
REMARK    5  A    between atoms: N_13  and  C_14 
REMARK    6  A    between atoms: C_15  and  O_16 
REMARK    7  A    between atoms: C_19  and  O_20 
REMARK    8  A    between atoms: C_26  and  C_27 
ROOT
HETATM    1  C   UNL     1      -1.517   4.837 -31.573  1.00  0.00     0.275 C 
HETATM    2  N   UNL     1      -2.584   4.038 -31.221  1.00  0.00    -0.263 N 
HETATM    3  O   UNL     1      -1.155   4.999 -32.737  1.00  0.00    -0.266 OA
HETATM    4  H   UNL     1      -2.722   3.774 -30.248  1.00  0.00     0.190 HD
ENDROOT
BRANCH   2   5
HETATM    5  N   UNL     1      -3.263   3.300 -32.212  1.00  0.00    -0.273 N 
HETATM    6  H   UNL     1      -3.136   3.687 -33.150  1.00  0.00     0.189 HD
BRANCH   5   7
HETATM    7  C   UNL     1      -4.522   2.854 -31.931  1.00  0.00     0.191 C 
HETATM    8  S   UNL     1      -5.130   3.008 -30.385  1.00  0.00    -0.039 SA
BRANCH   7   9
HETATM    9  N   UNL     1      -5.253   2.209 -32.880  1.00  0.00    -0.330 N 
HETATM   10  H   UNL     1      -5.686   2.820 -33.568  1.00  0.00     0.168 HD
BRANCH   9  11
HETATM   11  C   UNL     1      -5.316   0.840 -33.237  1.00  0.00     0.068 A 
HETATM   12  C   UNL     1      -6.295   0.461 -34.180  1.00  0.00     0.097 A 
HETATM   13  C   UNL     1      -6.390  -0.875 -34.594  1.00  0.00     0.075 A 
HETATM   14  C   UNL     1      -5.508  -1.832 -34.089  1.00  0.00     0.070 A 
HETATM   15  C   UNL     1      -4.530  -1.447 -33.171  1.00  0.00     0.039 A 
HETATM   16  C   UNL     1      -4.424  -0.118 -32.755  1.00  0.00     0.035 A 
BRANCH  12  17
HETATM   17  O   UNL     1      -7.112   1.479 -34.616  1.00  0.00    -0.354 OA
HETATM   18  C   UNL     1      -8.499   1.381 -34.314  1.00  0.00     0.210 C 
ENDBRANCH  12  17
BRANCH  14  19
HETATM   19  O   UNL     1      -5.490  -3.160 -34.409  1.00  0.00    -0.356 OA
HETATM   20  C   UNL     1      -4.264  -3.859 -34.227  1.00  0.00     0.210 C 
ENDBRANCH  14  19
ENDBRANCH   9  11
ENDBRANCH   7   9
ENDBRANCH   5   7
ENDBRANCH   2   5
BRANCH   1  21
HETATM   21  C   UNL     1      -0.836   5.440 -30.447  1.00  0.00     0.098 A 
HETATM   22  C   UNL     1      -1.204   6.536 -29.688  1.00  0.00     0.138 A 
HETATM   23  N   UNL     1      -2.245   7.405 -29.751  1.00  0.00    -0.370 N 
HETATM   24  N   UNL     1      -0.219   6.682 -28.739  1.00  0.00    -0.240 N 
HETATM   25  C   UNL     1      -2.466   8.398 -28.705  1.00  0.00     0.081 C 
HETATM   26  H   UNL     1      -2.778   7.547 -30.610  1.00  0.00     0.161 HD
HETATM   27  C   UNL     1      -3.381   7.814 -27.631  1.00  0.00     0.032 C 
HETATM   28  C   UNL     1      -1.124   8.885 -28.155  1.00  0.00     0.061 C 
HETATM   29  C   UNL     1      -0.208   7.723 -27.725  1.00  0.00     0.221 C 
HETATM   30  N   UNL     1       0.722   5.728 -28.789  1.00  0.00    -0.181 NA
HETATM   31  C   UNL     1       0.372   5.004 -29.857  1.00  0.00     0.160 A 
BRANCH  29  32
HETATM   32  C   UNL     1       1.184   8.254 -27.455  1.00  0.00     0.409 C 
HETATM   33  F   UNL     1       1.853   8.564 -28.589  1.00  0.00    -0.169 F 
HETATM   34  F   UNL     1       1.093   9.409 -26.737  1.00  0.00    -0.169 F 
HETATM   35  F   UNL     1       1.950   7.422 -26.719  1.00  0.00    -0.169 F 
ENDBRANCH  29  32
ENDBRANCH   1  21
TORSDOF 8
ENDMDL
MODEL 8
REMARK VINA RESULT:      -7.6      2.445      3.145
REMARK  8 active torsions:
REMARK  status: ('A' for Active; 'I' for Inactive)
REMARK    1  A    between atoms: C_8  and  C_9 
REMARK       I    between atoms: C_9  and  N_10 
REMARK    2  A    between atoms: N_10  and  N_11 
REMARK    3  A    between atoms: N_11  and  C_12 
REMARK    4  A    between atoms: C_12  and  N_13 
REMARK    5  A    between atoms: N_13  and  C_14 
REMARK    6  A    between atoms: C_15  and  O_16 
REMARK    7  A    between atoms: C_19  and  O_20 
REMARK    8  A    between atoms: C_26  and  C_27 
ROOT
HETATM    1  C   UNL     1      -3.939   4.111 -31.346  1.00  0.00     0.275 C 
HETATM    2  N   UNL     1      -5.249   3.763 -31.095  1.00  0.00    -0.263 N 
HETATM    3  O   UNL     1      -3.071   3.291 -31.637  1.00  0.00    -0.266 OA
HETATM    4  H   UNL     1      -5.880   4.436 -30.667  1.00  0.00     0.190 HD
ENDROOT
BRANCH   2   5
HETATM    5  N   UNL     1      -5.624   2.404 -31.087  1.00  0.00    -0.273 N 
HETATM    6  H   UNL     1      -4.839   1.778 -30.888  1.00  0.00     0.189 HD
BRANCH   5   7
HETATM    7  C   UNL     1      -6.484   1.969 -32.052  1.00  0.00     0.191 C 
HETATM    8  S   UNL     1      -8.123   1.928 -31.744  1.00  0.00    -0.039 SA
BRANCH   7   9
HETATM    9  N   UNL     1      -6.010   1.488 -33.233  1.00  0.00    -0.330 N 
HETATM   10  H   UNL     1      -5.535   2.177 -33.810  1.00  0.00     0.168 HD
BRANCH   9  11
HETATM   11  C   UNL     1      -5.831   0.161 -33.695  1.00  0.00     0.068 A 
HETATM   12  C   UNL     1      -4.648  -0.505 -33.309  1.00  0.00     0.097 A 
HETATM   13  C   UNL     1      -4.426  -1.829 -33.712  1.00  0.00     0.075 A 
HETATM   14  C   UNL     1      -5.378  -2.499 -34.482  1.00  0.00     0.070 A 
HETATM   15  C   UNL     1      -6.554  -1.841 -34.844  1.00  0.00     0.039 A 
HETATM   16  C   UNL     1      -6.788  -0.524 -34.445  1.00  0.00     0.035 A 
BRANCH  12  17
HETATM   17  O   UNL     1      -3.777   0.243 -32.550  1.00  0.00    -0.354 OA
HETATM   18  C   UNL     1      -3.118  -0.413 -31.473  1.00  0.00     0.210 C 
ENDBRANCH  12  17
BRANCH  14  19
HETATM   19  O   UNL     1      -5.287  -3.784 -34.938  1.00  0.00    -0.356 OA
HETATM   20  C   UNL     1      -6.505  -4.481 -35.172  1.00  0.00     0.210 C 
ENDBRANCH  14  19
ENDBRANCH   9  11
ENDBRANCH   7   9
ENDBRANCH   5   7
ENDBRANCH   2   5
BRANCH   1  21
HETATM   21  C   UNL     1      -3.667   5.525 -31.204  1.00  0.00     0.098 A 
HETATM   22  C   UNL     1      -2.539   6.154 -30.710  1.00  0.00     0.138 A 
HETATM   23  N   UNL     1      -1.377   5.697 -30.177  1.00  0.00    -0.370 N 
HETATM   24  N   UNL     1      -2.790   7.504 -30.805  1.00  0.00    -0.240 N 
HETATM   25  C   UNL     1      -0.276   6.605 -29.871  1.00  0.00     0.081 C 
HETATM   26  H   UNL     1      -1.299   4.762 -29.774  1.00  0.00     0.161 HD
HETATM   27  C   UNL     1       0.646   6.716 -31.083  1.00  0.00     0.032 C 
HETATM   28  C   UNL     1      -0.827   7.956 -29.407  1.00  0.00     0.061 C 
HETATM   29  C   UNL     1      -1.859   8.539 -30.390  1.00  0.00     0.221 C 
HETATM   30  N   UNL     1      -3.967   7.793 -31.380  1.00  0.00    -0.181 NA
HETATM   31  C   UNL     1      -4.518   6.592 -31.577  1.00  0.00     0.160 A 
BRANCH  29  32
HETATM   32  C   UNL     1      -2.556   9.720 -29.745  1.00  0.00     0.409 C 
HETATM   33  F   UNL     1      -1.731  10.443 -28.955  1.00  0.00    -0.169 F 
HETATM   34  F   UNL     1      -2.995  10.567 -30.718  1.00  0.00    -0.169 F 
HETATM   35  F   UNL     1      -3.648   9.381 -29.030  1.00  0.00    -0.169 F 
ENDBRANCH  29  32
ENDBRANCH   1  21
TORSDOF 8
ENDMDL
MODEL 9
REMARK VINA RESULT:      -7.6      5.892      8.058
REMARK  8 active torsions:
REMARK  status: ('A' for Active; 'I' for Inactive)
REMARK    1  A    between atoms: C_8  and  C_9 
REMARK       I    between atoms: C_9  and  N_10 
REMARK    2  A    between atoms: N_10  and  N_11 
REMARK    3  A    between atoms: N_11  and  C_12 
REMARK    4  A    between atoms: C_12  and  N_13 
REMARK    5  A    between atoms: N_13  and  C_14 
REMARK    6  A    between atoms: C_15  and  O_16 
REMARK    7  A    between atoms: C_19  and  O_20 
REMARK    8  A    between atoms: C_26  and  C_27 
ROOT
HETATM    1  C   UNL     1      -9.206   1.913 -31.428  1.00  0.00     0.275 C 
HETATM    2  N   UNL     1      -8.236   2.588 -30.717  1.00  0.00    -0.263 N 
HETATM    3  O   UNL     1      -9.233   0.689 -31.531  1.00  0.00    -0.266 OA
HETATM    4  H   UNL     1      -8.135   3.594 -30.823  1.00  0.00     0.190 HD
ENDROOT
BRANCH   2   5
HETATM    5  N   UNL     1      -7.169   1.871 -30.136  1.00  0.00    -0.273 N 
HETATM    6  H   UNL     1      -6.837   2.293 -29.265  1.00  0.00     0.189 HD
BRANCH   5   7
HETATM    7  C   UNL     1      -6.192   1.393 -30.960  1.00  0.00     0.191 C 
HETATM    8  S   UNL     1      -5.296   2.453 -31.886  1.00  0.00    -0.039 SA
BRANCH   7   9
HETATM    9  N   UNL     1      -6.001   0.053 -31.097  1.00  0.00    -0.330 N 
HETATM   10  H   UNL     1      -6.151  -0.485 -30.248  1.00  0.00     0.168 HD
BRANCH   9  11
HETATM   11  C   UNL     1      -5.879  -0.758 -32.252  1.00  0.00     0.068 A 
HETATM   12  C   UNL     1      -4.672  -1.468 -32.421  1.00  0.00     0.097 A 
HETATM   13  C   UNL     1      -4.501  -2.308 -33.529  1.00  0.00     0.075 A 
HETATM   14  C   UNL     1      -5.529  -2.458 -34.463  1.00  0.00     0.070 A 
HETATM   15  C   UNL     1      -6.727  -1.767 -34.280  1.00  0.00     0.039 A 
HETATM   16  C   UNL     1      -6.909  -0.931 -33.177  1.00  0.00     0.035 A 
BRANCH  12  17
HETATM   17  O   UNL     1      -3.725  -1.252 -31.445  1.00  0.00    -0.354 OA
HETATM   18  C   UNL     1      -2.503  -0.641 -31.842  1.00  0.00     0.210 C 
ENDBRANCH  12  17
BRANCH  14  19
HETATM   19  O   UNL     1      -5.494  -3.243 -35.581  1.00  0.00    -0.356 OA
HETATM   20  C   UNL     1      -6.157  -4.499 -35.517  1.00  0.00     0.210 C 
ENDBRANCH  14  19
ENDBRANCH   9  11
ENDBRANCH   7   9
ENDBRANCH   5   7
ENDBRANCH   2   5
BRANCH   1  21
HETATM   21  C   UNL     1     -10.172   2.778 -32.072  1.00  0.00     0.098 A 
HETATM   22  C   UNL     1     -10.992   2.519 -33.155  1.00  0.00     0.138 A 
HETATM   23  N   UNL     1     -11.144   1.446 -33.972  1.00  0.00    -0.370 N 
HETATM   24  N   UNL     1     -11.723   3.668 -33.355  1.00  0.00    -0.240 N 
HETATM   25  C   UNL     1     -12.215   1.393 -34.962  1.00  0.00     0.081 C 
HETATM   26  H   UNL     1     -10.411   0.744 -34.083  1.00  0.00     0.161 HD
HETATM   27  C   UNL     1     -13.451   0.745 -34.342  1.00  0.00     0.032 C 
HETATM   28  C   UNL     1     -12.483   2.795 -35.516  1.00  0.00     0.061 C 
HETATM   29  C   UNL     1     -12.715   3.833 -34.402  1.00  0.00     0.221 C 
HETATM   30  N   UNL     1     -11.480   4.624 -32.446  1.00  0.00    -0.181 NA
HETATM   31  C   UNL     1     -10.504   4.100 -31.699  1.00  0.00     0.160 A 
BRANCH  29  32
HETATM   32  C   UNL     1     -12.699   5.224 -35.002  1.00  0.00     0.409 C 
HETATM   33  F   UNL     1     -13.346   6.130 -34.235  1.00  0.00    -0.169 F 
HETATM   34  F   UNL     1     -11.410   5.656 -35.097  1.00  0.00    -0.169 F 
HETATM   35  F   UNL     1     -13.200   5.283 -36.253  1.00  0.00    -0.169 F 
ENDBRANCH  29  32
ENDBRANCH   1  21
TORSDOF 8
ENDMDL
MODEL 10
REMARK VINA RESULT:      -7.5      4.391      8.104
REMARK  8 active torsions:
REMARK  status: ('A' for Active; 'I' for Inactive)
REMARK    1  A    between atoms: C_8  and  C_9 
REMARK       I    between atoms: C_9  and  N_10 
REMARK    2  A    between atoms: N_10  and  N_11 
REMARK    3  A    between atoms: N_11  and  C_12 
REMARK    4  A    between atoms: C_12  and  N_13 
REMARK    5  A    between atoms: N_13  and  C_14 
REMARK    6  A    between atoms: C_15  and  O_16 
REMARK    7  A    between atoms: C_19  and  O_20 
REMARK    8  A    between atoms: C_26  and  C_27 
ROOT
HETATM    1  C   UNL     1      -4.963   2.716 -30.573  1.00  0.00     0.275 C 
HETATM    2  N   UNL     1      -5.722   3.280 -29.569  1.00  0.00    -0.263 N 
HETATM    3  O   UNL     1      -3.846   3.126 -30.880  1.00  0.00    -0.266 OA
HETATM    4  H   UNL     1      -6.707   3.044 -29.483  1.00  0.00     0.190 HD
ENDROOT
BRANCH   2   5
HETATM    5  N   UNL     1      -5.254   4.429 -28.899  1.00  0.00    -0.273 N 
HETATM    6  H   UNL     1      -4.956   4.235 -27.940  1.00  0.00     0.189 HD
BRANCH   5   7
HETATM    7  C   UNL     1      -5.940   5.596 -29.070  1.00  0.00     0.191 C 
HETATM    8  S   UNL     1      -7.408   5.814 -28.308  1.00  0.00    -0.039 SA
BRANCH   7   9
HETATM    9  N   UNL     1      -5.478   6.549 -29.924  1.00  0.00    -0.330 N 
HETATM   10  H   UNL     1      -5.714   7.503 -29.662  1.00  0.00     0.168 HD
BRANCH   9  11
HETATM   11  C   UNL     1      -4.520   6.482 -30.966  1.00  0.00     0.068 A 
HETATM   12  C   UNL     1      -4.975   6.073 -32.238  1.00  0.00     0.097 A 
HETATM   13  C   UNL     1      -4.081   6.012 -33.316  1.00  0.00     0.075 A 
HETATM   14  C   UNL     1      -2.743   6.369 -33.141  1.00  0.00     0.070 A 
HETATM   15  C   UNL     1      -2.304   6.790 -31.885  1.00  0.00     0.039 A 
HETATM   16  C   UNL     1      -3.186   6.858 -30.805  1.00  0.00     0.035 A 
BRANCH  12  17
HETATM   17  O   UNL     1      -6.310   5.745 -32.304  1.00  0.00    -0.354 OA
HETATM   18  C   UNL     1      -6.698   4.773 -33.268  1.00  0.00     0.210 C 
ENDBRANCH  12  17
BRANCH  14  19
HETATM   19  O   UNL     1      -1.773   6.357 -34.103  1.00  0.00    -0.356 OA
HETATM   20  C   UNL     1      -1.642   5.173 -34.881  1.00  0.00     0.210 C 
ENDBRANCH  14  19
ENDBRANCH   9  11
ENDBRANCH   7   9
ENDBRANCH   5   7
ENDBRANCH   2   5
BRANCH   1  21
HETATM   21  C   UNL     1      -5.613   1.619 -31.257  1.00  0.00     0.098 A 
HETATM   22  C   UNL     1      -5.051   0.582 -31.978  1.00  0.00     0.138 A 
HETATM   23  N   UNL     1      -3.774   0.267 -32.315  1.00  0.00    -0.370 N 
HETATM   24  N   UNL     1      -6.105  -0.191 -32.408  1.00  0.00    -0.240 N 
HETATM   25  C   UNL     1      -3.453  -0.997 -32.970  1.00  0.00     0.081 C 
HETATM   26  H   UNL     1      -3.031   0.967 -32.326  1.00  0.00     0.161 HD
HETATM   27  C   UNL     1      -3.141  -2.054 -31.914  1.00  0.00     0.032 C 
HETATM   28  C   UNL     1      -4.592  -1.401 -33.910  1.00  0.00     0.061 C 
HETATM   29  C   UNL     1      -5.963  -1.394 -33.209  1.00  0.00     0.221 C 
HETATM   30  N   UNL     1      -7.298   0.235 -31.967  1.00  0.00    -0.181 NA
HETATM   31  C   UNL     1      -7.002   1.360 -31.310  1.00  0.00     0.160 A 
BRANCH  29  32
HETATM   32  C   UNL     1      -7.058  -1.531 -34.247  1.00  0.00     0.409 C 
HETATM   33  F   UNL     1      -8.294  -1.354 -33.728  1.00  0.00    -0.169 F 
HETATM   34  F   UNL     1      -6.900  -0.566 -35.196  1.00  0.00    -0.169 F 
HETATM   35  F   UNL     1      -7.035  -2.706 -34.910  1.00  0.00    -0.169 F 
ENDBRANCH  29  32
ENDBRANCH   1  21
TORSDOF 8
ENDMDL
