MODEL 1
REMARK VINA RESULT:      -9.1      0.000      0.000
REMARK  6 active torsions:
REMARK  status: ('A' for Active; 'I' for Inactive)
REMARK    1  A    between atoms: C_2  and  C_3 
REMARK    2  A    between atoms: C_3  and  C_4 
REMARK    3  A    between atoms: C_3  and  C_11 
REMARK    4  A    between atoms: C_11  and  C_12 
REMARK       I    between atoms: C_12  and  N_13 
REMARK    5  A    between atoms: N_13  and  C_14 
REMARK    6  A    between atoms: C_21  and  C_22 
REMARK       I    between atoms: C_22  and  N_23 
ROOT
HETATM    1  C   UNL     1      -3.208   4.078 -32.961  1.00  0.00     0.035 A 
HETATM    2  C   UNL     1      -2.220   4.202 -31.973  1.00  0.00     0.046 A 
HETATM    3  C   UNL     1      -1.433   5.372 -31.912  1.00  0.00     0.030 A 
HETATM    4  C   UNL     1      -1.657   6.380 -32.843  1.00  0.00     0.063 A 
HETATM    5  N   UNL     1      -0.757   7.361 -32.537  1.00  0.00    -0.277 N 
HETATM    6  H   UNL     1      -0.631   8.248 -33.011  1.00  0.00     0.189 HD
HETATM    7  N   UNL     1       0.029   7.089 -31.483  1.00  0.00    -0.168 NA
HETATM    8  C   UNL     1      -0.380   5.862 -31.082  1.00  0.00     0.156 A 
HETATM    9  C   UNL     1      -2.632   6.293 -33.839  1.00  0.00     0.034 A 
HETATM   10  C   UNL     1      -3.403   5.124 -33.874  1.00  0.00     0.032 A 
ENDROOT
BRANCH   1  11
HETATM   11  N   UNL     1      -4.054   2.955 -33.085  1.00  0.00    -0.327 N 
HETATM   12  C   UNL     1      -5.349   2.825 -32.608  1.00  0.00     0.222 C 
HETATM   13  O   UNL     1      -5.940   3.627 -31.897  1.00  0.00    -0.273 OA
HETATM   14  H   UNL     1      -3.658   2.147 -33.549  1.00  0.00     0.169 HD
BRANCH  12  15
HETATM   15  C   UNL     1      -5.978   1.504 -33.030  1.00  0.00     0.112 C 
BRANCH  15  16
HETATM   16  C   UNL     1      -5.125   0.284 -32.629  1.00  0.00     0.027 C 
BRANCH  16  17
HETATM   17  C   UNL     1      -5.098   0.007 -31.105  1.00  0.00     0.005 C 
HETATM   18  C   UNL     1      -6.441   0.063 -30.390  1.00  0.00     0.006 C 
ENDBRANCH  16  17
BRANCH  16  19
HETATM   19  C   UNL     1      -5.485  -0.976 -33.410  1.00  0.00    -0.053 A 
HETATM   20  C   UNL     1      -6.793  -1.269 -33.817  1.00  0.00     0.008 A 
HETATM   21  C   UNL     1      -7.079  -2.449 -34.512  1.00  0.00     0.007 A 
HETATM   22  C   UNL     1      -6.062  -3.358 -34.821  1.00  0.00    -0.062 A 
HETATM   23  C   UNL     1      -6.364  -4.640 -35.538  1.00  0.00     0.048 C 
HETATM   24  C   UNL     1      -4.758  -3.076 -34.409  1.00  0.00     0.007 A 
HETATM   25  C   UNL     1      -4.472  -1.901 -33.712  1.00  0.00     0.008 A 
ENDBRANCH  16  19
ENDBRANCH  15  16
ENDBRANCH  12  15
ENDBRANCH   1  11
BRANCH   8  26
HETATM   26  C   UNL     1       0.234   5.194 -29.926  1.00  0.00     0.270 C 
HETATM   27  N   UNL     1      -0.221   5.641 -28.716  1.00  0.00    -0.365 N 
HETATM   28  H   UNL     1      -0.926   6.369 -28.700  1.00  0.00     0.159 HD
HETATM   29  H   UNL     1       0.138   5.234 -27.867  1.00  0.00     0.159 HD
HETATM   30  O   UNL     1       1.077   4.306 -29.996  1.00  0.00    -0.266 OA
ENDBRANCH   8  26
TORSDOF 6
ENDMDL
MODEL 2
REMARK VINA RESULT:      -8.7      4.944      8.415
REMARK  6 active torsions:
REMARK  status: ('A' for Active; 'I' for Inactive)
REMARK    1  A    between atoms: C_2  and  C_3 
REMARK    2  A    between atoms: C_3  and  C_4 
REMARK    3  A    between atoms: C_3  and  C_11 
REMARK    4  A    between atoms: C_11  and  C_12 
REMARK       I    between atoms: C_12  and  N_13 
REMARK    5  A    between atoms: N_13  and  C_14 
REMARK    6  A    between atoms: C_21  and  C_22 
REMARK       I    between atoms: C_22  and  N_23 
ROOT
HETATM    1  C   UNL     1      -9.181   1.583 -33.490  1.00  0.00     0.035 A 
HETATM    2  C   UNL     1     -10.427   0.942 -33.509  1.00  0.00     0.046 A 
HETATM    3  C   UNL     1     -11.541   1.593 -34.082  1.00  0.00     0.030 A 
HETATM    4  C   UNL     1     -11.373   2.866 -34.613  1.00  0.00     0.063 A 
HETATM    5  N   UNL     1     -12.606   3.228 -35.080  1.00  0.00    -0.277 N 
HETATM    6  H   UNL     1     -12.859   4.099 -35.531  1.00  0.00     0.189 HD
HETATM    7  N   UNL     1     -13.561   2.300 -34.910  1.00  0.00    -0.168 NA
HETATM    8  C   UNL     1     -12.918   1.280 -34.296  1.00  0.00     0.156 A 
HETATM    9  C   UNL     1     -10.148   3.536 -34.613  1.00  0.00     0.034 A 
HETATM   10  C   UNL     1      -9.057   2.865 -34.045  1.00  0.00     0.032 A 
ENDROOT
BRANCH   1  11
HETATM   11  N   UNL     1      -8.010   1.002 -32.957  1.00  0.00    -0.327 N 
HETATM   12  C   UNL     1      -7.485   1.187 -31.687  1.00  0.00     0.222 C 
HETATM   13  O   UNL     1      -7.892   1.978 -30.847  1.00  0.00    -0.273 OA
HETATM   14  H   UNL     1      -7.481   0.409 -33.584  1.00  0.00     0.169 HD
BRANCH  12  15
HETATM   15  C   UNL     1      -6.265   0.308 -31.445  1.00  0.00     0.112 C 
BRANCH  15  16
HETATM   16  C   UNL     1      -5.357   0.196 -32.685  1.00  0.00     0.027 C 
BRANCH  16  17
HETATM   17  C   UNL     1      -3.866   0.510 -32.406  1.00  0.00     0.005 C 
HETATM   18  C   UNL     1      -3.508   1.983 -32.253  1.00  0.00     0.006 C 
ENDBRANCH  16  17
BRANCH  16  19
HETATM   19  C   UNL     1      -5.511  -1.134 -33.417  1.00  0.00    -0.053 A 
HETATM   20  C   UNL     1      -6.733  -1.575 -33.941  1.00  0.00     0.008 A 
HETATM   21  C   UNL     1      -6.830  -2.814 -34.583  1.00  0.00     0.007 A 
HETATM   22  C   UNL     1      -5.707  -3.634 -34.722  1.00  0.00    -0.062 A 
HETATM   23  C   UNL     1      -5.809  -4.977 -35.382  1.00  0.00     0.048 C 
HETATM   24  C   UNL     1      -4.488  -3.205 -34.192  1.00  0.00     0.007 A 
HETATM   25  C   UNL     1      -4.391  -1.970 -33.548  1.00  0.00     0.008 A 
ENDBRANCH  16  19
ENDBRANCH  15  16
ENDBRANCH  12  15
ENDBRANCH   1  11
BRANCH   8  26
HETATM   26  C   UNL     1     -13.621   0.041 -33.936  1.00  0.00     0.270 C 
HETATM   27  N   UNL     1     -14.932   0.009 -34.329  1.00  0.00    -0.365 N 
HETATM   28  H   UNL     1     -15.310   0.807 -34.826  1.00  0.00     0.159 HD
HETATM   29  H   UNL     1     -15.491  -0.806 -34.132  1.00  0.00     0.159 HD
HETATM   30  O   UNL     1     -13.116  -0.906 -33.343  1.00  0.00    -0.266 OA
ENDBRANCH   8  26
TORSDOF 6
ENDMDL
MODEL 3
REMARK VINA RESULT:      -8.5      2.204      2.454
REMARK  6 active torsions:
REMARK  status: ('A' for Active; 'I' for Inactive)
REMARK    1  A    between atoms: C_2  and  C_3 
REMARK    2  A    between atoms: C_3  and  C_4 
REMARK    3  A    between atoms: C_3  and  C_11 
REMARK    4  A    between atoms: C_11  and  C_12 
REMARK       I    between atoms: C_12  and  N_13 
REMARK    5  A    between atoms: N_13  and  C_14 
REMARK    6  A    between atoms: C_21  and  C_22 
REMARK       I    between atoms: C_22  and  N_23 
ROOT
HETATM    1  C   UNL     1      -3.697   4.302 -32.547  1.00  0.00     0.035 A 
HETATM    2  C   UNL     1      -3.900   5.579 -32.004  1.00  0.00     0.046 A 
HETATM    3  C   UNL     1      -2.995   6.620 -32.306  1.00  0.00     0.030 A 
HETATM    4  C   UNL     1      -1.914   6.349 -33.136  1.00  0.00     0.063 A 
HETATM    5  N   UNL     1      -1.230   7.528 -33.235  1.00  0.00    -0.277 N 
HETATM    6  H   UNL     1      -0.381   7.703 -33.761  1.00  0.00     0.189 HD
HETATM    7  N   UNL     1      -1.773   8.548 -32.551  1.00  0.00    -0.168 NA
HETATM    8  C   UNL     1      -2.869   8.003 -31.973  1.00  0.00     0.156 A 
HETATM    9  C   UNL     1      -1.680   5.091 -33.695  1.00  0.00     0.034 A 
HETATM   10  C   UNL     1      -2.597   4.078 -33.386  1.00  0.00     0.032 A 
ENDROOT
BRANCH   1  11
HETATM   11  N   UNL     1      -4.559   3.209 -32.318  1.00  0.00    -0.327 N 
HETATM   12  C   UNL     1      -5.579   2.758 -33.144  1.00  0.00     0.222 C 
HETATM   13  O   UNL     1      -5.976   3.305 -34.164  1.00  0.00    -0.273 OA
HETATM   14  H   UNL     1      -4.437   2.720 -31.441  1.00  0.00     0.169 HD
BRANCH  12  15
HETATM   15  C   UNL     1      -6.220   1.485 -32.608  1.00  0.00     0.112 C 
BRANCH  15  16
HETATM   16  C   UNL     1      -5.201   0.345 -32.406  1.00  0.00     0.027 C 
BRANCH  16  17
HETATM   17  C   UNL     1      -4.965  -0.035 -30.923  1.00  0.00     0.005 C 
HETATM   18  C   UNL     1      -5.800   0.720 -29.897  1.00  0.00     0.006 C 
ENDBRANCH  16  17
BRANCH  16  19
HETATM   19  C   UNL     1      -5.516  -0.888 -33.246  1.00  0.00    -0.053 A 
HETATM   20  C   UNL     1      -6.813  -1.208 -33.669  1.00  0.00     0.008 A 
HETATM   21  C   UNL     1      -7.056  -2.364 -34.419  1.00  0.00     0.007 A 
HETATM   22  C   UNL     1      -6.008  -3.220 -34.768  1.00  0.00    -0.062 A 
HETATM   23  C   UNL     1      -6.264  -4.477 -35.545  1.00  0.00     0.048 C 
HETATM   24  C   UNL     1      -4.715  -2.913 -34.340  1.00  0.00     0.007 A 
HETATM   25  C   UNL     1      -4.471  -1.762 -33.589  1.00  0.00     0.008 A 
ENDBRANCH  16  19
ENDBRANCH  15  16
ENDBRANCH  12  15
ENDBRANCH   1  11
BRANCH   8  26
HETATM   26  C   UNL     1      -3.764   8.806 -31.128  1.00  0.00     0.270 C 
HETATM   27  N   UNL     1      -3.142   9.833 -30.472  1.00  0.00    -0.365 N 
HETATM   28  H   UNL     1      -2.147   9.967 -30.612  1.00  0.00     0.159 HD
HETATM   29  H   UNL     1      -3.679  10.442 -29.877  1.00  0.00     0.159 HD
HETATM   30  O   UNL     1      -4.968   8.612 -31.000  1.00  0.00    -0.266 OA
ENDBRANCH   8  26
TORSDOF 6
ENDMDL
MODEL 4
REMARK VINA RESULT:      -8.4      5.783      8.829
REMARK  6 active torsions:
REMARK  status: ('A' for Active; 'I' for Inactive)
REMARK    1  A    between atoms: C_2  and  C_3 
REMARK    2  A    between atoms: C_3  and  C_4 
REMARK    3  A    between atoms: C_3  and  C_11 
REMARK    4  A    between atoms: C_11  and  C_12 
REMARK       I    between atoms: C_12  and  N_13 
REMARK    5  A    between atoms: N_13  and  C_14 
REMARK    6  A    between atoms: C_21  and  C_22 
REMARK       I    between atoms: C_22  and  N_23 
ROOT
HETATM    1  C   UNL     1     -11.191   1.984 -34.241  1.00  0.00     0.035 A 
HETATM    2  C   UNL     1     -11.552   2.731 -33.111  1.00  0.00     0.046 A 
HETATM    3  C   UNL     1     -12.915   2.871 -32.770  1.00  0.00     0.030 A 
HETATM    4  C   UNL     1     -13.872   2.263 -33.572  1.00  0.00     0.063 A 
HETATM    5  N   UNL     1     -15.074   2.576 -33.001  1.00  0.00    -0.277 N 
HETATM    6  H   UNL     1     -15.996   2.302 -33.322  1.00  0.00     0.189 HD
HETATM    7  N   UNL     1     -14.986   3.326 -31.891  1.00  0.00    -0.168 NA
HETATM    8  C   UNL     1     -13.655   3.515 -31.733  1.00  0.00     0.156 A 
HETATM    9  C   UNL     1     -13.551   1.511 -34.705  1.00  0.00     0.034 A 
HETATM   10  C   UNL     1     -12.192   1.381 -35.017  1.00  0.00     0.032 A 
ENDROOT
BRANCH   1  11
HETATM   11  N   UNL     1      -9.855   1.773 -34.646  1.00  0.00    -0.327 N 
HETATM   12  C   UNL     1      -9.025   0.723 -34.284  1.00  0.00     0.222 C 
HETATM   13  O   UNL     1      -9.278  -0.144 -33.458  1.00  0.00    -0.273 OA
HETATM   14  H   UNL     1      -9.453   2.484 -35.244  1.00  0.00     0.169 HD
BRANCH  12  15
HETATM   15  C   UNL     1      -7.687   0.783 -35.009  1.00  0.00     0.112 C 
BRANCH  15  16
HETATM   16  C   UNL     1      -6.486   0.714 -34.045  1.00  0.00     0.027 C 
BRANCH  16  17
HETATM   17  C   UNL     1      -6.808   1.171 -32.601  1.00  0.00     0.005 C 
HETATM   18  C   UNL     1      -6.152   2.469 -32.146  1.00  0.00     0.006 C 
ENDBRANCH  16  17
BRANCH  16  19
HETATM   19  C   UNL     1      -5.798  -0.648 -34.051  1.00  0.00    -0.053 A 
HETATM   20  C   UNL     1      -6.290  -1.744 -34.772  1.00  0.00     0.008 A 
HETATM   21  C   UNL     1      -5.637  -2.980 -34.727  1.00  0.00     0.007 A 
HETATM   22  C   UNL     1      -4.475  -3.145 -33.967  1.00  0.00    -0.062 A 
HETATM   23  C   UNL     1      -3.787  -4.475 -33.888  1.00  0.00     0.048 C 
HETATM   24  C   UNL     1      -3.986  -2.060 -33.237  1.00  0.00     0.007 A 
HETATM   25  C   UNL     1      -4.639  -0.826 -33.278  1.00  0.00     0.008 A 
ENDBRANCH  16  19
ENDBRANCH  15  16
ENDBRANCH  12  15
ENDBRANCH   1  11
BRANCH   8  26
HETATM   26  C   UNL     1     -13.125   4.292 -30.604  1.00  0.00     0.270 C 
HETATM   27  N   UNL     1     -12.227   3.611 -29.828  1.00  0.00    -0.365 N 
HETATM   28  H   UNL     1     -11.994   2.657 -30.079  1.00  0.00     0.159 HD
HETATM   29  H   UNL     1     -11.805   4.068 -29.037  1.00  0.00     0.159 HD
HETATM   30  O   UNL     1     -13.429   5.453 -30.348  1.00  0.00    -0.266 OA
ENDBRANCH   8  26
TORSDOF 6
ENDMDL
MODEL 5
REMARK VINA RESULT:      -8.4      3.324      9.051
REMARK  6 active torsions:
REMARK  status: ('A' for Active; 'I' for Inactive)
REMARK    1  A    between atoms: C_2  and  C_3 
REMARK    2  A    between atoms: C_3  and  C_4 
REMARK    3  A    between atoms: C_3  and  C_11 
REMARK    4  A    between atoms: C_11  and  C_12 
REMARK       I    between atoms: C_12  and  N_13 
REMARK    5  A    between atoms: N_13  and  C_14 
REMARK    6  A    between atoms: C_21  and  C_22 
REMARK       I    between atoms: C_22  and  N_23 
ROOT
HETATM    1  C   UNL     1      -5.333   0.369 -33.388  1.00  0.00     0.035 A 
HETATM    2  C   UNL     1      -4.670  -0.855 -33.223  1.00  0.00     0.046 A 
HETATM    3  C   UNL     1      -5.148  -2.006 -33.886  1.00  0.00     0.030 A 
HETATM    4  C   UNL     1      -6.277  -1.897 -34.688  1.00  0.00     0.063 A 
HETATM    5  N   UNL     1      -6.495  -3.153 -35.180  1.00  0.00    -0.277 N 
HETATM    6  H   UNL     1      -7.238  -3.449 -35.802  1.00  0.00     0.189 HD
HETATM    7  N   UNL     1      -5.602  -4.072 -34.777  1.00  0.00    -0.168 NA
HETATM    8  C   UNL     1      -4.759  -3.377 -33.978  1.00  0.00     0.156 A 
HETATM    9  C   UNL     1      -6.964  -0.695 -34.877  1.00  0.00     0.034 A 
HETATM   10  C   UNL     1      -6.464   0.434 -34.214  1.00  0.00     0.032 A 
ENDROOT
BRANCH   1  11
HETATM   11  N   UNL     1      -4.915   1.574 -32.783  1.00  0.00    -0.327 N 
HETATM   12  C   UNL     1      -3.700   1.823 -32.162  1.00  0.00     0.222 C 
HETATM   13  O   UNL     1      -2.823   0.998 -31.936  1.00  0.00    -0.273 OA
HETATM   14  H   UNL     1      -5.590   2.328 -32.777  1.00  0.00     0.169 HD
BRANCH  12  15
HETATM   15  C   UNL     1      -3.575   3.275 -31.723  1.00  0.00     0.112 C 
BRANCH  15  16
HETATM   16  C   UNL     1      -2.502   4.046 -32.517  1.00  0.00     0.027 C 
BRANCH  16  17
HETATM   17  C   UNL     1      -3.046   4.777 -33.770  1.00  0.00     0.005 C 
HETATM   18  C   UNL     1      -2.036   5.053 -34.876  1.00  0.00     0.006 C 
ENDBRANCH  16  17
BRANCH  16  19
HETATM   19  C   UNL     1      -1.681   4.990 -31.643  1.00  0.00    -0.053 A 
HETATM   20  C   UNL     1      -0.281   4.964 -31.605  1.00  0.00     0.008 A 
HETATM   21  C   UNL     1       0.428   5.834 -30.769  1.00  0.00     0.007 A 
HETATM   22  C   UNL     1      -0.247   6.753 -29.961  1.00  0.00    -0.062 A 
HETATM   23  C   UNL     1       0.503   7.668 -29.039  1.00  0.00     0.048 C 
HETATM   24  C   UNL     1      -1.643   6.776 -29.986  1.00  0.00     0.007 A 
HETATM   25  C   UNL     1      -2.352   5.906 -30.817  1.00  0.00     0.008 A 
ENDBRANCH  16  19
ENDBRANCH  15  16
ENDBRANCH  12  15
ENDBRANCH   1  11
BRANCH   8  26
HETATM   26  C   UNL     1      -3.611  -4.028 -33.332  1.00  0.00     0.270 C 
HETATM   27  N   UNL     1      -3.113  -5.098 -34.023  1.00  0.00    -0.365 N 
HETATM   28  H   UNL     1      -3.549  -5.355 -34.901  1.00  0.00     0.159 HD
HETATM   29  H   UNL     1      -2.320  -5.601 -33.659  1.00  0.00     0.159 HD
HETATM   30  O   UNL     1      -3.109  -3.672 -32.271  1.00  0.00    -0.266 OA
ENDBRANCH   8  26
TORSDOF 6
ENDMDL
MODEL 6
REMARK VINA RESULT:      -8.2      1.556      2.331
REMARK  6 active torsions:
REMARK  status: ('A' for Active; 'I' for Inactive)
REMARK    1  A    between atoms: C_2  and  C_3 
REMARK    2  A    between atoms: C_3  and  C_4 
REMARK    3  A    between atoms: C_3  and  C_11 
REMARK    4  A    between atoms: C_11  and  C_12 
REMARK       I    between atoms: C_12  and  N_13 
REMARK    5  A    between atoms: N_13  and  C_14 
REMARK    6  A    between atoms: C_21  and  C_22 
REMARK       I    between atoms: C_22  and  N_23 
ROOT
HETATM    1  C   UNL     1      -4.315   3.639 -32.677  1.00  0.00     0.035 A 
HETATM    2  C   UNL     1      -3.077   4.126 -32.236  1.00  0.00     0.046 A 
HETATM    3  C   UNL     1      -2.439   5.164 -32.948  1.00  0.00     0.030 A 
HETATM    4  C   UNL     1      -3.057   5.678 -34.082  1.00  0.00     0.063 A 
HETATM    5  N   UNL     1      -2.212   6.646 -34.547  1.00  0.00    -0.277 N 
HETATM    6  H   UNL     1      -2.340   7.231 -35.365  1.00  0.00     0.189 HD
HETATM    7  N   UNL     1      -1.102   6.817 -33.812  1.00  0.00    -0.168 NA
HETATM    8  C   UNL     1      -1.228   5.910 -32.817  1.00  0.00     0.156 A 
HETATM    9  C   UNL     1      -4.289   5.218 -34.551  1.00  0.00     0.034 A 
HETATM   10  C   UNL     1      -4.905   4.193 -33.822  1.00  0.00     0.032 A 
ENDROOT
BRANCH   1  11
HETATM   11  N   UNL     1      -5.036   2.619 -32.018  1.00  0.00    -0.327 N 
HETATM   12  C   UNL     1      -6.115   2.775 -31.161  1.00  0.00     0.222 C 
HETATM   13  O   UNL     1      -6.556   3.838 -30.744  1.00  0.00    -0.273 OA
HETATM   14  H   UNL     1      -4.707   1.673 -32.166  1.00  0.00     0.169 HD
BRANCH  12  15
HETATM   15  C   UNL     1      -6.694   1.434 -30.730  1.00  0.00     0.112 C 
BRANCH  15  16
HETATM   16  C   UNL     1      -7.613   0.812 -31.799  1.00  0.00     0.027 C 
BRANCH  16  17
HETATM   17  C   UNL     1      -8.327   1.851 -32.699  1.00  0.00     0.005 C 
HETATM   18  C   UNL     1      -9.844   1.918 -32.572  1.00  0.00     0.006 C 
ENDBRANCH  16  17
BRANCH  16  19
HETATM   19  C   UNL     1      -6.913  -0.253 -32.638  1.00  0.00    -0.053 A 
HETATM   20  C   UNL     1      -5.644  -0.755 -32.322  1.00  0.00     0.008 A 
HETATM   21  C   UNL     1      -5.031  -1.714 -33.135  1.00  0.00     0.007 A 
HETATM   22  C   UNL     1      -5.677  -2.198 -34.277  1.00  0.00    -0.062 A 
HETATM   23  C   UNL     1      -5.016  -3.204 -35.171  1.00  0.00     0.048 C 
HETATM   24  C   UNL     1      -6.938  -1.694 -34.603  1.00  0.00     0.007 A 
HETATM   25  C   UNL     1      -7.548  -0.733 -33.794  1.00  0.00     0.008 A 
ENDBRANCH  16  19
ENDBRANCH  15  16
ENDBRANCH  12  15
ENDBRANCH   1  11
BRANCH   8  26
HETATM   26  C   UNL     1      -0.205   5.778 -31.770  1.00  0.00     0.270 C 
HETATM   27  N   UNL     1       0.282   6.972 -31.312  1.00  0.00    -0.365 N 
HETATM   28  H   UNL     1      -0.086   7.831 -31.706  1.00  0.00     0.159 HD
HETATM   29  H   UNL     1       0.982   6.980 -30.587  1.00  0.00     0.159 HD
HETATM   30  O   UNL     1       0.200   4.714 -31.315  1.00  0.00    -0.266 OA
ENDBRANCH   8  26
TORSDOF 6
ENDMDL
MODEL 7
REMARK VINA RESULT:      -8.1      2.361      2.828
REMARK  6 active torsions:
REMARK  status: ('A' for Active; 'I' for Inactive)
REMARK    1  A    between atoms: C_2  and  C_3 
REMARK    2  A    between atoms: C_3  and  C_4 
REMARK    3  A    between atoms: C_3  and  C_11 
REMARK    4  A    between atoms: C_11  and  C_12 
REMARK       I    between atoms: C_12  and  N_13 
REMARK    5  A    between atoms: N_13  and  C_14 
REMARK    6  A    between atoms: C_21  and  C_22 
REMARK       I    between atoms: C_22  and  N_23 
ROOT
HETATM    1  C   UNL     1      -5.420   4.844 -31.432  1.00  0.00     0.035 A 
HETATM    2  C   UNL     1      -4.266   5.371 -32.029  1.00  0.00     0.046 A 
HETATM    3  C   UNL     1      -3.899   6.712 -31.781  1.00  0.00     0.030 A 
HETATM    4  C   UNL     1      -4.700   7.482 -30.948  1.00  0.00     0.063 A 
HETATM    5  N   UNL     1      -4.102   8.711 -30.905  1.00  0.00    -0.277 N 
HETATM    6  H   UNL     1      -4.414   9.528 -30.394  1.00  0.00     0.189 HD
HETATM    7  N   UNL     1      -2.976   8.807 -31.630  1.00  0.00    -0.168 NA
HETATM    8  C   UNL     1      -2.835   7.577 -32.175  1.00  0.00     0.156 A 
HETATM    9  C   UNL     1      -5.856   6.992 -30.335  1.00  0.00     0.034 A 
HETATM   10  C   UNL     1      -6.193   5.657 -30.591  1.00  0.00     0.032 A 
ENDROOT
BRANCH   1  11
HETATM   11  N   UNL     1      -5.852   3.511 -31.606  1.00  0.00    -0.327 N 
HETATM   12  C   UNL     1      -6.204   2.893 -32.796  1.00  0.00     0.222 C 
HETATM   13  O   UNL     1      -6.306   3.436 -33.888  1.00  0.00    -0.273 OA
HETATM   14  H   UNL     1      -5.941   2.957 -30.763  1.00  0.00     0.169 HD
BRANCH  12  15
HETATM   15  C   UNL     1      -6.514   1.415 -32.596  1.00  0.00     0.112 C 
BRANCH  15  16
HETATM   16  C   UNL     1      -5.271   0.519 -32.758  1.00  0.00     0.027 C 
BRANCH  16  17
HETATM   17  C   UNL     1      -4.501   0.263 -31.438  1.00  0.00     0.005 C 
HETATM   18  C   UNL     1      -3.204   1.041 -31.257  1.00  0.00     0.006 C 
ENDBRANCH  16  17
BRANCH  16  19
HETATM   19  C   UNL     1      -5.572  -0.790 -33.481  1.00  0.00    -0.053 A 
HETATM   20  C   UNL     1      -6.867  -1.165 -33.864  1.00  0.00     0.008 A 
HETATM   21  C   UNL     1      -7.097  -2.387 -34.504  1.00  0.00     0.007 A 
HETATM   22  C   UNL     1      -6.038  -3.257 -34.782  1.00  0.00    -0.062 A 
HETATM   23  C   UNL     1      -6.280  -4.582 -35.441  1.00  0.00     0.048 C 
HETATM   24  C   UNL     1      -4.747  -2.893 -34.394  1.00  0.00     0.007 A 
HETATM   25  C   UNL     1      -4.517  -1.676 -33.751  1.00  0.00     0.008 A 
ENDBRANCH  16  19
ENDBRANCH  15  16
ENDBRANCH  12  15
ENDBRANCH   1  11
BRANCH   8  26
HETATM   26  C   UNL     1      -1.696   7.257 -33.048  1.00  0.00     0.270 C 
HETATM   27  N   UNL     1      -0.764   6.438 -32.472  1.00  0.00    -0.365 N 
HETATM   28  H   UNL     1      -0.918   6.117 -31.523  1.00  0.00     0.159 HD
HETATM   29  H   UNL     1       0.048   6.158 -32.999  1.00  0.00     0.159 HD
HETATM   30  O   UNL     1      -1.559   7.660 -34.198  1.00  0.00    -0.266 OA
ENDBRANCH   8  26
TORSDOF 6
ENDMDL
MODEL 8
REMARK VINA RESULT:      -8.1      2.824      3.188
REMARK  6 active torsions:
REMARK  status: ('A' for Active; 'I' for Inactive)
REMARK    1  A    between atoms: C_2  and  C_3 
REMARK    2  A    between atoms: C_3  and  C_4 
REMARK    3  A    between atoms: C_3  and  C_11 
REMARK    4  A    between atoms: C_11  and  C_12 
REMARK       I    between atoms: C_12  and  N_13 
REMARK    5  A    between atoms: N_13  and  C_14 
REMARK    6  A    between atoms: C_21  and  C_22 
REMARK       I    between atoms: C_22  and  N_23 
ROOT
HETATM    1  C   UNL     1      -3.929   4.673 -31.690  1.00  0.00     0.035 A 
HETATM    2  C   UNL     1      -4.489   4.989 -30.444  1.00  0.00     0.046 A 
HETATM    3  C   UNL     1      -4.182   6.222 -29.830  1.00  0.00     0.030 A 
HETATM    4  C   UNL     1      -3.321   7.098 -30.480  1.00  0.00     0.063 A 
HETATM    5  N   UNL     1      -3.214   8.181 -29.652  1.00  0.00    -0.277 N 
HETATM    6  H   UNL     1      -2.663   9.018 -29.805  1.00  0.00     0.189 HD
HETATM    7  N   UNL     1      -3.938   8.094 -28.525  1.00  0.00    -0.168 NA
HETATM    8  C   UNL     1      -4.546   6.889 -28.621  1.00  0.00     0.156 A 
HETATM    9  C   UNL     1      -2.744   6.819 -31.720  1.00  0.00     0.034 A 
HETATM   10  C   UNL     1      -3.071   5.591 -32.312  1.00  0.00     0.032 A 
ENDROOT
BRANCH   1  11
HETATM   11  N   UNL     1      -4.196   3.475 -32.387  1.00  0.00    -0.327 N 
HETATM   12  C   UNL     1      -3.715   2.208 -32.091  1.00  0.00     0.222 C 
HETATM   13  O   UNL     1      -2.884   1.934 -31.235  1.00  0.00    -0.273 OA
HETATM   14  H   UNL     1      -4.779   3.558 -33.210  1.00  0.00     0.169 HD
BRANCH  12  15
HETATM   15  C   UNL     1      -4.309   1.149 -33.009  1.00  0.00     0.112 C 
BRANCH  15  16
HETATM   16  C   UNL     1      -4.974  -0.005 -32.232  1.00  0.00     0.027 C 
BRANCH  16  17
HETATM   17  C   UNL     1      -6.157   0.437 -31.334  1.00  0.00     0.005 C 
HETATM   18  C   UNL     1      -5.902   0.418 -29.832  1.00  0.00     0.006 C 
ENDBRANCH  16  17
BRANCH  16  19
HETATM   19  C   UNL     1      -5.372  -1.173 -33.129  1.00  0.00    -0.053 A 
HETATM   20  C   UNL     1      -6.680  -1.362 -33.594  1.00  0.00     0.008 A 
HETATM   21  C   UNL     1      -7.003  -2.463 -34.395  1.00  0.00     0.007 A 
HETATM   22  C   UNL     1      -6.023  -3.393 -34.755  1.00  0.00    -0.062 A 
HETATM   23  C   UNL     1      -6.366  -4.592 -35.588  1.00  0.00     0.048 C 
HETATM   24  C   UNL     1      -4.720  -3.216 -34.286  1.00  0.00     0.007 A 
HETATM   25  C   UNL     1      -4.398  -2.120 -33.483  1.00  0.00     0.008 A 
ENDBRANCH  16  19
ENDBRANCH  15  16
ENDBRANCH  12  15
ENDBRANCH   1  11
BRANCH   8  26
HETATM   26  C   UNL     1      -5.454   6.407 -27.571  1.00  0.00     0.270 C 
HETATM   27  N   UNL     1      -4.928   5.415 -26.789  1.00  0.00    -0.365 N 
HETATM   28  H   UNL     1      -3.984   5.097 -26.977  1.00  0.00     0.159 HD
HETATM   29  H   UNL     1      -5.477   5.029 -26.037  1.00  0.00     0.159 HD
HETATM   30  O   UNL     1      -6.587   6.833 -27.374  1.00  0.00    -0.266 OA
ENDBRANCH   8  26
TORSDOF 6
ENDMDL
MODEL 9
REMARK VINA RESULT:      -8.0      5.045      7.874
REMARK  6 active torsions:
REMARK  status: ('A' for Active; 'I' for Inactive)
REMARK    1  A    between atoms: C_2  and  C_3 
REMARK    2  A    between atoms: C_3  and  C_4 
REMARK    3  A    between atoms: C_3  and  C_11 
REMARK    4  A    between atoms: C_11  and  C_12 
REMARK       I    between atoms: C_12  and  N_13 
REMARK    5  A    between atoms: N_13  and  C_14 
REMARK    6  A    between atoms: C_21  and  C_22 
REMARK       I    between atoms: C_22  and  N_23 
ROOT
HETATM    1  C   UNL     1      -9.748   1.706 -33.052  1.00  0.00     0.035 A 
HETATM    2  C   UNL     1     -10.451   2.626 -32.261  1.00  0.00     0.046 A 
HETATM    3  C   UNL     1     -11.682   3.145 -32.717  1.00  0.00     0.030 A 
HETATM    4  C   UNL     1     -12.169   2.730 -33.950  1.00  0.00     0.063 A 
HETATM    5  N   UNL     1     -13.352   3.395 -34.115  1.00  0.00    -0.277 N 
HETATM    6  H   UNL     1     -13.983   3.339 -34.906  1.00  0.00     0.189 HD
HETATM    7  N   UNL     1     -13.685   4.200 -33.093  1.00  0.00    -0.168 NA
HETATM    8  C   UNL     1     -12.664   4.054 -32.218  1.00  0.00     0.156 A 
HETATM    9  C   UNL     1     -11.498   1.816 -34.765  1.00  0.00     0.034 A 
HETATM   10  C   UNL     1     -10.282   1.311 -34.287  1.00  0.00     0.032 A 
ENDROOT
BRANCH   1  11
HETATM   11  N   UNL     1      -8.522   1.120 -32.669  1.00  0.00    -0.327 N 
HETATM   12  C   UNL     1      -7.298   1.756 -32.526  1.00  0.00     0.222 C 
HETATM   13  O   UNL     1      -7.051   2.919 -32.817  1.00  0.00    -0.273 OA
HETATM   14  H   UNL     1      -8.536   0.121 -32.511  1.00  0.00     0.169 HD
BRANCH  12  15
HETATM   15  C   UNL     1      -6.229   0.811 -31.994  1.00  0.00     0.112 C 
BRANCH  15  16
HETATM   16  C   UNL     1      -5.189   0.427 -33.065  1.00  0.00     0.027 C 
BRANCH  16  17
HETATM   17  C   UNL     1      -3.720   0.537 -32.586  1.00  0.00     0.005 C 
HETATM   18  C   UNL     1      -3.496   0.438 -31.083  1.00  0.00     0.006 C 
ENDBRANCH  16  17
BRANCH  16  19
HETATM   19  C   UNL     1      -5.461  -0.935 -33.696  1.00  0.00    -0.053 A 
HETATM   20  C   UNL     1      -6.734  -1.331 -34.127  1.00  0.00     0.008 A 
HETATM   21  C   UNL     1      -6.940  -2.601 -34.678  1.00  0.00     0.007 A 
HETATM   22  C   UNL     1      -5.876  -3.497 -34.817  1.00  0.00    -0.062 A 
HETATM   23  C   UNL     1      -6.094  -4.871 -35.378  1.00  0.00     0.048 C 
HETATM   24  C   UNL     1      -4.607  -3.112 -34.379  1.00  0.00     0.007 A 
HETATM   25  C   UNL     1      -4.402  -1.847 -33.825  1.00  0.00     0.008 A 
ENDBRANCH  16  19
ENDBRANCH  15  16
ENDBRANCH  12  15
ENDBRANCH   1  11
BRANCH   8  26
HETATM   26  C   UNL     1     -12.649   4.773 -30.936  1.00  0.00     0.270 C 
HETATM   27  N   UNL     1     -12.756   3.963 -29.839  1.00  0.00    -0.365 N 
HETATM   28  H   UNL     1     -12.830   2.962 -29.979  1.00  0.00     0.159 HD
HETATM   29  H   UNL     1     -12.746   4.368 -28.917  1.00  0.00     0.159 HD
HETATM   30  O   UNL     1     -12.545   5.989 -30.816  1.00  0.00    -0.266 OA
ENDBRANCH   8  26
TORSDOF 6
ENDMDL
MODEL 10
REMARK VINA RESULT:      -7.9      2.044      3.072
REMARK  6 active torsions:
REMARK  status: ('A' for Active; 'I' for Inactive)
REMARK    1  A    between atoms: C_2  and  C_3 
REMARK    2  A    between atoms: C_3  and  C_4 
REMARK    3  A    between atoms: C_3  and  C_11 
REMARK    4  A    between atoms: C_11  and  C_12 
REMARK       I    between atoms: C_12  and  N_13 
REMARK    5  A    between atoms: N_13  and  C_14 
REMARK    6  A    between atoms: C_21  and  C_22 
REMARK       I    between atoms: C_22  and  N_23 
ROOT
HETATM    1  C   UNL     1      -3.540   3.716 -32.542  1.00  0.00     0.035 A 
HETATM    2  C   UNL     1      -2.451   3.952 -31.690  1.00  0.00     0.046 A 
HETATM    3  C   UNL     1      -1.639   5.089 -31.891  1.00  0.00     0.030 A 
HETATM    4  C   UNL     1      -1.938   5.950 -32.938  1.00  0.00     0.063 A 
HETATM    5  N   UNL     1      -0.990   6.934 -32.880  1.00  0.00    -0.277 N 
HETATM    6  H   UNL     1      -0.897   7.733 -33.496  1.00  0.00     0.189 HD
HETATM    7  N   UNL     1      -0.104   6.795 -31.881  1.00  0.00    -0.168 NA
HETATM    8  C   UNL     1      -0.494   5.660 -31.256  1.00  0.00     0.156 A 
HETATM    9  C   UNL     1      -3.013   5.749 -33.806  1.00  0.00     0.034 A 
HETATM   10  C   UNL     1      -3.809   4.618 -33.582  1.00  0.00     0.032 A 
ENDROOT
BRANCH   1  11
HETATM   11  N   UNL     1      -4.417   2.619 -32.406  1.00  0.00    -0.327 N 
HETATM   12  C   UNL     1      -4.104   1.345 -31.956  1.00  0.00     0.222 C 
HETATM   13  O   UNL     1      -2.981   0.925 -31.706  1.00  0.00    -0.273 OA
HETATM   14  H   UNL     1      -5.375   2.774 -32.696  1.00  0.00     0.169 HD
BRANCH  12  15
HETATM   15  C   UNL     1      -5.340   0.463 -31.846  1.00  0.00     0.112 C 
BRANCH  15  16
HETATM   16  C   UNL     1      -5.875   0.016 -33.221  1.00  0.00     0.027 C 
BRANCH  16  17
HETATM   17  C   UNL     1      -5.529  -1.448 -33.588  1.00  0.00     0.005 C 
HETATM   18  C   UNL     1      -6.301  -2.047 -34.758  1.00  0.00     0.006 C 
ENDBRANCH  16  17
BRANCH  16  19
HETATM   19  C   UNL     1      -7.366   0.289 -33.395  1.00  0.00    -0.053 A 
HETATM   20  C   UNL     1      -7.896   0.915 -34.531  1.00  0.00     0.008 A 
HETATM   21  C   UNL     1      -9.269   1.166 -34.634  1.00  0.00     0.007 A 
HETATM   22  C   UNL     1     -10.141   0.789 -33.609  1.00  0.00    -0.062 A 
HETATM   23  C   UNL     1     -11.609   1.081 -33.697  1.00  0.00     0.048 C 
HETATM   24  C   UNL     1      -9.617   0.174 -32.469  1.00  0.00     0.007 A 
HETATM   25  C   UNL     1      -8.247  -0.073 -32.363  1.00  0.00     0.008 A 
ENDBRANCH  16  19
ENDBRANCH  15  16
ENDBRANCH  12  15
ENDBRANCH   1  11
BRANCH   8  26
HETATM   26  C   UNL     1       0.224   5.153 -30.079  1.00  0.00     0.270 C 
HETATM   27  N   UNL     1      -0.251   5.629 -28.887  1.00  0.00    -0.365 N 
HETATM   28  H   UNL     1      -1.037   6.269 -28.897  1.00  0.00     0.159 HD
HETATM   29  H   UNL     1       0.175   5.328 -28.025  1.00  0.00     0.159 HD
HETATM   30  O   UNL     1       1.165   4.367 -30.115  1.00  0.00    -0.266 OA
ENDBRANCH   8  26
TORSDOF 6
ENDMDL
