MODEL 1
REMARK VINA RESULT:     -11.0      0.000      0.000
REMARK  4 active torsions:
REMARK  status: ('A' for Active; 'I' for Inactive)
REMARK    1  A    between atoms: C_4  and  C_5 
REMARK    2  A    between atoms: N_8  and  C_9 
REMARK    3  A    between atoms: C_12  and  C_13 
REMARK       I    between atoms: C_13  and  N_14 
REMARK    4  A    between atoms: N_14  and  N_15 
ROOT
HETATM    1  C   UNL     1      -5.077   3.046 -33.086  1.00  0.00     0.034 A 
HETATM    2  C   UNL     1      -4.442   2.455 -31.988  1.00  0.00     0.030 A 
HETATM    3  C   UNL     1      -3.300   3.032 -31.403  1.00  0.00     0.019 A 
HETATM    4  C   UNL     1      -2.768   4.217 -31.921  1.00  0.00     0.033 A 
HETATM    5  C   UNL     1      -3.384   4.807 -33.029  1.00  0.00     0.019 A 
HETATM    6  C   UNL     1      -4.515   4.223 -33.605  1.00  0.00     0.030 A 
ENDROOT
BRANCH   4   7
HETATM    7  C   UNL     1      -1.605   4.929 -31.319  1.00  0.00     0.271 C 
HETATM    8  N   UNL     1      -1.865   5.730 -30.219  1.00  0.00    -0.242 N 
HETATM    9  H   UNL     1      -2.785   5.764 -29.780  1.00  0.00     0.192 HD
HETATM   10  O   UNL     1      -0.490   4.756 -31.808  1.00  0.00    -0.266 OA
BRANCH   8  11
HETATM   11  N   UNL     1      -0.828   6.405 -29.636  1.00  0.00    -0.166 NA
HETATM   12  C   UNL     1      -1.114   7.229 -28.682  1.00  0.00     0.157 A 
HETATM   13  C   UNL     1      -2.480   7.570 -28.085  1.00  0.00     0.277 A 
HETATM   14  C   UNL     1      -0.144   8.032 -27.947  1.00  0.00     0.027 A 
HETATM   15  O   UNL     1      -3.534   7.094 -28.453  1.00  0.00    -0.266 OA
HETATM   16  N   UNL     1      -2.230   8.491 -27.090  1.00  0.00    -0.321 N 
HETATM   17  C   UNL     1      -0.866   8.766 -27.007  1.00  0.00     0.048 A 
HETATM   18  H   UNL     1      -2.951   8.900 -26.515  1.00  0.00     0.169 HD
HETATM   19  C   UNL     1      -0.233   9.632 -26.141  1.00  0.00     0.030 A 
HETATM   20  C   UNL     1       1.159   9.744 -26.249  1.00  0.00     0.002 A 
HETATM   21  C   UNL     1       1.883   8.999 -27.204  1.00  0.00     0.001 A 
HETATM   22  C   UNL     1       1.226   8.125 -28.073  1.00  0.00     0.016 A 
ENDBRANCH   8  11
ENDBRANCH   4   7
BRANCH   1  23
HETATM   23  N   UNL     1      -6.237   2.546 -33.704  1.00  0.00    -0.335 N 
HETATM   24  C   UNL     1      -6.584   1.275 -34.010  1.00  0.00     0.171 A 
HETATM   25  N   UNL     1      -5.842   0.191 -33.966  1.00  0.00    -0.223 NA
HETATM   26  S   UNL     1      -8.212   0.996 -34.536  1.00  0.00    -0.061 SA
HETATM   27  C   UNL     1      -6.573  -0.931 -34.333  1.00  0.00     0.076 A 
HETATM   28  C   UNL     1      -7.883  -0.676 -34.679  1.00  0.00     0.085 A 
HETATM   29  H   UNL     1      -6.975   3.232 -33.800  1.00  0.00     0.168 HD
BRANCH  27  30
HETATM   30  C   UNL     1      -5.962  -2.255 -34.378  1.00  0.00    -0.007 A 
HETATM   31  C   UNL     1      -4.625  -2.466 -34.004  1.00  0.00     0.014 A 
HETATM   32  C   UNL     1      -4.072  -3.750 -34.039  1.00  0.00     0.001 A 
HETATM   33  C   UNL     1      -4.846  -4.833 -34.448  1.00  0.00     0.000 A 
HETATM   34  C   UNL     1      -6.171  -4.635 -34.831  1.00  0.00     0.001 A 
HETATM   35  C   UNL     1      -6.724  -3.352 -34.801  1.00  0.00     0.014 A 
ENDBRANCH  27  30
ENDBRANCH   1  23
TORSDOF 4
ENDMDL
MODEL 2
REMARK VINA RESULT:     -10.4      2.861     11.508
REMARK  4 active torsions:
REMARK  status: ('A' for Active; 'I' for Inactive)
REMARK    1  A    between atoms: C_4  and  C_5 
REMARK    2  A    between atoms: N_8  and  C_9 
REMARK    3  A    between atoms: C_12  and  C_13 
REMARK       I    between atoms: C_13  and  N_14 
REMARK    4  A    between atoms: N_14  and  N_15 
ROOT
HETATM    1  C   UNL     1      -3.960   5.731 -31.099  1.00  0.00     0.034 A 
HETATM    2  C   UNL     1      -4.909   4.837 -30.590  1.00  0.00     0.030 A 
HETATM    3  C   UNL     1      -4.794   3.450 -30.793  1.00  0.00     0.019 A 
HETATM    4  C   UNL     1      -3.720   2.934 -31.524  1.00  0.00     0.033 A 
HETATM    5  C   UNL     1      -2.775   3.818 -32.053  1.00  0.00     0.019 A 
HETATM    6  C   UNL     1      -2.901   5.194 -31.850  1.00  0.00     0.030 A 
ENDROOT
BRANCH   4   7
HETATM    7  C   UNL     1      -3.487   1.475 -31.725  1.00  0.00     0.271 C 
HETATM    8  N   UNL     1      -4.176   0.871 -32.765  1.00  0.00    -0.242 N 
HETATM    9  H   UNL     1      -4.744   1.407 -33.421  1.00  0.00     0.192 HD
HETATM   10  O   UNL     1      -2.693   0.897 -30.985  1.00  0.00    -0.266 OA
BRANCH   8  11
HETATM   11  N   UNL     1      -3.996  -0.467 -32.985  1.00  0.00    -0.166 NA
HETATM   12  C   UNL     1      -4.926  -1.097 -33.624  1.00  0.00     0.157 A 
HETATM   13  C   UNL     1      -6.237  -0.554 -34.192  1.00  0.00     0.277 A 
HETATM   14  C   UNL     1      -4.907  -2.518 -33.949  1.00  0.00     0.027 A 
HETATM   15  O   UNL     1      -6.603   0.600 -34.107  1.00  0.00    -0.266 OA
HETATM   16  N   UNL     1      -6.858  -1.632 -34.787  1.00  0.00    -0.321 N 
HETATM   17  C   UNL     1      -6.084  -2.783 -34.645  1.00  0.00     0.048 A 
HETATM   18  H   UNL     1      -7.751  -1.574 -35.253  1.00  0.00     0.169 HD
HETATM   19  C   UNL     1      -6.372  -4.051 -35.102  1.00  0.00     0.030 A 
HETATM   20  C   UNL     1      -5.435  -5.058 -34.835  1.00  0.00     0.002 A 
HETATM   21  C   UNL     1      -4.245  -4.782 -34.128  1.00  0.00     0.001 A 
HETATM   22  C   UNL     1      -3.969  -3.491 -33.673  1.00  0.00     0.016 A 
ENDBRANCH   8  11
ENDBRANCH   4   7
BRANCH   1  23
HETATM   23  N   UNL     1      -3.990   7.124 -30.913  1.00  0.00    -0.335 N 
HETATM   24  C   UNL     1      -3.141   7.933 -30.239  1.00  0.00     0.171 A 
HETATM   25  N   UNL     1      -2.159   7.598 -29.433  1.00  0.00    -0.223 NA
HETATM   26  S   UNL     1      -3.342   9.643 -30.435  1.00  0.00    -0.061 SA
HETATM   27  C   UNL     1      -1.499   8.722 -28.954  1.00  0.00     0.076 A 
HETATM   28  C   UNL     1      -2.014   9.923 -29.396  1.00  0.00     0.085 A 
HETATM   29  H   UNL     1      -4.673   7.597 -31.491  1.00  0.00     0.168 HD
BRANCH  27  30
HETATM   30  C   UNL     1      -0.378   8.608 -28.027  1.00  0.00    -0.007 A 
HETATM   31  C   UNL     1       0.385   7.434 -27.928  1.00  0.00     0.014 A 
HETATM   32  C   UNL     1       1.466   7.360 -27.044  1.00  0.00     0.001 A 
HETATM   33  C   UNL     1       1.793   8.456 -26.249  1.00  0.00     0.000 A 
HETATM   34  C   UNL     1       1.037   9.624 -26.329  1.00  0.00     0.001 A 
HETATM   35  C   UNL     1      -0.045   9.697 -27.210  1.00  0.00     0.014 A 
ENDBRANCH  27  30
ENDBRANCH   1  23
TORSDOF 4
ENDMDL
MODEL 3
REMARK VINA RESULT:      -9.8      1.560      2.433
REMARK  4 active torsions:
REMARK  status: ('A' for Active; 'I' for Inactive)
REMARK    1  A    between atoms: C_4  and  C_5 
REMARK    2  A    between atoms: N_8  and  C_9 
REMARK    3  A    between atoms: C_12  and  C_13 
REMARK       I    between atoms: C_13  and  N_14 
REMARK    4  A    between atoms: N_14  and  N_15 
ROOT
HETATM    1  C   UNL     1      -6.347   3.088 -32.629  1.00  0.00     0.034 A 
HETATM    2  C   UNL     1      -7.069   3.350 -31.459  1.00  0.00     0.030 A 
HETATM    3  C   UNL     1      -6.554   4.184 -30.451  1.00  0.00     0.019 A 
HETATM    4  C   UNL     1      -5.292   4.767 -30.598  1.00  0.00     0.033 A 
HETATM    5  C   UNL     1      -4.553   4.499 -31.754  1.00  0.00     0.019 A 
HETATM    6  C   UNL     1      -5.072   3.665 -32.748  1.00  0.00     0.030 A 
ENDROOT
BRANCH   4   7
HETATM    7  C   UNL     1      -4.704   5.717 -29.610  1.00  0.00     0.271 C 
HETATM    8  N   UNL     1      -3.460   6.244 -29.917  1.00  0.00    -0.242 N 
HETATM    9  H   UNL     1      -3.004   6.069 -30.812  1.00  0.00     0.192 HD
HETATM   10  O   UNL     1      -5.351   5.996 -28.602  1.00  0.00    -0.266 OA
BRANCH   8  11
HETATM   11  N   UNL     1      -2.880   7.117 -29.037  1.00  0.00    -0.166 NA
HETATM   12  C   UNL     1      -1.590   7.207 -29.049  1.00  0.00     0.157 A 
HETATM   13  C   UNL     1      -0.585   6.465 -29.929  1.00  0.00     0.277 A 
HETATM   14  C   UNL     1      -0.802   8.081 -28.188  1.00  0.00     0.027 A 
HETATM   15  O   UNL     1      -0.877   5.642 -30.771  1.00  0.00    -0.266 OA
HETATM   16  N   UNL     1       0.656   6.934 -29.551  1.00  0.00    -0.321 N 
HETATM   17  C   UNL     1       0.533   7.878 -28.532  1.00  0.00     0.048 A 
HETATM   18  H   UNL     1       1.520   6.622 -29.966  1.00  0.00     0.169 HD
HETATM   19  C   UNL     1       1.545   8.565 -27.895  1.00  0.00     0.030 A 
HETATM   20  C   UNL     1       1.174   9.469 -26.891  1.00  0.00     0.002 A 
HETATM   21  C   UNL     1      -0.180   9.668 -26.548  1.00  0.00     0.001 A 
HETATM   22  C   UNL     1      -1.192   8.964 -27.204  1.00  0.00     0.016 A 
ENDBRANCH   8  11
ENDBRANCH   4   7
BRANCH   1  23
HETATM   23  N   UNL     1      -6.806   2.291 -33.692  1.00  0.00    -0.335 N 
HETATM   24  C   UNL     1      -6.549   0.996 -33.987  1.00  0.00     0.171 A 
HETATM   25  N   UNL     1      -5.657   0.196 -33.448  1.00  0.00    -0.223 NA
HETATM   26  S   UNL     1      -7.497   0.257 -35.236  1.00  0.00    -0.061 SA
HETATM   27  C   UNL     1      -5.719  -1.073 -34.007  1.00  0.00     0.076 A 
HETATM   28  C   UNL     1      -6.665  -1.217 -35.001  1.00  0.00     0.085 A 
HETATM   29  H   UNL     1      -7.551   2.718 -34.229  1.00  0.00     0.168 HD
BRANCH  27  30
HETATM   30  C   UNL     1      -4.815  -2.136 -33.583  1.00  0.00    -0.007 A 
HETATM   31  C   UNL     1      -3.996  -2.004 -32.450  1.00  0.00     0.014 A 
HETATM   32  C   UNL     1      -3.153  -3.047 -32.056  1.00  0.00     0.001 A 
HETATM   33  C   UNL     1      -3.117  -4.231 -32.790  1.00  0.00     0.000 A 
HETATM   34  C   UNL     1      -3.917  -4.371 -33.922  1.00  0.00     0.001 A 
HETATM   35  C   UNL     1      -4.758  -3.327 -34.319  1.00  0.00     0.014 A 
ENDBRANCH  27  30
ENDBRANCH   1  23
TORSDOF 4
ENDMDL
MODEL 4
REMARK VINA RESULT:      -9.7      3.261     11.136
REMARK  4 active torsions:
REMARK  status: ('A' for Active; 'I' for Inactive)
REMARK    1  A    between atoms: C_4  and  C_5 
REMARK    2  A    between atoms: N_8  and  C_9 
REMARK    3  A    between atoms: C_12  and  C_13 
REMARK       I    between atoms: C_13  and  N_14 
REMARK    4  A    between atoms: N_14  and  N_15 
ROOT
HETATM    1  C   UNL     1      -6.278   5.764 -30.298  1.00  0.00     0.034 A 
HETATM    2  C   UNL     1      -5.903   5.448 -31.609  1.00  0.00     0.030 A 
HETATM    3  C   UNL     1      -6.114   4.164 -32.142  1.00  0.00     0.019 A 
HETATM    4  C   UNL     1      -6.702   3.166 -31.359  1.00  0.00     0.033 A 
HETATM    5  C   UNL     1      -7.065   3.465 -30.042  1.00  0.00     0.019 A 
HETATM    6  C   UNL     1      -6.846   4.742 -29.521  1.00  0.00     0.030 A 
ENDROOT
BRANCH   4   7
HETATM    7  C   UNL     1      -7.024   1.802 -31.869  1.00  0.00     0.271 C 
HETATM    8  N   UNL     1      -6.399   1.411 -33.042  1.00  0.00    -0.242 N 
HETATM    9  H   UNL     1      -5.684   1.984 -33.491  1.00  0.00     0.192 HD
HETATM   10  O   UNL     1      -7.798   1.098 -31.222  1.00  0.00    -0.266 OA
BRANCH   8  11
HETATM   11  N   UNL     1      -6.667   0.169 -33.548  1.00  0.00    -0.166 NA
HETATM   12  C   UNL     1      -5.705  -0.694 -33.553  1.00  0.00     0.157 A 
HETATM   13  C   UNL     1      -4.268  -0.531 -33.059  1.00  0.00     0.277 A 
HETATM   14  C   UNL     1      -5.805  -2.061 -34.051  1.00  0.00     0.027 A 
HETATM   15  O   UNL     1      -3.812   0.486 -32.579  1.00  0.00    -0.266 OA
HETATM   16  N   UNL     1      -3.659  -1.749 -33.279  1.00  0.00    -0.321 N 
HETATM   17  C   UNL     1      -4.554  -2.645 -33.861  1.00  0.00     0.048 A 
HETATM   18  H   UNL     1      -2.697  -1.941 -33.047  1.00  0.00     0.169 HD
HETATM   19  C   UNL     1      -4.316  -3.952 -34.229  1.00  0.00     0.030 A 
HETATM   20  C   UNL     1      -5.379  -4.662 -34.803  1.00  0.00     0.002 A 
HETATM   21  C   UNL     1      -6.642  -4.062 -34.993  1.00  0.00     0.001 A 
HETATM   22  C   UNL     1      -6.867  -2.738 -34.612  1.00  0.00     0.016 A 
ENDBRANCH   8  11
ENDBRANCH   4   7
BRANCH   1  23
HETATM   23  N   UNL     1      -6.127   7.030 -29.706  1.00  0.00    -0.335 N 
HETATM   24  C   UNL     1      -5.028   7.627 -29.189  1.00  0.00     0.171 A 
HETATM   25  N   UNL     1      -3.849   7.100 -28.948  1.00  0.00    -0.223 NA
HETATM   26  S   UNL     1      -5.150   9.305 -28.774  1.00  0.00    -0.061 SA
HETATM   27  C   UNL     1      -2.972   8.049 -28.437  1.00  0.00     0.076 A 
HETATM   28  C   UNL     1      -3.516   9.305 -28.274  1.00  0.00     0.085 A 
HETATM   29  H   UNL     1      -6.934   7.631 -29.817  1.00  0.00     0.168 HD
BRANCH  27  30
HETATM   30  C   UNL     1      -1.603   7.700 -28.075  1.00  0.00    -0.007 A 
HETATM   31  C   UNL     1      -1.308   6.957 -26.921  1.00  0.00     0.014 A 
HETATM   32  C   UNL     1       0.013   6.621 -26.609  1.00  0.00     0.001 A 
HETATM   33  C   UNL     1       1.052   7.026 -27.444  1.00  0.00     0.000 A 
HETATM   34  C   UNL     1       0.774   7.773 -28.587  1.00  0.00     0.001 A 
HETATM   35  C   UNL     1      -0.546   8.112 -28.898  1.00  0.00     0.014 A 
ENDBRANCH  27  30
ENDBRANCH   1  23
TORSDOF 4
ENDMDL
MODEL 5
REMARK VINA RESULT:      -9.5      2.226      3.108
REMARK  4 active torsions:
REMARK  status: ('A' for Active; 'I' for Inactive)
REMARK    1  A    between atoms: C_4  and  C_5 
REMARK    2  A    between atoms: N_8  and  C_9 
REMARK    3  A    between atoms: C_12  and  C_13 
REMARK       I    between atoms: C_13  and  N_14 
REMARK    4  A    between atoms: N_14  and  N_15 
ROOT
HETATM    1  C   UNL     1      -7.591   4.130 -31.117  1.00  0.00     0.034 A 
HETATM    2  C   UNL     1      -8.093   4.409 -29.840  1.00  0.00     0.030 A 
HETATM    3  C   UNL     1      -7.280   4.970 -28.839  1.00  0.00     0.019 A 
HETATM    4  C   UNL     1      -5.937   5.255 -29.102  1.00  0.00     0.033 A 
HETATM    5  C   UNL     1      -5.419   4.963 -30.368  1.00  0.00     0.019 A 
HETATM    6  C   UNL     1      -6.234   4.402 -31.354  1.00  0.00     0.030 A 
ENDROOT
BRANCH   4   7
HETATM    7  C   UNL     1      -5.027   5.912 -28.121  1.00  0.00     0.271 C 
HETATM    8  N   UNL     1      -3.888   6.515 -28.633  1.00  0.00    -0.242 N 
HETATM    9  H   UNL     1      -3.720   6.589 -29.636  1.00  0.00     0.192 HD
HETATM   10  O   UNL     1      -5.338   5.905 -26.931  1.00  0.00    -0.266 OA
BRANCH   8  11
HETATM   11  N   UNL     1      -3.023   7.127 -27.768  1.00  0.00    -0.166 NA
HETATM   12  C   UNL     1      -1.812   7.323 -28.176  1.00  0.00     0.157 A 
HETATM   13  C   UNL     1      -1.183   6.966 -29.523  1.00  0.00     0.277 A 
HETATM   14  C   UNL     1      -0.756   7.959 -27.397  1.00  0.00     0.027 A 
HETATM   15  O   UNL     1      -1.764   6.413 -30.434  1.00  0.00    -0.266 OA
HETATM   16  N   UNL     1       0.124   7.401 -29.449  1.00  0.00    -0.321 N 
HETATM   17  C   UNL     1       0.378   7.980 -28.206  1.00  0.00     0.048 A 
HETATM   18  H   UNL     1       0.788   7.300 -30.201  1.00  0.00     0.169 HD
HETATM   19  C   UNL     1       1.562   8.525 -27.759  1.00  0.00     0.030 A 
HETATM   20  C   UNL     1       1.577   9.051 -26.460  1.00  0.00     0.002 A 
HETATM   21  C   UNL     1       0.425   9.024 -25.646  1.00  0.00     0.001 A 
HETATM   22  C   UNL     1      -0.767   8.470 -26.116  1.00  0.00     0.016 A 
ENDBRANCH   8  11
ENDBRANCH   4   7
BRANCH   1  23
HETATM   23  N   UNL     1      -8.347   3.598 -32.176  1.00  0.00    -0.335 N 
HETATM   24  C   UNL     1      -8.194   2.444 -32.865  1.00  0.00     0.171 A 
HETATM   25  N   UNL     1      -7.185   1.603 -32.837  1.00  0.00    -0.223 NA
HETATM   26  S   UNL     1      -9.471   1.980 -33.941  1.00  0.00    -0.061 SA
HETATM   27  C   UNL     1      -7.415   0.518 -33.672  1.00  0.00     0.076 A 
HETATM   28  C   UNL     1      -8.613   0.561 -34.355  1.00  0.00     0.085 A 
HETATM   29  H   UNL     1      -9.215   4.091 -32.343  1.00  0.00     0.168 HD
BRANCH  27  30
HETATM   30  C   UNL     1      -6.430  -0.548 -33.823  1.00  0.00    -0.007 A 
HETATM   31  C   UNL     1      -6.650  -1.646 -34.669  1.00  0.00     0.014 A 
HETATM   32  C   UNL     1      -5.679  -2.642 -34.809  1.00  0.00     0.001 A 
HETATM   33  C   UNL     1      -4.481  -2.553 -34.103  1.00  0.00     0.000 A 
HETATM   34  C   UNL     1      -4.254  -1.473 -33.253  1.00  0.00     0.001 A 
HETATM   35  C   UNL     1      -5.225  -0.479 -33.110  1.00  0.00     0.014 A 
ENDBRANCH  27  30
ENDBRANCH   1  23
TORSDOF 4
ENDMDL
MODEL 6
REMARK VINA RESULT:      -9.4      3.126     11.454
REMARK  4 active torsions:
REMARK  status: ('A' for Active; 'I' for Inactive)
REMARK    1  A    between atoms: C_4  and  C_5 
REMARK    2  A    between atoms: N_8  and  C_9 
REMARK    3  A    between atoms: C_12  and  C_13 
REMARK       I    between atoms: C_13  and  N_14 
REMARK    4  A    between atoms: N_14  and  N_15 
ROOT
HETATM    1  C   UNL     1      -4.336   5.593 -31.292  1.00  0.00     0.034 A 
HETATM    2  C   UNL     1      -3.056   5.178 -31.679  1.00  0.00     0.030 A 
HETATM    3  C   UNL     1      -2.738   3.815 -31.816  1.00  0.00     0.019 A 
HETATM    4  C   UNL     1      -3.704   2.838 -31.557  1.00  0.00     0.033 A 
HETATM    5  C   UNL     1      -4.981   3.240 -31.153  1.00  0.00     0.019 A 
HETATM    6  C   UNL     1      -5.286   4.597 -31.015  1.00  0.00     0.030 A 
ENDROOT
BRANCH   4   7
HETATM    7  C   UNL     1      -3.470   1.378 -31.745  1.00  0.00     0.271 C 
HETATM    8  N   UNL     1      -4.171   0.760 -32.769  1.00  0.00    -0.242 N 
HETATM    9  H   UNL     1      -4.749   1.287 -33.423  1.00  0.00     0.192 HD
HETATM   10  O   UNL     1      -2.664   0.810 -31.010  1.00  0.00    -0.266 OA
BRANCH   8  11
HETATM   11  N   UNL     1      -3.990  -0.579 -32.976  1.00  0.00    -0.166 NA
HETATM   12  C   UNL     1      -4.901  -1.209 -33.643  1.00  0.00     0.157 A 
HETATM   13  C   UNL     1      -6.189  -0.662 -34.259  1.00  0.00     0.277 A 
HETATM   14  C   UNL     1      -4.877  -2.631 -33.960  1.00  0.00     0.027 A 
HETATM   15  O   UNL     1      -6.552   0.494 -34.192  1.00  0.00    -0.266 OA
HETATM   16  N   UNL     1      -6.795  -1.740 -34.869  1.00  0.00    -0.321 N 
HETATM   17  C   UNL     1      -6.032  -2.894 -34.696  1.00  0.00     0.048 A 
HETATM   18  H   UNL     1      -7.671  -1.680 -35.365  1.00  0.00     0.169 HD
HETATM   19  C   UNL     1      -6.309  -4.163 -35.156  1.00  0.00     0.030 A 
HETATM   20  C   UNL     1      -5.387  -5.173 -34.852  1.00  0.00     0.002 A 
HETATM   21  C   UNL     1      -4.221  -4.900 -34.106  1.00  0.00     0.001 A 
HETATM   22  C   UNL     1      -3.954  -3.607 -33.648  1.00  0.00     0.016 A 
ENDBRANCH   8  11
ENDBRANCH   4   7
BRANCH   1  23
HETATM   23  N   UNL     1      -4.737   6.934 -31.163  1.00  0.00    -0.335 N 
HETATM   24  C   UNL     1      -4.591   7.793 -30.128  1.00  0.00     0.171 A 
HETATM   25  N   UNL     1      -4.188   7.538 -28.904  1.00  0.00    -0.223 NA
HETATM   26  S   UNL     1      -4.977   9.459 -30.412  1.00  0.00    -0.061 SA
HETATM   27  C   UNL     1      -4.146   8.696 -28.139  1.00  0.00     0.076 A 
HETATM   28  C   UNL     1      -4.547   9.838 -28.801  1.00  0.00     0.085 A 
HETATM   29  H   UNL     1      -5.054   7.350 -32.030  1.00  0.00     0.168 HD
BRANCH  27  30
HETATM   30  C   UNL     1      -3.744   8.667 -26.737  1.00  0.00    -0.007 A 
HETATM   31  C   UNL     1      -4.682   8.741 -25.695  1.00  0.00     0.014 A 
HETATM   32  C   UNL     1      -4.269   8.691 -24.360  1.00  0.00     0.001 A 
HETATM   33  C   UNL     1      -2.916   8.568 -24.053  1.00  0.00     0.000 A 
HETATM   34  C   UNL     1      -1.974   8.503 -25.077  1.00  0.00     0.001 A 
HETATM   35  C   UNL     1      -2.385   8.557 -26.411  1.00  0.00     0.014 A 
ENDBRANCH  27  30
ENDBRANCH   1  23
TORSDOF 4
ENDMDL
MODEL 7
REMARK VINA RESULT:      -9.3      4.204     11.771
REMARK  4 active torsions:
REMARK  status: ('A' for Active; 'I' for Inactive)
REMARK    1  A    between atoms: C_4  and  C_5 
REMARK    2  A    between atoms: N_8  and  C_9 
REMARK    3  A    between atoms: C_12  and  C_13 
REMARK       I    between atoms: C_13  and  N_14 
REMARK    4  A    between atoms: N_14  and  N_15 
ROOT
HETATM    1  C   UNL     1      -3.329   4.473 -32.297  1.00  0.00     0.034 A 
HETATM    2  C   UNL     1      -4.184   3.539 -31.700  1.00  0.00     0.030 A 
HETATM    3  C   UNL     1      -5.535   3.436 -32.077  1.00  0.00     0.019 A 
HETATM    4  C   UNL     1      -6.056   4.281 -33.061  1.00  0.00     0.033 A 
HETATM    5  C   UNL     1      -5.217   5.230 -33.652  1.00  0.00     0.019 A 
HETATM    6  C   UNL     1      -3.877   5.328 -33.267  1.00  0.00     0.030 A 
ENDROOT
BRANCH   4   7
HETATM    7  C   UNL     1      -7.456   4.191 -33.566  1.00  0.00     0.271 C 
HETATM    8  N   UNL     1      -8.238   3.166 -33.057  1.00  0.00    -0.242 N 
HETATM    9  H   UNL     1      -7.911   2.558 -32.307  1.00  0.00     0.192 HD
HETATM   10  O   UNL     1      -7.845   5.028 -34.379  1.00  0.00    -0.266 OA
BRANCH   8  11
HETATM   11  N   UNL     1      -9.528   3.043 -33.495  1.00  0.00    -0.166 NA
HETATM   12  C   UNL     1     -10.109   1.901 -33.326  1.00  0.00     0.157 A 
HETATM   13  C   UNL     1      -9.555   0.628 -32.685  1.00  0.00     0.277 A 
HETATM   14  C   UNL     1     -11.475   1.586 -33.726  1.00  0.00     0.027 A 
HETATM   15  O   UNL     1      -8.434   0.511 -32.235  1.00  0.00    -0.266 OA
HETATM   16  N   UNL     1     -10.580  -0.293 -32.743  1.00  0.00    -0.321 N 
HETATM   17  C   UNL     1     -11.704   0.263 -33.352  1.00  0.00     0.048 A 
HETATM   18  H   UNL     1     -10.504  -1.234 -32.389  1.00  0.00     0.169 HD
HETATM   19  C   UNL     1     -12.918  -0.345 -33.592  1.00  0.00     0.030 A 
HETATM   20  C   UNL     1     -13.905   0.420 -34.226  1.00  0.00     0.002 A 
HETATM   21  C   UNL     1     -13.665   1.759 -34.603  1.00  0.00     0.001 A 
HETATM   22  C   UNL     1     -12.430   2.359 -34.352  1.00  0.00     0.016 A 
ENDBRANCH   8  11
ENDBRANCH   4   7
BRANCH   1  23
HETATM   23  N   UNL     1      -1.963   4.615 -31.996  1.00  0.00    -0.335 N 
HETATM   24  C   UNL     1      -1.331   5.522 -31.216  1.00  0.00     0.171 A 
HETATM   25  N   UNL     1      -1.817   6.617 -30.677  1.00  0.00    -0.223 NA
HETATM   26  S   UNL     1       0.342   5.241 -30.859  1.00  0.00    -0.061 SA
HETATM   27  C   UNL     1      -0.855   7.271 -29.919  1.00  0.00     0.076 A 
HETATM   28  C   UNL     1       0.382   6.662 -29.909  1.00  0.00     0.085 A 
HETATM   29  H   UNL     1      -1.396   3.833 -32.298  1.00  0.00     0.168 HD
BRANCH  27  30
HETATM   30  C   UNL     1      -1.151   8.523 -29.231  1.00  0.00    -0.007 A 
HETATM   31  C   UNL     1      -0.547   8.859 -28.009  1.00  0.00     0.014 A 
HETATM   32  C   UNL     1      -0.835  10.075 -27.383  1.00  0.00     0.001 A 
HETATM   33  C   UNL     1      -1.731  10.967 -27.969  1.00  0.00     0.000 A 
HETATM   34  C   UNL     1      -2.345  10.642 -29.177  1.00  0.00     0.001 A 
HETATM   35  C   UNL     1      -2.060   9.425 -29.802  1.00  0.00     0.014 A 
ENDBRANCH  27  30
ENDBRANCH   1  23
TORSDOF 4
ENDMDL
MODEL 8
REMARK VINA RESULT:      -9.3      1.741      2.237
REMARK  4 active torsions:
REMARK  status: ('A' for Active; 'I' for Inactive)
REMARK    1  A    between atoms: C_4  and  C_5 
REMARK    2  A    between atoms: N_8  and  C_9 
REMARK    3  A    between atoms: C_12  and  C_13 
REMARK       I    between atoms: C_13  and  N_14 
REMARK    4  A    between atoms: N_14  and  N_15 
ROOT
HETATM    1  C   UNL     1      -5.647   3.820 -33.091  1.00  0.00     0.034 A 
HETATM    2  C   UNL     1      -4.565   4.472 -33.693  1.00  0.00     0.030 A 
HETATM    3  C   UNL     1      -3.705   5.302 -32.952  1.00  0.00     0.019 A 
HETATM    4  C   UNL     1      -3.924   5.499 -31.585  1.00  0.00     0.033 A 
HETATM    5  C   UNL     1      -5.013   4.867 -30.976  1.00  0.00     0.019 A 
HETATM    6  C   UNL     1      -5.864   4.048 -31.723  1.00  0.00     0.030 A 
ENDROOT
BRANCH   4   7
HETATM    7  C   UNL     1      -3.022   6.306 -30.714  1.00  0.00     0.271 C 
HETATM    8  N   UNL     1      -3.356   6.383 -29.372  1.00  0.00    -0.242 N 
HETATM    9  H   UNL     1      -4.125   5.844 -28.974  1.00  0.00     0.192 HD
HETATM   10  O   UNL     1      -2.032   6.834 -31.219  1.00  0.00    -0.266 OA
BRANCH   8  11
HETATM   11  N   UNL     1      -2.558   7.115 -28.536  1.00  0.00    -0.166 NA
HETATM   12  C   UNL     1      -3.012   7.377 -27.354  1.00  0.00     0.157 A 
HETATM   13  C   UNL     1      -4.348   6.974 -26.729  1.00  0.00     0.277 A 
HETATM   14  C   UNL     1      -2.306   8.140 -26.333  1.00  0.00     0.027 A 
HETATM   15  O   UNL     1      -5.209   6.329 -27.291  1.00  0.00    -0.266 OA
HETATM   16  N   UNL     1      -4.330   7.491 -25.451  1.00  0.00    -0.321 N 
HETATM   17  C   UNL     1      -3.138   8.175 -25.216  1.00  0.00     0.048 A 
HETATM   18  H   UNL     1      -5.088   7.381 -24.794  1.00  0.00     0.169 HD
HETATM   19  C   UNL     1      -2.756   8.827 -24.063  1.00  0.00     0.030 A 
HETATM   20  C   UNL     1      -1.502   9.451 -24.063  1.00  0.00     0.002 A 
HETATM   21  C   UNL     1      -0.664   9.411 -25.199  1.00  0.00     0.001 A 
HETATM   22  C   UNL     1      -1.067   8.745 -26.358  1.00  0.00     0.016 A 
ENDBRANCH   8  11
ENDBRANCH   4   7
BRANCH   1  23
HETATM   23  N   UNL     1      -6.531   2.953 -33.758  1.00  0.00    -0.335 N 
HETATM   24  C   UNL     1      -6.512   1.605 -33.870  1.00  0.00     0.171 A 
HETATM   25  N   UNL     1      -5.558   0.769 -33.528  1.00  0.00    -0.223 NA
HETATM   26  S   UNL     1      -7.911   0.840 -34.551  1.00  0.00    -0.061 SA
HETATM   27  C   UNL     1      -5.931  -0.545 -33.778  1.00  0.00     0.076 A 
HETATM   28  C   UNL     1      -7.182  -0.691 -34.339  1.00  0.00     0.085 A 
HETATM   29  H   UNL     1      -7.379   3.403 -34.077  1.00  0.00     0.168 HD
BRANCH  27  30
HETATM   30  C   UNL     1      -5.030  -1.658 -33.496  1.00  0.00    -0.007 A 
HETATM   31  C   UNL     1      -4.168  -1.650 -32.387  1.00  0.00     0.014 A 
HETATM   32  C   UNL     1      -3.329  -2.739 -32.130  1.00  0.00     0.001 A 
HETATM   33  C   UNL     1      -3.341  -3.844 -32.979  1.00  0.00     0.000 A 
HETATM   34  C   UNL     1      -4.184  -3.860 -34.088  1.00  0.00     0.001 A 
HETATM   35  C   UNL     1      -5.020  -2.770 -34.347  1.00  0.00     0.014 A 
ENDBRANCH  27  30
ENDBRANCH   1  23
TORSDOF 4
ENDMDL
MODEL 9
REMARK VINA RESULT:      -9.2      7.083     11.049
REMARK  4 active torsions:
REMARK  status: ('A' for Active; 'I' for Inactive)
REMARK    1  A    between atoms: C_4  and  C_5 
REMARK    2  A    between atoms: N_8  and  C_9 
REMARK    3  A    between atoms: C_12  and  C_13 
REMARK       I    between atoms: C_13  and  N_14 
REMARK    4  A    between atoms: N_14  and  N_15 
ROOT
HETATM    1  C   UNL     1      -7.893   1.856 -32.887  1.00  0.00     0.034 A 
HETATM    2  C   UNL     1      -8.504   2.946 -33.518  1.00  0.00     0.030 A 
HETATM    3  C   UNL     1      -9.889   2.973 -33.759  1.00  0.00     0.019 A 
HETATM    4  C   UNL     1     -10.690   1.892 -33.374  1.00  0.00     0.033 A 
HETATM    5  C   UNL     1     -10.089   0.790 -32.760  1.00  0.00     0.019 A 
HETATM    6  C   UNL     1      -8.711   0.772 -32.529  1.00  0.00     0.030 A 
ENDROOT
BRANCH   4   7
HETATM    7  C   UNL     1     -12.173   1.870 -33.530  1.00  0.00     0.271 C 
HETATM    8  N   UNL     1     -12.917   2.397 -32.486  1.00  0.00    -0.242 N 
HETATM    9  H   UNL     1     -12.480   2.862 -31.691  1.00  0.00     0.192 HD
HETATM   10  O   UNL     1     -12.650   1.413 -34.567  1.00  0.00    -0.266 OA
BRANCH   8  11
HETATM   11  N   UNL     1     -14.281   2.394 -32.584  1.00  0.00    -0.166 NA
HETATM   12  C   UNL     1     -14.915   3.420 -32.117  1.00  0.00     0.157 A 
HETATM   13  C   UNL     1     -14.350   4.677 -31.455  1.00  0.00     0.277 A 
HETATM   14  C   UNL     1     -16.362   3.592 -32.135  1.00  0.00     0.027 A 
HETATM   15  O   UNL     1     -13.171   4.887 -31.260  1.00  0.00    -0.266 OA
HETATM   16  N   UNL     1     -15.444   5.461 -31.154  1.00  0.00    -0.321 N 
HETATM   17  C   UNL     1     -16.623   4.829 -31.548  1.00  0.00     0.048 A 
HETATM   18  H   UNL     1     -15.378   6.362 -30.707  1.00  0.00     0.169 HD
HETATM   19  C   UNL     1     -17.913   5.296 -31.414  1.00  0.00     0.030 A 
HETATM   20  C   UNL     1     -18.946   4.476 -31.887  1.00  0.00     0.002 A 
HETATM   21  C   UNL     1     -18.674   3.223 -32.478  1.00  0.00     0.001 A 
HETATM   22  C   UNL     1     -17.361   2.766 -32.608  1.00  0.00     0.016 A 
ENDBRANCH   8  11
ENDBRANCH   4   7
BRANCH   1  23
HETATM   23  N   UNL     1      -6.523   1.771 -32.586  1.00  0.00    -0.335 N 
HETATM   24  C   UNL     1      -5.641   0.769 -32.809  1.00  0.00     0.171 A 
HETATM   25  N   UNL     1      -5.882  -0.459 -33.208  1.00  0.00    -0.223 NA
HETATM   26  S   UNL     1      -3.962   1.108 -32.541  1.00  0.00    -0.061 SA
HETATM   27  C   UNL     1      -4.704  -1.181 -33.345  1.00  0.00     0.076 A 
HETATM   28  C   UNL     1      -3.561  -0.483 -33.019  1.00  0.00     0.085 A 
HETATM   29  H   UNL     1      -6.116   2.648 -32.288  1.00  0.00     0.168 HD
BRANCH  27  30
HETATM   30  C   UNL     1      -4.714  -2.579 -33.763  1.00  0.00    -0.007 A 
HETATM   31  C   UNL     1      -3.710  -3.478 -33.369  1.00  0.00     0.014 A 
HETATM   32  C   UNL     1      -3.756  -4.816 -33.769  1.00  0.00     0.001 A 
HETATM   33  C   UNL     1      -4.803  -5.270 -34.569  1.00  0.00     0.000 A 
HETATM   34  C   UNL     1      -5.801  -4.387 -34.976  1.00  0.00     0.001 A 
HETATM   35  C   UNL     1      -5.754  -3.048 -34.579  1.00  0.00     0.014 A 
ENDBRANCH  27  30
ENDBRANCH   1  23
TORSDOF 4
ENDMDL
MODEL 10
REMARK VINA RESULT:      -9.2      3.203     10.640
REMARK  4 active torsions:
REMARK  status: ('A' for Active; 'I' for Inactive)
REMARK    1  A    between atoms: C_4  and  C_5 
REMARK    2  A    between atoms: N_8  and  C_9 
REMARK    3  A    between atoms: C_12  and  C_13 
REMARK       I    between atoms: C_13  and  N_14 
REMARK    4  A    between atoms: N_14  and  N_15 
ROOT
HETATM    1  C   UNL     1      -5.114   7.004 -31.671  1.00  0.00     0.034 A 
HETATM    2  C   UNL     1      -6.077   6.124 -31.164  1.00  0.00     0.030 A 
HETATM    3  C   UNL     1      -6.272   4.848 -31.724  1.00  0.00     0.019 A 
HETATM    4  C   UNL     1      -5.502   4.435 -32.816  1.00  0.00     0.033 A 
HETATM    5  C   UNL     1      -4.549   5.313 -33.342  1.00  0.00     0.019 A 
HETATM    6  C   UNL     1      -4.367   6.579 -32.781  1.00  0.00     0.030 A 
ENDROOT
BRANCH   4   7
HETATM    7  C   UNL     1      -5.596   3.077 -33.423  1.00  0.00     0.271 C 
HETATM    8  N   UNL     1      -5.053   2.030 -32.696  1.00  0.00    -0.242 N 
HETATM    9  H   UNL     1      -4.689   2.158 -31.752  1.00  0.00     0.192 HD
HETATM   10  O   UNL     1      -6.160   2.954 -34.509  1.00  0.00    -0.266 OA
BRANCH   8  11
HETATM   11  N   UNL     1      -5.114   0.766 -33.216  1.00  0.00    -0.166 NA
HETATM   12  C   UNL     1      -4.360  -0.136 -32.680  1.00  0.00     0.157 A 
HETATM   13  C   UNL     1      -3.382  -0.001 -31.513  1.00  0.00     0.277 A 
HETATM   14  C   UNL     1      -4.291  -1.531 -33.100  1.00  0.00     0.027 A 
HETATM   15  O   UNL     1      -3.165   1.029 -30.908  1.00  0.00    -0.266 OA
HETATM   16  N   UNL     1      -2.844  -1.258 -31.332  1.00  0.00    -0.321 N 
HETATM   17  C   UNL     1      -3.372  -2.155 -32.259  1.00  0.00     0.048 A 
HETATM   18  H   UNL     1      -2.161  -1.475 -30.622  1.00  0.00     0.169 HD
HETATM   19  C   UNL     1      -3.078  -3.495 -32.394  1.00  0.00     0.030 A 
HETATM   20  C   UNL     1      -3.739  -4.198 -33.409  1.00  0.00     0.002 A 
HETATM   21  C   UNL     1      -4.668  -3.559 -34.258  1.00  0.00     0.001 A 
HETATM   22  C   UNL     1      -4.955  -2.201 -34.106  1.00  0.00     0.016 A 
ENDBRANCH   8  11
ENDBRANCH   4   7
BRANCH   1  23
HETATM   23  N   UNL     1      -4.842   8.280 -31.147  1.00  0.00    -0.335 N 
HETATM   24  C   UNL     1      -3.784   8.720 -30.427  1.00  0.00     0.171 A 
HETATM   25  N   UNL     1      -2.819   8.018 -29.879  1.00  0.00    -0.223 NA
HETATM   26  S   UNL     1      -3.649  10.429 -30.168  1.00  0.00    -0.061 SA
HETATM   27  C   UNL     1      -1.901   8.841 -29.241  1.00  0.00     0.076 A 
HETATM   28  C   UNL     1      -2.199  10.186 -29.296  1.00  0.00     0.085 A 
HETATM   29  H   UNL     1      -5.465   9.001 -31.487  1.00  0.00     0.168 HD
BRANCH  27  30
HETATM   30  C   UNL     1      -0.744   8.291 -28.542  1.00  0.00    -0.007 A 
HETATM   31  C   UNL     1       0.156   9.110 -27.842  1.00  0.00     0.014 A 
HETATM   32  C   UNL     1       1.246   8.553 -27.165  1.00  0.00     0.001 A 
HETATM   33  C   UNL     1       1.448   7.175 -27.183  1.00  0.00     0.000 A 
HETATM   34  C   UNL     1       0.568   6.352 -27.883  1.00  0.00     0.001 A 
HETATM   35  C   UNL     1      -0.519   6.908 -28.563  1.00  0.00     0.014 A 
ENDBRANCH  27  30
ENDBRANCH   1  23
TORSDOF 4
ENDMDL
