MODEL 1
REMARK VINA RESULT:      -8.1      0.000      0.000
REMARK  6 active torsions:
REMARK  status: ('A' for Active; 'I' for Inactive)
REMARK    1  A    between atoms: C_5  and  N_6 
REMARK    2  A    between atoms: N_6  and  C_7 
REMARK    3  A    between atoms: C_7  and  C_8 
REMARK    4  A    between atoms: N_10  and  C_12 
REMARK    5  A    between atoms: C_12  and  C_13 
REMARK    6  A    between atoms: C_14  and  O_15 
ROOT
HETATM    1  C   UNL     1      -5.361   1.201 -30.942  1.00  0.00     0.031 C 
HETATM    2  C   UNL     1      -3.853   1.440 -31.049  1.00  0.00     0.241 C 
HETATM    3  N   UNL     1      -3.705   2.879 -31.472  1.00  0.00    -0.067 N 
HETATM    4  H   UNL     1      -3.048   3.341 -30.812  1.00  0.00     0.280 HD
HETATM    5  C   UNL     1      -5.037   3.566 -31.322  1.00  0.00     0.235 C 
HETATM    6  C   UNL     1      -5.869   2.580 -30.515  1.00  0.00     0.035 C 
ENDROOT
BRANCH   1   7
HETATM    7  C   UNL     1      -6.007   0.720 -32.253  1.00  0.00     0.127 C 
BRANCH   7   8
HETATM    8  N   UNL     1      -5.044  -0.022 -33.059  1.00  0.00    -0.376 N 
HETATM    9  H   UNL     1      -4.605   0.568 -33.775  1.00  0.00     0.161 HD
BRANCH   8  10
HETATM   10  C   UNL     1      -5.249  -1.292 -33.598  1.00  0.00     0.101 A 
HETATM   11  N   UNL     1      -4.347  -2.286 -33.527  1.00  0.00    -0.347 N 
HETATM   12  C   UNL     1      -4.541  -3.511 -34.059  1.00  0.00     0.007 A 
HETATM   13  H   UNL     1      -3.478  -2.122 -33.037  1.00  0.00     0.167 HD
HETATM   14  C   UNL     1      -3.487  -4.557 -33.878  1.00  0.00     0.068 C 
HETATM   15  C   UNL     1      -5.720  -3.778 -34.752  1.00  0.00     0.025 A 
HETATM   16  C   UNL     1      -6.670  -2.778 -34.887  1.00  0.00     0.006 A 
HETATM   17  C   UNL     1      -6.432  -1.533 -34.314  1.00  0.00     0.048 A 
ENDBRANCH   8  10
ENDBRANCH   7   8
ENDBRANCH   1   7
BRANCH   3  18
HETATM   18  C   UNL     1      -3.022   3.082 -32.802  1.00  0.00     0.276 C 
BRANCH  18  19
HETATM   19  C   UNL     1      -2.369   4.427 -32.946  1.00  0.00     0.002 A 
HETATM   20  C   UNL     1      -1.469   4.899 -31.981  1.00  0.00     0.091 A 
HETATM   21  C   UNL     1      -0.821   6.128 -32.140  1.00  0.00     0.044 A 
HETATM   22 BR   UNL     1       0.393   6.754 -30.831  1.00  0.00    -0.048 Br
HETATM   23  C   UNL     1      -1.072   6.903 -33.268  1.00  0.00     0.022 A 
HETATM   24  C   UNL     1      -1.965   6.448 -34.237  1.00  0.00     0.002 A 
HETATM   25  C   UNL     1      -2.607   5.215 -34.082  1.00  0.00     0.012 A 
BRANCH  20  26
HETATM   26  O   UNL     1      -1.262   4.116 -30.869  1.00  0.00    -0.359 OA
HETATM   27  H   UNL     1      -1.516   3.202 -31.129  1.00  0.00     0.218 HD
ENDBRANCH  20  26
ENDBRANCH  18  19
ENDBRANCH   3  18
TORSDOF 6
ENDMDL
MODEL 2
REMARK VINA RESULT:      -7.9      0.980      1.425
REMARK  6 active torsions:
REMARK  status: ('A' for Active; 'I' for Inactive)
REMARK    1  A    between atoms: C_5  and  N_6 
REMARK    2  A    between atoms: N_6  and  C_7 
REMARK    3  A    between atoms: C_7  and  C_8 
REMARK    4  A    between atoms: N_10  and  C_12 
REMARK    5  A    between atoms: C_12  and  C_13 
REMARK    6  A    between atoms: C_14  and  O_15 
ROOT
HETATM    1  C   UNL     1      -6.218   1.850 -31.524  1.00  0.00     0.031 C 
HETATM    2  C   UNL     1      -4.727   1.799 -31.184  1.00  0.00     0.241 C 
HETATM    3  N   UNL     1      -4.171   3.130 -31.620  1.00  0.00    -0.067 N 
HETATM    4  H   UNL     1      -3.649   3.537 -30.819  1.00  0.00     0.280 HD
HETATM    5  C   UNL     1      -5.319   4.058 -31.918  1.00  0.00     0.235 C 
HETATM    6  C   UNL     1      -6.531   3.336 -31.347  1.00  0.00     0.035 C 
ENDROOT
BRANCH   1   7
HETATM    7  C   UNL     1      -6.548   1.346 -32.941  1.00  0.00     0.127 C 
BRANCH   7   8
HETATM    8  N   UNL     1      -6.933  -0.060 -32.910  1.00  0.00    -0.376 N 
HETATM    9  H   UNL     1      -7.264  -0.349 -31.982  1.00  0.00     0.161 HD
BRANCH   8  10
HETATM   10  C   UNL     1      -6.203  -1.111 -33.465  1.00  0.00     0.101 A 
HETATM   11  N   UNL     1      -6.765  -2.165 -34.081  1.00  0.00    -0.347 N 
HETATM   12  C   UNL     1      -6.058  -3.187 -34.607  1.00  0.00     0.007 A 
HETATM   13  H   UNL     1      -7.771  -2.197 -34.172  1.00  0.00     0.167 HD
HETATM   14  C   UNL     1      -6.785  -4.287 -35.313  1.00  0.00     0.068 C 
HETATM   15  C   UNL     1      -4.668  -3.189 -34.495  1.00  0.00     0.025 A 
HETATM   16  C   UNL     1      -4.039  -2.143 -33.838  1.00  0.00     0.006 A 
HETATM   17  C   UNL     1      -4.806  -1.107 -33.319  1.00  0.00     0.048 A 
ENDBRANCH   8  10
ENDBRANCH   7   8
ENDBRANCH   1   7
BRANCH   3  18
HETATM   18  C   UNL     1      -3.110   3.054 -32.690  1.00  0.00     0.276 C 
BRANCH  18  19
HETATM   19  C   UNL     1      -2.397   4.354 -32.927  1.00  0.00     0.002 A 
HETATM   20  C   UNL     1      -1.520   4.881 -31.969  1.00  0.00     0.091 A 
HETATM   21  C   UNL     1      -0.817   6.064 -32.210  1.00  0.00     0.044 A 
HETATM   22 BR   UNL     1       0.366   6.765 -30.910  1.00  0.00    -0.048 Br
HETATM   23  C   UNL     1      -0.987   6.739 -33.415  1.00  0.00     0.022 A 
HETATM   24  C   UNL     1      -1.856   6.229 -34.378  1.00  0.00     0.002 A 
HETATM   25  C   UNL     1      -2.555   5.041 -34.140  1.00  0.00     0.012 A 
BRANCH  20  26
HETATM   26  O   UNL     1      -1.393   4.198 -30.781  1.00  0.00    -0.359 OA
HETATM   27  H   UNL     1      -2.049   4.599 -30.167  1.00  0.00     0.218 HD
ENDBRANCH  20  26
ENDBRANCH  18  19
ENDBRANCH   3  18
TORSDOF 6
ENDMDL
MODEL 3
REMARK VINA RESULT:      -7.8      5.744      7.976
REMARK  6 active torsions:
REMARK  status: ('A' for Active; 'I' for Inactive)
REMARK    1  A    between atoms: C_5  and  N_6 
REMARK    2  A    between atoms: N_6  and  C_7 
REMARK    3  A    between atoms: C_7  and  C_8 
REMARK    4  A    between atoms: N_10  and  C_12 
REMARK    5  A    between atoms: C_12  and  C_13 
REMARK    6  A    between atoms: C_14  and  O_15 
ROOT
HETATM    1  C   UNL     1      -7.137   1.230 -32.926  1.00  0.00     0.031 C 
HETATM    2  C   UNL     1      -8.220   2.277 -33.192  1.00  0.00     0.241 C 
HETATM    3  N   UNL     1      -9.527   1.584 -32.906  1.00  0.00    -0.067 N 
HETATM    4  H   UNL     1     -10.067   2.177 -32.245  1.00  0.00     0.280 HD
HETATM    5  C   UNL     1      -9.240   0.285 -32.200  1.00  0.00     0.235 C 
HETATM    6  C   UNL     1      -7.772   0.396 -31.812  1.00  0.00     0.035 C 
ENDROOT
BRANCH   1   7
HETATM    7  C   UNL     1      -6.778   0.382 -34.160  1.00  0.00     0.127 C 
BRANCH   7   8
HETATM    8  N   UNL     1      -5.671  -0.519 -33.860  1.00  0.00    -0.376 N 
HETATM    9  H   UNL     1      -4.766  -0.126 -34.142  1.00  0.00     0.161 HD
BRANCH   8  10
HETATM   10  C   UNL     1      -5.654  -1.891 -34.111  1.00  0.00     0.101 A 
HETATM   11  N   UNL     1      -4.577  -2.670 -33.916  1.00  0.00    -0.347 N 
HETATM   12  C   UNL     1      -4.558  -3.996 -34.172  1.00  0.00     0.007 A 
HETATM   13  H   UNL     1      -3.734  -2.254 -33.545  1.00  0.00     0.167 HD
HETATM   14  C   UNL     1      -3.317  -4.776 -33.872  1.00  0.00     0.068 C 
HETATM   15  C   UNL     1      -5.695  -4.610 -34.694  1.00  0.00     0.025 A 
HETATM   16  C   UNL     1      -6.823  -3.845 -34.948  1.00  0.00     0.006 A 
HETATM   17  C   UNL     1      -6.801  -2.485 -34.661  1.00  0.00     0.048 A 
ENDBRANCH   8  10
ENDBRANCH   7   8
ENDBRANCH   1   7
BRANCH   3  18
HETATM   18  C   UNL     1     -10.462   1.483 -34.085  1.00  0.00     0.276 C 
BRANCH  18  19
HETATM   19  C   UNL     1     -11.915   1.463 -33.703  1.00  0.00     0.002 A 
HETATM   20  C   UNL     1     -12.512   2.568 -33.081  1.00  0.00     0.091 A 
HETATM   21  C   UNL     1     -13.875   2.570 -32.772  1.00  0.00     0.044 A 
HETATM   22 BR   UNL     1     -14.671   4.067 -31.933  1.00  0.00    -0.048 Br
HETATM   23  C   UNL     1     -14.658   1.461 -33.080  1.00  0.00     0.022 A 
HETATM   24  C   UNL     1     -14.080   0.355 -33.700  1.00  0.00     0.002 A 
HETATM   25  C   UNL     1     -12.717   0.354 -34.015  1.00  0.00     0.012 A 
BRANCH  20  26
HETATM   26  O   UNL     1     -11.704   3.637 -32.773  1.00  0.00    -0.359 OA
HETATM   27  H   UNL     1     -11.261   3.407 -31.925  1.00  0.00     0.218 HD
ENDBRANCH  20  26
ENDBRANCH  18  19
ENDBRANCH   3  18
TORSDOF 6
ENDMDL
MODEL 4
REMARK VINA RESULT:      -7.8      3.200      7.926
REMARK  6 active torsions:
REMARK  status: ('A' for Active; 'I' for Inactive)
REMARK    1  A    between atoms: C_5  and  N_6 
REMARK    2  A    between atoms: N_6  and  C_7 
REMARK    3  A    between atoms: C_7  and  C_8 
REMARK    4  A    between atoms: N_10  and  C_12 
REMARK    5  A    between atoms: C_12  and  C_13 
REMARK    6  A    between atoms: C_14  and  O_15 
ROOT
HETATM    1  C   UNL     1      -5.646   1.844 -31.062  1.00  0.00     0.031 C 
HETATM    2  C   UNL     1      -6.347   1.813 -32.422  1.00  0.00     0.241 C 
HETATM    3  N   UNL     1      -6.493   0.353 -32.764  1.00  0.00    -0.067 N 
HETATM    4  H   UNL     1      -7.489   0.178 -33.004  1.00  0.00     0.280 HD
HETATM    5  C   UNL     1      -6.185  -0.463 -31.536  1.00  0.00     0.235 C 
HETATM    6  C   UNL     1      -6.165   0.561 -30.411  1.00  0.00     0.035 C 
ENDROOT
BRANCH   1   7
HETATM    7  C   UNL     1      -4.110   1.874 -31.157  1.00  0.00     0.127 C 
BRANCH   7   8
HETATM    8  N   UNL     1      -3.599   3.194 -30.809  1.00  0.00    -0.376 N 
HETATM    9  H   UNL     1      -4.337   3.814 -30.457  1.00  0.00     0.161 HD
BRANCH   8  10
HETATM   10  C   UNL     1      -2.721   3.952 -31.585  1.00  0.00     0.101 A 
HETATM   11  N   UNL     1      -1.740   4.713 -31.072  1.00  0.00    -0.347 N 
HETATM   12  C   UNL     1      -0.899   5.455 -31.823  1.00  0.00     0.007 A 
HETATM   13  H   UNL     1      -1.607   4.727 -30.070  1.00  0.00     0.167 HD
HETATM   14  C   UNL     1       0.189   6.229 -31.148  1.00  0.00     0.068 C 
HETATM   15  C   UNL     1      -1.052   5.473 -33.208  1.00  0.00     0.025 A 
HETATM   16  C   UNL     1      -2.070   4.733 -33.788  1.00  0.00     0.006 A 
HETATM   17  C   UNL     1      -2.908   3.976 -32.977  1.00  0.00     0.048 A 
ENDBRANCH   8  10
ENDBRANCH   7   8
ENDBRANCH   1   7
BRANCH   3  18
HETATM   18  C   UNL     1      -5.778  -0.079 -34.020  1.00  0.00     0.276 C 
BRANCH  18  19
HETATM   19  C   UNL     1      -5.807  -1.563 -34.251  1.00  0.00     0.002 A 
HETATM   20  C   UNL     1      -4.710  -2.367 -33.913  1.00  0.00     0.091 A 
HETATM   21  C   UNL     1      -4.756  -3.754 -34.080  1.00  0.00     0.044 A 
HETATM   22 BR   UNL     1      -3.270  -4.831 -33.619  1.00  0.00    -0.048 Br
HETATM   23  C   UNL     1      -5.903  -4.354 -34.592  1.00  0.00     0.022 A 
HETATM   24  C   UNL     1      -7.003  -3.568 -34.933  1.00  0.00     0.002 A 
HETATM   25  C   UNL     1      -6.960  -2.181 -34.761  1.00  0.00     0.012 A 
BRANCH  20  26
HETATM   26  O   UNL     1      -3.587  -1.738 -33.429  1.00  0.00    -0.359 OA
HETATM   27  H   UNL     1      -2.820  -2.243 -33.783  1.00  0.00     0.218 HD
ENDBRANCH  20  26
ENDBRANCH  18  19
ENDBRANCH   3  18
TORSDOF 6
ENDMDL
MODEL 5
REMARK VINA RESULT:      -7.5      4.902      7.478
REMARK  6 active torsions:
REMARK  status: ('A' for Active; 'I' for Inactive)
REMARK    1  A    between atoms: C_5  and  N_6 
REMARK    2  A    between atoms: N_6  and  C_7 
REMARK    3  A    between atoms: C_7  and  C_8 
REMARK    4  A    between atoms: N_10  and  C_12 
REMARK    5  A    between atoms: C_12  and  C_13 
REMARK    6  A    between atoms: C_14  and  O_15 
ROOT
HETATM    1  C   UNL     1      -6.989   0.882 -30.938  1.00  0.00     0.031 C 
HETATM    2  C   UNL     1      -6.083  -0.333 -31.143  1.00  0.00     0.241 C 
HETATM    3  N   UNL     1      -4.748   0.228 -31.559  1.00  0.00    -0.067 N 
HETATM    4  H   UNL     1      -4.021  -0.181 -30.940  1.00  0.00     0.280 HD
HETATM    5  C   UNL     1      -4.752   1.714 -31.314  1.00  0.00     0.235 C 
HETATM    6  C   UNL     1      -5.993   1.942 -30.464  1.00  0.00     0.035 C 
ENDROOT
BRANCH   1   7
HETATM    7  C   UNL     1      -7.744   1.315 -32.208  1.00  0.00     0.127 C 
BRANCH   7   8
HETATM    8  N   UNL     1      -8.950   0.515 -32.387  1.00  0.00    -0.376 N 
HETATM    9  H   UNL     1      -8.736  -0.456 -32.640  1.00  0.00     0.161 HD
BRANCH   8  10
HETATM   10  C   UNL     1     -10.088   0.914 -33.089  1.00  0.00     0.101 A 
HETATM   11  N   UNL     1     -11.246   0.232 -33.080  1.00  0.00    -0.347 N 
HETATM   12  C   UNL     1     -12.342   0.612 -33.769  1.00  0.00     0.007 A 
HETATM   13  H   UNL     1     -11.315  -0.606 -32.517  1.00  0.00     0.167 HD
HETATM   14  C   UNL     1     -13.594  -0.198 -33.648  1.00  0.00     0.068 C 
HETATM   15  C   UNL     1     -12.289   1.754 -34.566  1.00  0.00     0.025 A 
HETATM   16  C   UNL     1     -11.108   2.476 -34.640  1.00  0.00     0.006 A 
HETATM   17  C   UNL     1     -10.006   2.053 -33.905  1.00  0.00     0.048 A 
ENDBRANCH   8  10
ENDBRANCH   7   8
ENDBRANCH   1   7
BRANCH   3  18
HETATM   18  C   UNL     1      -4.281  -0.197 -32.929  1.00  0.00     0.276 C 
BRANCH  18  19
HETATM   19  C   UNL     1      -4.259  -1.686 -33.125  1.00  0.00     0.002 A 
HETATM   20  C   UNL     1      -5.120  -2.306 -34.041  1.00  0.00     0.091 A 
HETATM   21  C   UNL     1      -5.064  -3.685 -34.260  1.00  0.00     0.044 A 
HETATM   22 BR   UNL     1      -6.230  -4.511 -35.500  1.00  0.00    -0.048 Br
HETATM   23  C   UNL     1      -4.146  -4.463 -33.560  1.00  0.00     0.022 A 
HETATM   24  C   UNL     1      -3.283  -3.861 -32.646  1.00  0.00     0.002 A 
HETATM   25  C   UNL     1      -3.334  -2.480 -32.431  1.00  0.00     0.012 A 
BRANCH  20  26
HETATM   26  O   UNL     1      -6.028  -1.509 -34.698  1.00  0.00    -0.359 OA
HETATM   27  H   UNL     1      -5.977  -0.626 -34.267  1.00  0.00     0.218 HD
ENDBRANCH  20  26
ENDBRANCH  18  19
ENDBRANCH   3  18
TORSDOF 6
ENDMDL
MODEL 6
REMARK VINA RESULT:      -7.3      3.659      8.219
REMARK  6 active torsions:
REMARK  status: ('A' for Active; 'I' for Inactive)
REMARK    1  A    between atoms: C_5  and  N_6 
REMARK    2  A    between atoms: N_6  and  C_7 
REMARK    3  A    between atoms: C_7  and  C_8 
REMARK    4  A    between atoms: N_10  and  C_12 
REMARK    5  A    between atoms: C_12  and  C_13 
REMARK    6  A    between atoms: C_14  and  O_15 
ROOT
HETATM    1  C   UNL     1      -5.855   2.167 -31.585  1.00  0.00     0.031 C 
HETATM    2  C   UNL     1      -6.109   0.898 -32.400  1.00  0.00     0.241 C 
HETATM    3  N   UNL     1      -5.088  -0.100 -31.919  1.00  0.00    -0.067 N 
HETATM    4  H   UNL     1      -5.588  -0.974 -31.664  1.00  0.00     0.280 HD
HETATM    5  C   UNL     1      -4.453   0.429 -30.659  1.00  0.00     0.235 C 
HETATM    6  C   UNL     1      -5.348   1.594 -30.260  1.00  0.00     0.035 C 
ENDROOT
BRANCH   1   7
HETATM    7  C   UNL     1      -4.842   3.128 -32.233  1.00  0.00     0.127 C 
BRANCH   7   8
HETATM    8  N   UNL     1      -3.826   3.532 -31.268  1.00  0.00    -0.376 N 
HETATM    9  H   UNL     1      -4.239   3.903 -30.405  1.00  0.00     0.161 HD
BRANCH   8  10
HETATM   10  C   UNL     1      -2.680   4.271 -31.561  1.00  0.00     0.101 A 
HETATM   11  N   UNL     1      -1.875   4.800 -30.625  1.00  0.00    -0.347 N 
HETATM   12  C   UNL     1      -0.772   5.525 -30.910  1.00  0.00     0.007 A 
HETATM   13  H   UNL     1      -2.089   4.640 -29.649  1.00  0.00     0.167 HD
HETATM   14  C   UNL     1       0.079   6.027 -29.786  1.00  0.00     0.068 C 
HETATM   15  C   UNL     1      -0.444   5.778 -32.240  1.00  0.00     0.025 A 
HETATM   16  C   UNL     1      -1.260   5.286 -33.247  1.00  0.00     0.006 A 
HETATM   17  C   UNL     1      -2.380   4.536 -32.907  1.00  0.00     0.048 A 
ENDBRANCH   8  10
ENDBRANCH   7   8
ENDBRANCH   1   7
BRANCH   3  18
HETATM   18  C   UNL     1      -4.121  -0.577 -32.974  1.00  0.00     0.276 C 
BRANCH  18  19
HETATM   19  C   UNL     1      -4.219  -2.048 -33.261  1.00  0.00     0.002 A 
HETATM   20  C   UNL     1      -5.168  -2.545 -34.165  1.00  0.00     0.091 A 
HETATM   21  C   UNL     1      -5.225  -3.908 -34.471  1.00  0.00     0.044 A 
HETATM   22 BR   UNL     1      -6.509  -4.568 -35.693  1.00  0.00    -0.048 Br
HETATM   23  C   UNL     1      -4.333  -4.792 -33.871  1.00  0.00     0.022 A 
HETATM   24  C   UNL     1      -3.383  -4.313 -32.970  1.00  0.00     0.002 A 
HETATM   25  C   UNL     1      -3.321  -2.949 -32.668  1.00  0.00     0.012 A 
BRANCH  20  26
HETATM   26  O   UNL     1      -6.046  -1.646 -34.722  1.00  0.00    -0.359 OA
HETATM   27  H   UNL     1      -6.703  -1.438 -34.020  1.00  0.00     0.218 HD
ENDBRANCH  20  26
ENDBRANCH  18  19
ENDBRANCH   3  18
TORSDOF 6
ENDMDL
MODEL 7
REMARK VINA RESULT:      -7.2      3.639      7.342
REMARK  6 active torsions:
REMARK  status: ('A' for Active; 'I' for Inactive)
REMARK    1  A    between atoms: C_5  and  N_6 
REMARK    2  A    between atoms: N_6  and  C_7 
REMARK    3  A    between atoms: C_7  and  C_8 
REMARK    4  A    between atoms: N_10  and  C_12 
REMARK    5  A    between atoms: C_12  and  C_13 
REMARK    6  A    between atoms: C_14  and  O_15 
ROOT
HETATM    1  C   UNL     1      -6.382   4.471 -31.287  1.00  0.00     0.031 C 
HETATM    2  C   UNL     1      -6.326   3.050 -31.852  1.00  0.00     0.241 C 
HETATM    3  N   UNL     1      -7.086   2.197 -30.870  1.00  0.00    -0.067 N 
HETATM    4  H   UNL     1      -7.796   1.655 -31.399  1.00  0.00     0.280 HD
HETATM    5  C   UNL     1      -7.834   3.101 -29.924  1.00  0.00     0.235 C 
HETATM    6  C   UNL     1      -7.736   4.473 -30.575  1.00  0.00     0.035 C 
ENDROOT
BRANCH   1   7
HETATM    7  C   UNL     1      -5.220   4.807 -30.336  1.00  0.00     0.127 C 
BRANCH   7   8
HETATM    8  N   UNL     1      -4.036   4.026 -30.675  1.00  0.00    -0.376 N 
HETATM    9  H   UNL     1      -3.667   3.514 -29.865  1.00  0.00     0.161 HD
BRANCH   8  10
HETATM   10  C   UNL     1      -2.960   4.478 -31.439  1.00  0.00     0.101 A 
HETATM   11  N   UNL     1      -1.888   5.100 -30.922  1.00  0.00    -0.347 N 
HETATM   12  C   UNL     1      -0.853   5.548 -31.664  1.00  0.00     0.007 A 
HETATM   13  H   UNL     1      -1.836   5.233 -29.921  1.00  0.00     0.167 HD
HETATM   14  C   UNL     1       0.313   6.185 -30.977  1.00  0.00     0.068 C 
HETATM   15  C   UNL     1      -0.886   5.395 -33.049  1.00  0.00     0.025 A 
HETATM   16  C   UNL     1      -1.985   4.791 -33.639  1.00  0.00     0.006 A 
HETATM   17  C   UNL     1      -3.024   4.337 -32.835  1.00  0.00     0.048 A 
ENDBRANCH   8  10
ENDBRANCH   7   8
ENDBRANCH   1   7
BRANCH   3  18
HETATM   18  C   UNL     1      -6.273   1.109 -30.213  1.00  0.00     0.276 C 
BRANCH  18  19
HETATM   19  C   UNL     1      -5.556   0.220 -31.188  1.00  0.00     0.002 A 
HETATM   20  C   UNL     1      -6.246  -0.405 -32.236  1.00  0.00     0.091 A 
HETATM   21  C   UNL     1      -5.570  -1.191 -33.174  1.00  0.00     0.044 A 
HETATM   22 BR   UNL     1      -6.511  -2.030 -34.585  1.00  0.00    -0.048 Br
HETATM   23  C   UNL     1      -4.193  -1.365 -33.071  1.00  0.00     0.022 A 
HETATM   24  C   UNL     1      -3.493  -0.749 -32.034  1.00  0.00     0.002 A 
HETATM   25  C   UNL     1      -4.167   0.043 -31.099  1.00  0.00     0.012 A 
BRANCH  20  26
HETATM   26  O   UNL     1      -7.608  -0.229 -32.294  1.00  0.00    -0.359 OA
HETATM   27  H   UNL     1      -7.767   0.724 -32.107  1.00  0.00     0.218 HD
ENDBRANCH  20  26
ENDBRANCH  18  19
ENDBRANCH   3  18
TORSDOF 6
ENDMDL
MODEL 8
REMARK VINA RESULT:      -7.2      3.874      8.760
REMARK  6 active torsions:
REMARK  status: ('A' for Active; 'I' for Inactive)
REMARK    1  A    between atoms: C_5  and  N_6 
REMARK    2  A    between atoms: N_6  and  C_7 
REMARK    3  A    between atoms: C_7  and  C_8 
REMARK    4  A    between atoms: N_10  and  C_12 
REMARK    5  A    between atoms: C_12  and  C_13 
REMARK    6  A    between atoms: C_14  and  O_15 
ROOT
HETATM    1  C   UNL     1      -1.925   5.284 -32.419  1.00  0.00     0.031 C 
HETATM    2  C   UNL     1      -2.399   3.921 -32.929  1.00  0.00     0.241 C 
HETATM    3  N   UNL     1      -3.575   3.555 -32.062  1.00  0.00    -0.067 N 
HETATM    4  H   UNL     1      -4.369   3.309 -32.685  1.00  0.00     0.280 HD
HETATM    5  C   UNL     1      -3.991   4.770 -31.275  1.00  0.00     0.235 C 
HETATM    6  C   UNL     1      -3.234   5.912 -31.937  1.00  0.00     0.035 C 
ENDROOT
BRANCH   1   7
HETATM    7  C   UNL     1      -0.872   5.195 -31.300  1.00  0.00     0.127 C 
BRANCH   7   8
HETATM    8  N   UNL     1      -0.590   6.517 -30.753  1.00  0.00    -0.376 N 
HETATM    9  H   UNL     1      -0.019   7.084 -31.390  1.00  0.00     0.161 HD
BRANCH   8  10
HETATM   10  C   UNL     1      -0.185   6.781 -29.444  1.00  0.00     0.101 A 
HETATM   11  N   UNL     1      -0.739   6.208 -28.363  1.00  0.00    -0.347 N 
HETATM   12  C   UNL     1      -0.355   6.474 -27.096  1.00  0.00     0.007 A 
HETATM   13  H   UNL     1      -1.476   5.527 -28.495  1.00  0.00     0.167 HD
HETATM   14  C   UNL     1      -1.010   5.740 -25.969  1.00  0.00     0.068 C 
HETATM   15  C   UNL     1       0.649   7.412 -26.867  1.00  0.00     0.025 A 
HETATM   16  C   UNL     1       1.231   8.060 -27.945  1.00  0.00     0.006 A 
HETATM   17  C   UNL     1       0.810   7.748 -29.233  1.00  0.00     0.048 A 
ENDBRANCH   8  10
ENDBRANCH   7   8
ENDBRANCH   1   7
BRANCH   3  18
HETATM   18  C   UNL     1      -3.398   2.294 -31.252  1.00  0.00     0.276 C 
BRANCH  18  19
HETATM   19  C   UNL     1      -3.922   1.062 -31.933  1.00  0.00     0.002 A 
HETATM   20  C   UNL     1      -3.340  -0.192 -31.702  1.00  0.00     0.091 A 
HETATM   21  C   UNL     1      -3.859  -1.347 -32.294  1.00  0.00     0.044 A 
HETATM   22 BR   UNL     1      -3.066  -3.034 -31.975  1.00  0.00    -0.048 Br
HETATM   23  C   UNL     1      -4.969  -1.259 -33.130  1.00  0.00     0.022 A 
HETATM   24  C   UNL     1      -5.559  -0.019 -33.370  1.00  0.00     0.002 A 
HETATM   25  C   UNL     1      -5.044   1.136 -32.772  1.00  0.00     0.012 A 
BRANCH  20  26
HETATM   26  O   UNL     1      -2.232  -0.238 -30.888  1.00  0.00    -0.359 OA
HETATM   27  H   UNL     1      -2.231  -1.134 -30.481  1.00  0.00     0.218 HD
ENDBRANCH  20  26
ENDBRANCH  18  19
ENDBRANCH   3  18
TORSDOF 6
ENDMDL
MODEL 9
REMARK VINA RESULT:      -7.0      3.967      8.798
REMARK  6 active torsions:
REMARK  status: ('A' for Active; 'I' for Inactive)
REMARK    1  A    between atoms: C_5  and  N_6 
REMARK    2  A    between atoms: N_6  and  C_7 
REMARK    3  A    between atoms: C_7  and  C_8 
REMARK    4  A    between atoms: N_10  and  C_12 
REMARK    5  A    between atoms: C_12  and  C_13 
REMARK    6  A    between atoms: C_14  and  O_15 
ROOT
HETATM    1  C   UNL     1      -2.183   5.038 -32.351  1.00  0.00     0.031 C 
HETATM    2  C   UNL     1      -2.779   3.697 -32.781  1.00  0.00     0.241 C 
HETATM    3  N   UNL     1      -4.063   3.562 -32.004  1.00  0.00    -0.067 N 
HETATM    4  H   UNL     1      -4.825   3.349 -32.678  1.00  0.00     0.280 HD
HETATM    5  C   UNL     1      -4.389   4.891 -31.375  1.00  0.00     0.235 C 
HETATM    6  C   UNL     1      -3.438   5.862 -32.059  1.00  0.00     0.035 C 
ENDROOT
BRANCH   1   7
HETATM    7  C   UNL     1      -1.250   4.939 -31.129  1.00  0.00     0.127 C 
BRANCH   7   8
HETATM    8  N   UNL     1      -0.739   6.256 -30.766  1.00  0.00    -0.376 N 
HETATM    9  H   UNL     1       0.011   6.565 -31.394  1.00  0.00     0.161 HD
BRANCH   8  10
HETATM   10  C   UNL     1      -0.430   6.674 -29.471  1.00  0.00     0.101 A 
HETATM   11  N   UNL     1      -1.189   6.397 -28.398  1.00  0.00    -0.347 N 
HETATM   12  C   UNL     1      -0.895   6.812 -27.147  1.00  0.00     0.007 A 
HETATM   13  H   UNL     1      -2.020   5.834 -28.520  1.00  0.00     0.167 HD
HETATM   14  C   UNL     1      -1.787   6.404 -26.017  1.00  0.00     0.068 C 
HETATM   15  C   UNL     1       0.236   7.598 -26.934  1.00  0.00     0.025 A 
HETATM   16  C   UNL     1       1.035   7.943 -28.012  1.00  0.00     0.006 A 
HETATM   17  C   UNL     1       0.700   7.486 -29.281  1.00  0.00     0.048 A 
ENDBRANCH   8  10
ENDBRANCH   7   8
ENDBRANCH   1   7
BRANCH   3  18
HETATM   18  C   UNL     1      -4.119   2.377 -31.071  1.00  0.00     0.276 C 
BRANCH  18  19
HETATM   19  C   UNL     1      -4.179   1.054 -31.779  1.00  0.00     0.002 A 
HETATM   20  C   UNL     1      -5.181   0.785 -32.722  1.00  0.00     0.091 A 
HETATM   21  C   UNL     1      -5.208  -0.426 -33.419  1.00  0.00     0.044 A 
HETATM   22 BR   UNL     1      -6.565  -0.778 -34.690  1.00  0.00    -0.048 Br
HETATM   23  C   UNL     1      -4.231  -1.388 -33.177  1.00  0.00     0.022 A 
HETATM   24  C   UNL     1      -3.227  -1.136 -32.242  1.00  0.00     0.002 A 
HETATM   25  C   UNL     1      -3.196   0.079 -31.550  1.00  0.00     0.012 A 
BRANCH  20  26
HETATM   26  O   UNL     1      -6.142   1.750 -32.919  1.00  0.00    -0.359 OA
HETATM   27  H   UNL     1      -6.456   1.634 -33.844  1.00  0.00     0.218 HD
ENDBRANCH  20  26
ENDBRANCH  18  19
ENDBRANCH   3  18
TORSDOF 6
ENDMDL
MODEL 10
REMARK VINA RESULT:      -7.0      3.098      4.234
REMARK  6 active torsions:
REMARK  status: ('A' for Active; 'I' for Inactive)
REMARK    1  A    between atoms: C_5  and  N_6 
REMARK    2  A    between atoms: N_6  and  C_7 
REMARK    3  A    between atoms: C_7  and  C_8 
REMARK    4  A    between atoms: N_10  and  C_12 
REMARK    5  A    between atoms: C_12  and  C_13 
REMARK    6  A    between atoms: C_14  and  O_15 
ROOT
HETATM    1  C   UNL     1      -6.431   2.637 -31.959  1.00  0.00     0.031 C 
HETATM    2  C   UNL     1      -5.048   2.024 -31.735  1.00  0.00     0.241 C 
HETATM    3  N   UNL     1      -4.094   3.190 -31.692  1.00  0.00    -0.067 N 
HETATM    4  H   UNL     1      -3.527   3.109 -30.826  1.00  0.00     0.280 HD
HETATM    5  C   UNL     1      -4.893   4.463 -31.580  1.00  0.00     0.235 C 
HETATM    6  C   UNL     1      -6.299   3.984 -31.246  1.00  0.00     0.035 C 
ENDROOT
BRANCH   1   7
HETATM    7  C   UNL     1      -6.806   2.796 -33.444  1.00  0.00     0.127 C 
BRANCH   7   8
HETATM    8  N   UNL     1      -7.528   1.622 -33.920  1.00  0.00    -0.376 N 
HETATM    9  H   UNL     1      -7.153   1.272 -34.808  1.00  0.00     0.161 HD
BRANCH   8  10
HETATM   10  C   UNL     1      -8.916   1.479 -33.940  1.00  0.00     0.101 A 
HETATM   11  N   UNL     1      -9.742   2.323 -34.580  1.00  0.00    -0.347 N 
HETATM   12  C   UNL     1     -11.085   2.190 -34.589  1.00  0.00     0.007 A 
HETATM   13  H   UNL     1      -9.345   3.095 -35.099  1.00  0.00     0.167 HD
HETATM   14  C   UNL     1     -11.907   3.162 -35.376  1.00  0.00     0.068 C 
HETATM   15  C   UNL     1     -11.676   1.146 -33.880  1.00  0.00     0.025 A 
HETATM   16  C   UNL     1     -10.872   0.267 -33.172  1.00  0.00     0.006 A 
HETATM   17  C   UNL     1      -9.493   0.436 -33.198  1.00  0.00     0.048 A 
ENDBRANCH   8  10
ENDBRANCH   7   8
ENDBRANCH   1   7
BRANCH   3  18
HETATM   18  C   UNL     1      -3.039   3.186 -32.770  1.00  0.00     0.276 C 
BRANCH  18  19
HETATM   19  C   UNL     1      -2.335   4.503 -32.931  1.00  0.00     0.002 A 
HETATM   20  C   UNL     1      -1.459   4.978 -31.944  1.00  0.00     0.091 A 
HETATM   21  C   UNL     1      -0.765   6.178 -32.116  1.00  0.00     0.044 A 
HETATM   22 BR   UNL     1       0.416   6.809 -30.779  1.00  0.00    -0.048 Br
HETATM   23  C   UNL     1      -0.942   6.922 -33.279  1.00  0.00     0.022 A 
HETATM   24  C   UNL     1      -1.809   6.464 -34.270  1.00  0.00     0.002 A 
HETATM   25  C   UNL     1      -2.500   5.260 -34.101  1.00  0.00     0.012 A 
BRANCH  20  26
HETATM   26  O   UNL     1      -1.325   4.227 -30.800  1.00  0.00    -0.359 OA
HETATM   27  H   UNL     1      -0.403   4.369 -30.488  1.00  0.00     0.218 HD
ENDBRANCH  20  26
ENDBRANCH  18  19
ENDBRANCH   3  18
TORSDOF 6
ENDMDL
