MODEL 1
REMARK VINA RESULT:      -9.8      0.000      0.000
REMARK  6 active torsions:
REMARK  status: ('A' for Active; 'I' for Inactive)
REMARK    1  A    between atoms: C_4  and  C_5 
REMARK    2  A    between atoms: C_8  and  C_9 
REMARK    3  A    between atoms: C_9  and  N_10 
REMARK       I    between atoms: N_10  and  C_11 
REMARK       I    between atoms: C_11  and  N_12 
REMARK    4  A    between atoms: N_12  and  C_13 
REMARK    5  A    between atoms: C_16  and  C_17 
REMARK    6  A    between atoms: C_29  and  C_30 
ROOT
HETATM    1  C   UNL     1      -2.874   3.743 -31.635  1.00  0.00     0.068 C 
HETATM    2  C   UNL     1      -3.129   5.175 -31.073  1.00  0.00     0.001 C 
HETATM    3  C   UNL     1      -4.206   5.938 -31.879  1.00  0.00     0.040 C 
HETATM    4  C   UNL     1      -3.867   5.946 -33.379  1.00  0.00     0.206 C 
HETATM    5  N   UNL     1      -2.481   5.314 -33.519  1.00  0.00    -0.065 N 
HETATM    6  H   UNL     1      -2.249   5.337 -34.536  1.00  0.00     0.280 HD
HETATM    7  C   UNL     1      -2.441   3.856 -33.107  1.00  0.00     0.246 C 
HETATM    8  C   UNL     1      -1.812   5.974 -31.249  1.00  0.00     0.033 C 
HETATM    9  C   UNL     1      -1.459   6.104 -32.738  1.00  0.00     0.236 C 
ENDROOT
BRANCH   4  10
HETATM   10  C   UNL     1      -4.949   5.269 -34.264  1.00  0.00     0.157 C 
BRANCH  10  11
HETATM   11  N   UNL     1      -5.863   4.360 -33.572  1.00  0.00    -0.341 N 
HETATM   12  C   UNL     1      -7.222   4.319 -33.796  1.00  0.00     0.320 C 
HETATM   13  N   UNL     1      -7.812   3.287 -33.115  1.00  0.00    -0.309 N 
HETATM   14  O   UNL     1      -7.781   5.162 -34.488  1.00  0.00    -0.247 OA
HETATM   15  H   UNL     1      -7.241   2.816 -32.426  1.00  0.00     0.170 HD
HETATM   16  H   UNL     1      -5.461   3.463 -33.328  1.00  0.00     0.164 HD
BRANCH  13  17
HETATM   17  C   UNL     1      -9.167   2.894 -33.151  1.00  0.00     0.036 A 
HETATM   18  C   UNL     1     -10.224   3.689 -32.700  1.00  0.00     0.030 A 
HETATM   19  C   UNL     1     -11.546   3.227 -32.770  1.00  0.00     0.017 A 
HETATM   20  C   UNL     1     -11.827   1.963 -33.296  1.00  0.00     0.009 A 
HETATM   21  C   UNL     1     -10.769   1.170 -33.755  1.00  0.00     0.017 A 
HETATM   22  C   UNL     1      -9.451   1.634 -33.687  1.00  0.00     0.030 A 
BRANCH  20  23
HETATM   23  C   UNL     1     -13.214   1.420 -33.385  1.00  0.00     0.155 C 
HETATM   24  C   UNL     1     -13.416  -0.004 -33.831  1.00  0.00     0.096 C 
HETATM   25  O   UNL     1     -14.168   2.141 -33.099  1.00  0.00    -0.293 OA
ENDBRANCH  20  23
ENDBRANCH  13  17
ENDBRANCH  10  11
ENDBRANCH   4  10
BRANCH   1  26
HETATM   26  C   UNL     1      -4.006   2.741 -31.509  1.00  0.00     0.045 A 
HETATM   27  N   UNL     1      -5.040   3.048 -30.707  1.00  0.00    -0.238 NA
HETATM   28  C   UNL     1      -6.077   2.189 -30.672  1.00  0.00     0.123 A 
HETATM   29  C   UNL     1      -7.200   2.476 -29.725  1.00  0.00     0.093 C 
HETATM   30  N   UNL     1      -6.185   1.104 -31.448  1.00  0.00    -0.233 NA
HETATM   31  C   UNL     1      -5.161   0.833 -32.283  1.00  0.00     0.072 A 
HETATM   32  C   UNL     1      -4.017   1.610 -32.305  1.00  0.00     0.060 A 
BRANCH  31  33
HETATM   33  C   UNL     1      -5.354  -0.329 -33.164  1.00  0.00     0.010 A 
HETATM   34  C   UNL     1      -4.554  -1.489 -33.120  1.00  0.00     0.023 A 
HETATM   35 BR   UNL     1      -3.063  -1.671 -31.943  1.00  0.00    -0.050 Br
HETATM   36  C   UNL     1      -4.791  -2.563 -33.989  1.00  0.00     0.020 A 
HETATM   37  C   UNL     1      -5.820  -2.492 -34.927  1.00  0.00     0.001 A 
HETATM   38  C   UNL     1      -6.608  -1.349 -35.004  1.00  0.00     0.001 A 
HETATM   39  C   UNL     1      -6.375  -0.281 -34.134  1.00  0.00     0.015 A 
ENDBRANCH  31  33
ENDBRANCH   1  26
TORSDOF 6
ENDMDL
MODEL 2
REMARK VINA RESULT:      -9.4      2.053      7.142
REMARK  6 active torsions:
REMARK  status: ('A' for Active; 'I' for Inactive)
REMARK    1  A    between atoms: C_4  and  C_5 
REMARK    2  A    between atoms: C_8  and  C_9 
REMARK    3  A    between atoms: C_9  and  N_10 
REMARK       I    between atoms: N_10  and  C_11 
REMARK       I    between atoms: C_11  and  N_12 
REMARK    4  A    between atoms: N_12  and  C_13 
REMARK    5  A    between atoms: C_16  and  C_17 
REMARK    6  A    between atoms: C_29  and  C_30 
ROOT
HETATM    1  C   UNL     1     -10.855   1.546 -33.294  1.00  0.00     0.068 C 
HETATM    2  C   UNL     1     -11.127   1.832 -34.803  1.00  0.00     0.001 C 
HETATM    3  C   UNL     1     -10.560   3.199 -35.253  1.00  0.00     0.040 C 
HETATM    4  C   UNL     1     -11.063   4.329 -34.339  1.00  0.00     0.206 C 
HETATM    5  N   UNL     1     -12.084   3.704 -33.387  1.00  0.00    -0.065 N 
HETATM    6  H   UNL     1     -12.434   4.478 -32.781  1.00  0.00     0.280 HD
HETATM    7  C   UNL     1     -11.482   2.673 -32.454  1.00  0.00     0.246 C 
HETATM    8  C   UNL     1     -12.665   1.924 -34.978  1.00  0.00     0.033 C 
HETATM    9  C   UNL     1     -13.227   3.099 -34.163  1.00  0.00     0.236 C 
ENDROOT
BRANCH   4  10
HETATM   10  C   UNL     1      -9.923   5.093 -33.611  1.00  0.00     0.157 C 
BRANCH  10  11
HETATM   11  N   UNL     1      -8.566   4.606 -33.863  1.00  0.00    -0.341 N 
HETATM   12  C   UNL     1      -7.430   5.214 -33.376  1.00  0.00     0.320 C 
HETATM   13  N   UNL     1      -6.308   4.475 -33.649  1.00  0.00    -0.309 N 
HETATM   14  O   UNL     1      -7.476   6.306 -32.821  1.00  0.00    -0.247 OA
HETATM   15  H   UNL     1      -6.422   3.706 -34.296  1.00  0.00     0.170 HD
HETATM   16  H   UNL     1      -8.488   3.600 -33.948  1.00  0.00     0.164 HD
BRANCH  13  17
HETATM   17  C   UNL     1      -4.981   4.744 -33.254  1.00  0.00     0.036 A 
HETATM   18  C   UNL     1      -4.072   5.480 -34.017  1.00  0.00     0.030 A 
HETATM   19  C   UNL     1      -2.767   5.705 -33.554  1.00  0.00     0.017 A 
HETATM   20  C   UNL     1      -2.359   5.198 -32.317  1.00  0.00     0.009 A 
HETATM   21  C   UNL     1      -3.272   4.467 -31.549  1.00  0.00     0.017 A 
HETATM   22  C   UNL     1      -4.573   4.246 -32.012  1.00  0.00     0.030 A 
BRANCH  20  23
HETATM   23  C   UNL     1      -0.980   5.401 -31.782  1.00  0.00     0.155 C 
HETATM   24  C   UNL     1      -0.288   6.717 -32.019  1.00  0.00     0.096 C 
HETATM   25  O   UNL     1      -0.430   4.493 -31.161  1.00  0.00    -0.293 OA
ENDBRANCH  20  23
ENDBRANCH  13  17
ENDBRANCH  10  11
ENDBRANCH   4  10
BRANCH   1  26
HETATM   26  C   UNL     1      -9.410   1.342 -32.881  1.00  0.00     0.045 A 
HETATM   27  N   UNL     1      -8.955   2.011 -31.808  1.00  0.00    -0.238 NA
HETATM   28  C   UNL     1      -7.696   1.754 -31.402  1.00  0.00     0.123 A 
HETATM   29  C   UNL     1      -7.147   2.549 -30.258  1.00  0.00     0.093 C 
HETATM   30  N   UNL     1      -6.907   0.815 -31.937  1.00  0.00    -0.233 NA
HETATM   31  C   UNL     1      -7.394   0.118 -32.984  1.00  0.00     0.072 A 
HETATM   32  C   UNL     1      -8.637   0.391 -33.524  1.00  0.00     0.060 A 
BRANCH  31  33
HETATM   33  C   UNL     1      -6.519  -0.949 -33.495  1.00  0.00     0.010 A 
HETATM   34  C   UNL     1      -5.115  -0.942 -33.367  1.00  0.00     0.023 A 
HETATM   35 BR   UNL     1      -4.159   0.502 -32.565  1.00  0.00    -0.050 Br
HETATM   36  C   UNL     1      -4.338  -1.991 -33.878  1.00  0.00     0.020 A 
HETATM   37  C   UNL     1      -4.947  -3.058 -34.536  1.00  0.00     0.001 A 
HETATM   38  C   UNL     1      -6.328  -3.076 -34.693  1.00  0.00     0.001 A 
HETATM   39  C   UNL     1      -7.102  -2.033 -34.181  1.00  0.00     0.015 A 
ENDBRANCH  31  33
ENDBRANCH   1  26
TORSDOF 6
ENDMDL
MODEL 3
REMARK VINA RESULT:      -9.3      1.182      1.567
REMARK  6 active torsions:
REMARK  status: ('A' for Active; 'I' for Inactive)
REMARK    1  A    between atoms: C_4  and  C_5 
REMARK    2  A    between atoms: C_8  and  C_9 
REMARK    3  A    between atoms: C_9  and  N_10 
REMARK       I    between atoms: N_10  and  C_11 
REMARK       I    between atoms: C_11  and  N_12 
REMARK    4  A    between atoms: N_12  and  C_13 
REMARK    5  A    between atoms: C_16  and  C_17 
REMARK    6  A    between atoms: C_29  and  C_30 
ROOT
HETATM    1  C   UNL     1      -2.766   3.779 -31.747  1.00  0.00     0.068 C 
HETATM    2  C   UNL     1      -3.192   5.215 -31.314  1.00  0.00     0.001 C 
HETATM    3  C   UNL     1      -4.327   5.783 -32.197  1.00  0.00     0.040 C 
HETATM    4  C   UNL     1      -3.956   5.703 -33.687  1.00  0.00     0.206 C 
HETATM    5  N   UNL     1      -2.506   5.222 -33.754  1.00  0.00    -0.065 N 
HETATM    6  H   UNL     1      -2.254   5.186 -34.766  1.00  0.00     0.280 HD
HETATM    7  C   UNL     1      -2.314   3.818 -33.218  1.00  0.00     0.246 C 
HETATM    8  C   UNL     1      -1.968   6.140 -31.539  1.00  0.00     0.033 C 
HETATM    9  C   UNL     1      -1.597   6.184 -33.030  1.00  0.00     0.236 C 
ENDROOT
BRANCH   4  10
HETATM   10  C   UNL     1      -4.936   4.837 -34.526  1.00  0.00     0.157 C 
BRANCH  10  11
HETATM   11  N   UNL     1      -5.924   4.072 -33.765  1.00  0.00    -0.341 N 
HETATM   12  C   UNL     1      -7.274   4.347 -33.766  1.00  0.00     0.320 C 
HETATM   13  N   UNL     1      -7.980   3.395 -33.077  1.00  0.00    -0.309 N 
HETATM   14  O   UNL     1      -7.720   5.361 -34.290  1.00  0.00    -0.247 OA
HETATM   15  H   UNL     1      -7.438   2.740 -32.530  1.00  0.00     0.170 HD
HETATM   16  H   UNL     1      -5.706   3.088 -33.661  1.00  0.00     0.164 HD
BRANCH  13  17
HETATM   17  C   UNL     1      -9.380   3.306 -32.920  1.00  0.00     0.036 A 
HETATM   18  C   UNL     1     -10.097   3.966 -31.920  1.00  0.00     0.030 A 
HETATM   19  C   UNL     1     -11.490   3.828 -31.829  1.00  0.00     0.017 A 
HETATM   20  C   UNL     1     -12.182   3.028 -32.743  1.00  0.00     0.009 A 
HETATM   21  C   UNL     1     -11.464   2.373 -33.750  1.00  0.00     0.017 A 
HETATM   22  C   UNL     1     -10.076   2.515 -33.840  1.00  0.00     0.030 A 
BRANCH  20  23
HETATM   23  C   UNL     1     -13.661   2.839 -32.687  1.00  0.00     0.155 C 
HETATM   24  C   UNL     1     -14.538   4.018 -32.355  1.00  0.00     0.096 C 
HETATM   25  O   UNL     1     -14.141   1.729 -32.906  1.00  0.00    -0.293 OA
ENDBRANCH  20  23
ENDBRANCH  13  17
ENDBRANCH  10  11
ENDBRANCH   4  10
BRANCH   1  26
HETATM   26  C   UNL     1      -3.782   2.671 -31.552  1.00  0.00     0.045 A 
HETATM   27  N   UNL     1      -4.884   2.938 -30.831  1.00  0.00    -0.238 NA
HETATM   28  C   UNL     1      -5.818   1.971 -30.738  1.00  0.00     0.123 A 
HETATM   29  C   UNL     1      -7.014   2.225 -29.874  1.00  0.00     0.093 C 
HETATM   30  N   UNL     1      -5.762   0.803 -31.390  1.00  0.00    -0.233 NA
HETATM   31  C   UNL     1      -4.672   0.566 -32.148  1.00  0.00     0.072 A 
HETATM   32  C   UNL     1      -3.624   1.466 -32.214  1.00  0.00     0.060 A 
BRANCH  31  33
HETATM   33  C   UNL     1      -4.687  -0.699 -32.897  1.00  0.00     0.010 A 
HETATM   34  C   UNL     1      -5.528  -0.949 -34.001  1.00  0.00     0.023 A 
HETATM   35 BR   UNL     1      -6.815   0.315 -34.624  1.00  0.00    -0.050 Br
HETATM   36  C   UNL     1      -5.492  -2.179 -34.672  1.00  0.00     0.020 A 
HETATM   37  C   UNL     1      -4.627  -3.185 -34.246  1.00  0.00     0.001 A 
HETATM   38  C   UNL     1      -3.804  -2.970 -33.147  1.00  0.00     0.001 A 
HETATM   39  C   UNL     1      -3.836  -1.743 -32.481  1.00  0.00     0.015 A 
ENDBRANCH  31  33
ENDBRANCH   1  26
TORSDOF 6
ENDMDL
MODEL 4
REMARK VINA RESULT:      -9.0      1.480      1.883
REMARK  6 active torsions:
REMARK  status: ('A' for Active; 'I' for Inactive)
REMARK    1  A    between atoms: C_4  and  C_5 
REMARK    2  A    between atoms: C_8  and  C_9 
REMARK    3  A    between atoms: C_9  and  N_10 
REMARK       I    between atoms: N_10  and  C_11 
REMARK       I    between atoms: C_11  and  N_12 
REMARK    4  A    between atoms: N_12  and  C_13 
REMARK    5  A    between atoms: C_16  and  C_17 
REMARK    6  A    between atoms: C_29  and  C_30 
ROOT
HETATM    1  C   UNL     1      -3.011   3.569 -32.911  1.00  0.00     0.068 C 
HETATM    2  C   UNL     1      -2.264   4.507 -31.913  1.00  0.00     0.001 C 
HETATM    3  C   UNL     1      -3.236   5.272 -30.987  1.00  0.00     0.040 C 
HETATM    4  C   UNL     1      -4.305   6.015 -31.805  1.00  0.00     0.206 C 
HETATM    5  N   UNL     1      -3.924   5.851 -33.277  1.00  0.00    -0.065 N 
HETATM    6  H   UNL     1      -4.643   6.371 -33.827  1.00  0.00     0.280 HD
HETATM    7  C   UNL     1      -3.981   4.415 -33.756  1.00  0.00     0.246 C 
HETATM    8  C   UNL     1      -1.537   5.584 -32.760  1.00  0.00     0.033 C 
HETATM    9  C   UNL     1      -2.557   6.432 -33.536  1.00  0.00     0.236 C 
ENDROOT
BRANCH   4  10
HETATM   10  C   UNL     1      -5.757   5.564 -31.486  1.00  0.00     0.157 C 
BRANCH  10  11
HETATM   11  N   UNL     1      -6.400   4.722 -32.495  1.00  0.00    -0.341 N 
HETATM   12  C   UNL     1      -7.665   4.193 -32.361  1.00  0.00     0.320 C 
HETATM   13  N   UNL     1      -8.069   3.559 -33.507  1.00  0.00    -0.309 N 
HETATM   14  O   UNL     1      -8.281   4.267 -31.303  1.00  0.00    -0.247 OA
HETATM   15  H   UNL     1      -7.360   3.408 -34.213  1.00  0.00     0.170 HD
HETATM   16  H   UNL     1      -6.148   4.942 -33.451  1.00  0.00     0.164 HD
BRANCH  13  17
HETATM   17  C   UNL     1      -9.319   2.959 -33.766  1.00  0.00     0.036 A 
HETATM   18  C   UNL     1     -10.291   3.507 -34.607  1.00  0.00     0.030 A 
HETATM   19  C   UNL     1     -11.511   2.848 -34.814  1.00  0.00     0.017 A 
HETATM   20  C   UNL     1     -11.773   1.629 -34.182  1.00  0.00     0.009 A 
HETATM   21  C   UNL     1     -10.797   1.076 -33.345  1.00  0.00     0.017 A 
HETATM   22  C   UNL     1      -9.579   1.734 -33.143  1.00  0.00     0.030 A 
BRANCH  20  23
HETATM   23  C   UNL     1     -13.058   0.891 -34.361  1.00  0.00     0.155 C 
HETATM   24  C   UNL     1     -13.249  -0.428 -33.661  1.00  0.00     0.096 C 
HETATM   25  O   UNL     1     -13.937   1.367 -35.077  1.00  0.00    -0.293 OA
ENDBRANCH  20  23
ENDBRANCH  13  17
ENDBRANCH  10  11
ENDBRANCH   4  10
BRANCH   1  26
HETATM   26  C   UNL     1      -3.746   2.382 -32.321  1.00  0.00     0.045 A 
HETATM   27  N   UNL     1      -4.616   2.605 -31.322  1.00  0.00    -0.238 NA
HETATM   28  C   UNL     1      -5.325   1.553 -30.866  1.00  0.00     0.123 A 
HETATM   29  C   UNL     1      -6.239   1.770 -29.701  1.00  0.00     0.093 C 
HETATM   30  N   UNL     1      -5.285   0.328 -31.402  1.00  0.00    -0.233 NA
HETATM   31  C   UNL     1      -4.442   0.128 -32.435  1.00  0.00     0.072 A 
HETATM   32  C   UNL     1      -3.607   1.130 -32.895  1.00  0.00     0.060 A 
BRANCH  31  33
HETATM   33  C   UNL     1      -4.483  -1.214 -33.035  1.00  0.00     0.010 A 
HETATM   34  C   UNL     1      -5.384  -1.593 -34.051  1.00  0.00     0.023 A 
HETATM   35 BR   UNL     1      -6.722  -0.417 -34.735  1.00  0.00    -0.050 Br
HETATM   36  C   UNL     1      -5.371  -2.891 -34.581  1.00  0.00     0.020 A 
HETATM   37  C   UNL     1      -4.470  -3.837 -34.096  1.00  0.00     0.001 A 
HETATM   38  C   UNL     1      -3.586  -3.493 -33.079  1.00  0.00     0.001 A 
HETATM   39  C   UNL     1      -3.596  -2.198 -32.555  1.00  0.00     0.015 A 
ENDBRANCH  31  33
ENDBRANCH   1  26
TORSDOF 6
ENDMDL
MODEL 5
REMARK VINA RESULT:      -9.0      3.837      8.083
REMARK  6 active torsions:
REMARK  status: ('A' for Active; 'I' for Inactive)
REMARK    1  A    between atoms: C_4  and  C_5 
REMARK    2  A    between atoms: C_8  and  C_9 
REMARK    3  A    between atoms: C_9  and  N_10 
REMARK       I    between atoms: N_10  and  C_11 
REMARK       I    between atoms: C_11  and  N_12 
REMARK    4  A    between atoms: N_12  and  C_13 
REMARK    5  A    between atoms: C_16  and  C_17 
REMARK    6  A    between atoms: C_29  and  C_30 
ROOT
HETATM    1  C   UNL     1      -5.460   7.170 -29.615  1.00  0.00     0.068 C 
HETATM    2  C   UNL     1      -5.819   5.998 -28.651  1.00  0.00     0.001 C 
HETATM    3  C   UNL     1      -5.623   4.613 -29.312  1.00  0.00     0.040 C 
HETATM    4  C   UNL     1      -6.380   4.530 -30.649  1.00  0.00     0.206 C 
HETATM    5  N   UNL     1      -7.194   5.819 -30.773  1.00  0.00    -0.065 N 
HETATM    6  H   UNL     1      -7.718   5.750 -31.674  1.00  0.00     0.280 HD
HETATM    7  C   UNL     1      -6.337   7.064 -30.876  1.00  0.00     0.246 C 
HETATM    8  C   UNL     1      -7.333   6.115 -28.339  1.00  0.00     0.033 C 
HETATM    9  C   UNL     1      -8.161   5.946 -29.622  1.00  0.00     0.236 C 
ENDROOT
BRANCH   4  10
HETATM   10  C   UNL     1      -5.457   4.259 -31.869  1.00  0.00     0.157 C 
BRANCH  10  11
HETATM   11  N   UNL     1      -5.903   3.209 -32.785  1.00  0.00    -0.341 N 
HETATM   12  C   UNL     1      -5.370   1.939 -32.815  1.00  0.00     0.320 C 
HETATM   13  N   UNL     1      -6.062   1.124 -33.672  1.00  0.00    -0.309 N 
HETATM   14  O   UNL     1      -4.366   1.651 -32.173  1.00  0.00    -0.247 OA
HETATM   15  H   UNL     1      -6.733   1.575 -34.280  1.00  0.00     0.170 HD
HETATM   16  H   UNL     1      -6.887   3.246 -33.021  1.00  0.00     0.164 HD
BRANCH  13  17
HETATM   17  C   UNL     1      -5.851  -0.250 -33.914  1.00  0.00     0.036 A 
HETATM   18  C   UNL     1      -4.612  -0.884 -33.791  1.00  0.00     0.030 A 
HETATM   19  C   UNL     1      -4.483  -2.256 -34.049  1.00  0.00     0.017 A 
HETATM   20  C   UNL     1      -5.595  -3.012 -34.431  1.00  0.00     0.009 A 
HETATM   21  C   UNL     1      -6.837  -2.379 -34.546  1.00  0.00     0.017 A 
HETATM   22  C   UNL     1      -6.965  -1.011 -34.286  1.00  0.00     0.030 A 
BRANCH  20  23
HETATM   23  C   UNL     1      -5.511  -4.473 -34.725  1.00  0.00     0.155 C 
HETATM   24  C   UNL     1      -4.422  -5.289 -34.080  1.00  0.00     0.096 C 
HETATM   25  O   UNL     1      -6.325  -4.986 -35.491  1.00  0.00    -0.293 OA
ENDBRANCH  20  23
ENDBRANCH  13  17
ENDBRANCH  10  11
ENDBRANCH   4  10
BRANCH   1  26
HETATM   26  C   UNL     1      -4.004   7.312 -30.014  1.00  0.00     0.045 A 
HETATM   27  N   UNL     1      -3.704   7.348 -31.324  1.00  0.00    -0.238 NA
HETATM   28  C   UNL     1      -2.417   7.560 -31.663  1.00  0.00     0.123 A 
HETATM   29  C   UNL     1      -2.054   7.523 -33.114  1.00  0.00     0.093 C 
HETATM   30  N   UNL     1      -1.441   7.828 -30.787  1.00  0.00    -0.233 NA
HETATM   31  C   UNL     1      -1.764   7.835 -29.478  1.00  0.00     0.072 A 
HETATM   32  C   UNL     1      -3.041   7.527 -29.044  1.00  0.00     0.060 A 
BRANCH  31  33
HETATM   33  C   UNL     1      -0.676   8.201 -28.560  1.00  0.00     0.010 A 
HETATM   34  C   UNL     1       0.406   7.353 -28.245  1.00  0.00     0.023 A 
HETATM   35 BR   UNL     1       0.557   5.578 -28.930  1.00  0.00    -0.050 Br
HETATM   36  C   UNL     1       1.412   7.764 -27.360  1.00  0.00     0.020 A 
HETATM   37  C   UNL     1       1.349   9.021 -26.762  1.00  0.00     0.001 A 
HETATM   38  C   UNL     1       0.282   9.867 -27.040  1.00  0.00     0.001 A 
HETATM   39  C   UNL     1      -0.719   9.460 -27.926  1.00  0.00     0.015 A 
ENDBRANCH  31  33
ENDBRANCH   1  26
TORSDOF 6
ENDMDL
MODEL 6
REMARK VINA RESULT:      -9.0      2.886      6.808
REMARK  6 active torsions:
REMARK  status: ('A' for Active; 'I' for Inactive)
REMARK    1  A    between atoms: C_4  and  C_5 
REMARK    2  A    between atoms: C_8  and  C_9 
REMARK    3  A    between atoms: C_9  and  N_10 
REMARK       I    between atoms: N_10  and  C_11 
REMARK       I    between atoms: C_11  and  N_12 
REMARK    4  A    between atoms: N_12  and  C_13 
REMARK    5  A    between atoms: C_16  and  C_17 
REMARK    6  A    between atoms: C_29  and  C_30 
ROOT
HETATM    1  C   UNL     1      -8.876   4.740 -30.809  1.00  0.00     0.068 C 
HETATM    2  C   UNL     1      -9.993   3.663 -30.659  1.00  0.00     0.001 C 
HETATM    3  C   UNL     1     -10.169   2.817 -31.941  1.00  0.00     0.040 C 
HETATM    4  C   UNL     1     -10.380   3.718 -33.169  1.00  0.00     0.206 C 
HETATM    5  N   UNL     1     -10.495   5.151 -32.648  1.00  0.00    -0.065 N 
HETATM    6  H   UNL     1     -10.656   5.756 -33.483  1.00  0.00     0.280 HD
HETATM    7  C   UNL     1      -9.225   5.657 -31.996  1.00  0.00     0.246 C 
HETATM    8  C   UNL     1     -11.331   4.420 -30.456  1.00  0.00     0.033 C 
HETATM    9  C   UNL     1     -11.656   5.273 -31.692  1.00  0.00     0.236 C 
ENDROOT
BRANCH   4  10
HETATM   10  C   UNL     1      -9.293   3.542 -34.265  1.00  0.00     0.157 C 
BRANCH  10  11
HETATM   11  N   UNL     1      -8.123   2.751 -33.881  1.00  0.00    -0.341 N 
HETATM   12  C   UNL     1      -8.004   1.397 -34.105  1.00  0.00     0.320 C 
HETATM   13  N   UNL     1      -6.756   0.940 -33.769  1.00  0.00    -0.309 N 
HETATM   14  O   UNL     1      -8.951   0.730 -34.507  1.00  0.00    -0.247 OA
HETATM   15  H   UNL     1      -6.164   1.580 -33.257  1.00  0.00     0.170 HD
HETATM   16  H   UNL     1      -7.243   3.252 -33.922  1.00  0.00     0.164 HD
BRANCH  13  17
HETATM   17  C   UNL     1      -6.248  -0.367 -33.921  1.00  0.00     0.036 A 
HETATM   18  C   UNL     1      -4.950  -0.747 -33.570  1.00  0.00     0.030 A 
HETATM   19  C   UNL     1      -4.518  -2.069 -33.751  1.00  0.00     0.017 A 
HETATM   20  C   UNL     1      -5.383  -3.029 -34.284  1.00  0.00     0.009 A 
HETATM   21  C   UNL     1      -6.686  -2.650 -34.629  1.00  0.00     0.017 A 
HETATM   22  C   UNL     1      -7.115  -1.332 -34.445  1.00  0.00     0.030 A 
BRANCH  20  23
HETATM   23  C   UNL     1      -4.972  -4.446 -34.507  1.00  0.00     0.155 C 
HETATM   24  C   UNL     1      -3.658  -4.924 -33.947  1.00  0.00     0.096 C 
HETATM   25  O   UNL     1      -5.706  -5.199 -35.144  1.00  0.00    -0.293 OA
ENDBRANCH  20  23
ENDBRANCH  13  17
ENDBRANCH  10  11
ENDBRANCH   4  10
BRANCH   1  26
HETATM   26  C   UNL     1      -7.451   4.241 -30.949  1.00  0.00     0.045 A 
HETATM   27  N   UNL     1      -7.172   2.991 -30.540  1.00  0.00    -0.238 NA
HETATM   28  C   UNL     1      -5.923   2.531 -30.750  1.00  0.00     0.123 A 
HETATM   29  C   UNL     1      -5.575   1.171 -30.229  1.00  0.00     0.093 C 
HETATM   30  N   UNL     1      -4.975   3.199 -31.418  1.00  0.00    -0.233 NA
HETATM   31  C   UNL     1      -5.283   4.433 -31.864  1.00  0.00     0.072 A 
HETATM   32  C   UNL     1      -6.509   5.017 -31.601  1.00  0.00     0.060 A 
BRANCH  31  33
HETATM   33  C   UNL     1      -4.235   5.100 -32.651  1.00  0.00     0.010 A 
HETATM   34  C   UNL     1      -3.316   6.025 -32.112  1.00  0.00     0.023 A 
HETATM   35 BR   UNL     1      -3.364   6.582 -30.287  1.00  0.00    -0.050 Br
HETATM   36  C   UNL     1      -2.340   6.626 -32.918  1.00  0.00     0.020 A 
HETATM   37  C   UNL     1      -2.271   6.328 -34.277  1.00  0.00     0.001 A 
HETATM   38  C   UNL     1      -3.179   5.436 -34.836  1.00  0.00     0.001 A 
HETATM   39  C   UNL     1      -4.149   4.833 -34.032  1.00  0.00     0.015 A 
ENDBRANCH  31  33
ENDBRANCH   1  26
TORSDOF 6
ENDMDL
MODEL 7
REMARK VINA RESULT:      -9.0      3.255      6.253
REMARK  6 active torsions:
REMARK  status: ('A' for Active; 'I' for Inactive)
REMARK    1  A    between atoms: C_4  and  C_5 
REMARK    2  A    between atoms: C_8  and  C_9 
REMARK    3  A    between atoms: C_9  and  N_10 
REMARK       I    between atoms: N_10  and  C_11 
REMARK       I    between atoms: C_11  and  N_12 
REMARK    4  A    between atoms: N_12  and  C_13 
REMARK    5  A    between atoms: C_16  and  C_17 
REMARK    6  A    between atoms: C_29  and  C_30 
ROOT
HETATM    1  C   UNL     1      -7.651   5.418 -30.952  1.00  0.00     0.068 C 
HETATM    2  C   UNL     1      -7.009   6.330 -32.042  1.00  0.00     0.001 C 
HETATM    3  C   UNL     1      -5.689   5.744 -32.594  1.00  0.00     0.040 C 
HETATM    4  C   UNL     1      -4.713   5.417 -31.452  1.00  0.00     0.206 C 
HETATM    5  N   UNL     1      -5.352   5.939 -30.165  1.00  0.00    -0.065 N 
HETATM    6  H   UNL     1      -4.679   5.730 -29.395  1.00  0.00     0.280 HD
HETATM    7  C   UNL     1      -6.642   5.231 -29.804  1.00  0.00     0.246 C 
HETATM    8  C   UNL     1      -6.633   7.667 -31.353  1.00  0.00     0.033 C 
HETATM    9  C   UNL     1      -5.584   7.427 -30.256  1.00  0.00     0.236 C 
ENDROOT
BRANCH   4  10
HETATM   10  C   UNL     1      -4.318   3.916 -31.383  1.00  0.00     0.157 C 
BRANCH  10  11
HETATM   11  N   UNL     1      -4.846   3.067 -32.452  1.00  0.00    -0.341 N 
HETATM   12  C   UNL     1      -4.689   1.699 -32.495  1.00  0.00     0.320 C 
HETATM   13  N   UNL     1      -5.395   1.145 -33.530  1.00  0.00    -0.309 N 
HETATM   14  O   UNL     1      -3.952   1.115 -31.708  1.00  0.00    -0.247 OA
HETATM   15  H   UNL     1      -5.780   1.788 -34.209  1.00  0.00     0.170 HD
HETATM   16  H   UNL     1      -5.714   3.393 -32.859  1.00  0.00     0.164 HD
BRANCH  13  17
HETATM   17  C   UNL     1      -5.527  -0.223 -33.848  1.00  0.00     0.036 A 
HETATM   18  C   UNL     1      -6.718  -0.815 -34.278  1.00  0.00     0.030 A 
HETATM   19  C   UNL     1      -6.769  -2.184 -34.575  1.00  0.00     0.017 A 
HETATM   20  C   UNL     1      -5.626  -2.978 -34.449  1.00  0.00     0.009 A 
HETATM   21  C   UNL     1      -4.432  -2.385 -34.025  1.00  0.00     0.017 A 
HETATM   22  C   UNL     1      -4.382  -1.019 -33.732  1.00  0.00     0.030 A 
BRANCH  20  23
HETATM   23  C   UNL     1      -5.628  -4.442 -34.743  1.00  0.00     0.155 C 
HETATM   24  C   UNL     1      -4.524  -5.303 -34.189  1.00  0.00     0.096 C 
HETATM   25  O   UNL     1      -6.525  -4.920 -35.436  1.00  0.00    -0.293 OA
ENDBRANCH  20  23
ENDBRANCH  13  17
ENDBRANCH  10  11
ENDBRANCH   4  10
BRANCH   1  26
HETATM   26  C   UNL     1      -8.172   4.067 -31.402  1.00  0.00     0.045 A 
HETATM   27  N   UNL     1      -7.601   2.963 -30.891  1.00  0.00    -0.238 NA
HETATM   28  C   UNL     1      -8.129   1.772 -31.234  1.00  0.00     0.123 A 
HETATM   29  C   UNL     1      -7.456   0.531 -30.737  1.00  0.00     0.093 C 
HETATM   30  N   UNL     1      -9.236   1.623 -31.972  1.00  0.00    -0.233 NA
HETATM   31  C   UNL     1      -9.827   2.741 -32.440  1.00  0.00     0.072 A 
HETATM   32  C   UNL     1      -9.288   3.995 -32.216  1.00  0.00     0.060 A 
BRANCH  31  33
HETATM   33  C   UNL     1     -11.076   2.531 -33.186  1.00  0.00     0.010 A 
HETATM   34  C   UNL     1     -12.320   3.075 -32.806  1.00  0.00     0.023 A 
HETATM   35 BR   UNL     1     -12.552   4.109 -31.219  1.00  0.00    -0.050 Br
HETATM   36  C   UNL     1     -13.475   2.835 -33.564  1.00  0.00     0.020 A 
HETATM   37  C   UNL     1     -13.412   2.037 -34.705  1.00  0.00     0.001 A 
HETATM   38  C   UNL     1     -12.201   1.472 -35.088  1.00  0.00     0.001 A 
HETATM   39  C   UNL     1     -11.049   1.715 -34.336  1.00  0.00     0.015 A 
ENDBRANCH  31  33
ENDBRANCH   1  26
TORSDOF 6
ENDMDL
MODEL 8
REMARK VINA RESULT:      -8.9      3.203      6.065
REMARK  6 active torsions:
REMARK  status: ('A' for Active; 'I' for Inactive)
REMARK    1  A    between atoms: C_4  and  C_5 
REMARK    2  A    between atoms: C_8  and  C_9 
REMARK    3  A    between atoms: C_9  and  N_10 
REMARK       I    between atoms: N_10  and  C_11 
REMARK       I    between atoms: C_11  and  N_12 
REMARK    4  A    between atoms: N_12  and  C_13 
REMARK    5  A    between atoms: C_16  and  C_17 
REMARK    6  A    between atoms: C_29  and  C_30 
ROOT
HETATM    1  C   UNL     1      -6.600   7.225 -31.215  1.00  0.00     0.068 C 
HETATM    2  C   UNL     1      -5.178   7.640 -30.728  1.00  0.00     0.001 C 
HETATM    3  C   UNL     1      -4.453   6.491 -29.988  1.00  0.00     0.040 C 
HETATM    4  C   UNL     1      -5.326   5.933 -28.852  1.00  0.00     0.206 C 
HETATM    5  N   UNL     1      -6.559   6.833 -28.762  1.00  0.00    -0.065 N 
HETATM    6  H   UNL     1      -7.139   6.460 -27.978  1.00  0.00     0.280 HD
HETATM    7  C   UNL     1      -7.432   6.780 -29.999  1.00  0.00     0.246 C 
HETATM    8  C   UNL     1      -5.367   8.772 -29.686  1.00  0.00     0.033 C 
HETATM    9  C   UNL     1      -6.154   8.257 -28.471  1.00  0.00     0.236 C 
ENDROOT
BRANCH   4  10
HETATM   10  C   UNL     1      -5.667   4.426 -29.013  1.00  0.00     0.157 C 
BRANCH  10  11
HETATM   11  N   UNL     1      -5.132   3.775 -30.209  1.00  0.00    -0.341 N 
HETATM   12  C   UNL     1      -5.376   2.461 -30.543  1.00  0.00     0.320 C 
HETATM   13  N   UNL     1      -4.866   2.153 -31.777  1.00  0.00    -0.309 N 
HETATM   14  O   UNL     1      -5.939   1.698 -29.765  1.00  0.00    -0.247 OA
HETATM   15  H   UNL     1      -4.250   2.837 -32.194  1.00  0.00     0.170 HD
HETATM   16  H   UNL     1      -5.023   4.387 -31.009  1.00  0.00     0.164 HD
BRANCH  13  17
HETATM   17  C   UNL     1      -4.977   0.931 -32.475  1.00  0.00     0.036 A 
HETATM   18  C   UNL     1      -5.853   0.718 -33.542  1.00  0.00     0.030 A 
HETATM   19  C   UNL     1      -5.905  -0.527 -34.186  1.00  0.00     0.017 A 
HETATM   20  C   UNL     1      -5.076  -1.573 -33.771  1.00  0.00     0.009 A 
HETATM   21  C   UNL     1      -4.194  -1.357 -32.706  1.00  0.00     0.017 A 
HETATM   22  C   UNL     1      -4.141  -0.114 -32.068  1.00  0.00     0.030 A 
BRANCH  20  23
HETATM   23  C   UNL     1      -5.097  -2.919 -34.415  1.00  0.00     0.155 C 
HETATM   24  C   UNL     1      -6.406  -3.471 -34.916  1.00  0.00     0.096 C 
HETATM   25  O   UNL     1      -4.052  -3.557 -34.524  1.00  0.00    -0.293 OA
ENDBRANCH  20  23
ENDBRANCH  13  17
ENDBRANCH  10  11
ENDBRANCH   4  10
BRANCH   1  26
HETATM   26  C   UNL     1      -6.676   6.170 -32.302  1.00  0.00     0.045 A 
HETATM   27  N   UNL     1      -5.603   5.993 -33.092  1.00  0.00    -0.238 NA
HETATM   28  C   UNL     1      -5.653   4.995 -33.996  1.00  0.00     0.123 A 
HETATM   29  C   UNL     1      -4.500   4.836 -34.937  1.00  0.00     0.093 C 
HETATM   30  N   UNL     1      -6.658   4.116 -34.094  1.00  0.00    -0.233 NA
HETATM   31  C   UNL     1      -7.707   4.276 -33.263  1.00  0.00     0.072 A 
HETATM   32  C   UNL     1      -7.777   5.336 -32.377  1.00  0.00     0.060 A 
BRANCH  31  33
HETATM   33  C   UNL     1      -8.753   3.247 -33.361  1.00  0.00     0.010 A 
HETATM   34  C   UNL     1      -9.892   3.360 -34.185  1.00  0.00     0.023 A 
HETATM   35 BR   UNL     1     -10.253   4.910 -35.239  1.00  0.00    -0.050 Br
HETATM   36  C   UNL     1     -10.854   2.341 -34.232  1.00  0.00     0.020 A 
HETATM   37  C   UNL     1     -10.705   1.200 -33.446  1.00  0.00     0.001 A 
HETATM   38  C   UNL     1      -9.602   1.076 -32.609  1.00  0.00     0.001 A 
HETATM   39  C   UNL     1      -8.641   2.088 -32.567  1.00  0.00     0.015 A 
ENDBRANCH  31  33
ENDBRANCH   1  26
TORSDOF 6
ENDMDL
MODEL 9
REMARK VINA RESULT:      -8.8      2.817      6.000
REMARK  6 active torsions:
REMARK  status: ('A' for Active; 'I' for Inactive)
REMARK    1  A    between atoms: C_4  and  C_5 
REMARK    2  A    between atoms: C_8  and  C_9 
REMARK    3  A    between atoms: C_9  and  N_10 
REMARK       I    between atoms: N_10  and  C_11 
REMARK       I    between atoms: C_11  and  N_12 
REMARK    4  A    between atoms: N_12  and  C_13 
REMARK    5  A    between atoms: C_16  and  C_17 
REMARK    6  A    between atoms: C_29  and  C_30 
ROOT
HETATM    1  C   UNL     1      -6.015   0.472 -32.738  1.00  0.00     0.068 C 
HETATM    2  C   UNL     1      -5.792   0.086 -34.233  1.00  0.00     0.001 C 
HETATM    3  C   UNL     1      -6.839   0.734 -35.169  1.00  0.00     0.040 C 
HETATM    4  C   UNL     1      -8.268   0.432 -34.688  1.00  0.00     0.206 C 
HETATM    5  N   UNL     1      -8.141  -0.547 -33.521  1.00  0.00    -0.065 N 
HETATM    6  H   UNL     1      -9.114  -0.762 -33.210  1.00  0.00     0.280 HD
HETATM    7  C   UNL     1      -7.431   0.040 -32.318  1.00  0.00     0.246 C 
HETATM    8  C   UNL     1      -6.007  -1.446 -34.342  1.00  0.00     0.033 C 
HETATM    9  C   UNL     1      -7.451  -1.813 -33.966  1.00  0.00     0.236 C 
ENDROOT
BRANCH   4  10
HETATM   10  C   UNL     1      -9.090   1.705 -34.344  1.00  0.00     0.157 C 
BRANCH  10  11
HETATM   11  N   UNL     1     -10.269   1.495 -33.504  1.00  0.00    -0.341 N 
HETATM   12  C   UNL     1     -11.395   2.287 -33.551  1.00  0.00     0.320 C 
HETATM   13  N   UNL     1     -12.395   1.786 -32.758  1.00  0.00    -0.309 N 
HETATM   14  O   UNL     1     -11.419   3.328 -34.199  1.00  0.00    -0.247 OA
HETATM   15  H   UNL     1     -12.139   1.036 -32.130  1.00  0.00     0.170 HD
HETATM   16  H   UNL     1     -10.459   0.526 -33.278  1.00  0.00     0.164 HD
BRANCH  13  17
HETATM   17  C   UNL     1     -13.705   2.286 -32.604  1.00  0.00     0.036 A 
HETATM   18  C   UNL     1     -14.005   3.541 -32.069  1.00  0.00     0.030 A 
HETATM   19  C   UNL     1     -15.336   3.968 -31.949  1.00  0.00     0.017 A 
HETATM   20  C   UNL     1     -16.383   3.142 -32.367  1.00  0.00     0.009 A 
HETATM   21  C   UNL     1     -16.083   1.888 -32.910  1.00  0.00     0.017 A 
HETATM   22  C   UNL     1     -14.755   1.466 -33.032  1.00  0.00     0.030 A 
BRANCH  20  23
HETATM   23  C   UNL     1     -17.816   3.543 -32.253  1.00  0.00     0.155 C 
HETATM   24  C   UNL     1     -18.154   4.923 -31.755  1.00  0.00     0.096 C 
HETATM   25  O   UNL     1     -18.697   2.743 -32.563  1.00  0.00    -0.293 OA
ENDBRANCH  20  23
ENDBRANCH  13  17
ENDBRANCH  10  11
ENDBRANCH   4  10
BRANCH   1  26
HETATM   26  C   UNL     1      -5.789   1.924 -32.361  1.00  0.00     0.045 A 
HETATM   27  N   UNL     1      -6.710   2.532 -31.594  1.00  0.00    -0.238 NA
HETATM   28  C   UNL     1      -6.455   3.794 -31.197  1.00  0.00     0.123 A 
HETATM   29  C   UNL     1      -7.506   4.513 -30.410  1.00  0.00     0.093 C 
HETATM   30  N   UNL     1      -5.309   4.443 -31.437  1.00  0.00    -0.233 NA
HETATM   31  C   UNL     1      -4.374   3.804 -32.168  1.00  0.00     0.072 A 
HETATM   32  C   UNL     1      -4.600   2.547 -32.698  1.00  0.00     0.060 A 
BRANCH  31  33
HETATM   33  C   UNL     1      -3.107   4.529 -32.348  1.00  0.00     0.010 A 
HETATM   34  C   UNL     1      -2.743   5.192 -33.538  1.00  0.00     0.023 A 
HETATM   35 BR   UNL     1      -3.835   5.175 -35.103  1.00  0.00    -0.050 Br
HETATM   36  C   UNL     1      -1.519   5.866 -33.643  1.00  0.00     0.020 A 
HETATM   37  C   UNL     1      -0.630   5.877 -32.571  1.00  0.00     0.001 A 
HETATM   38  C   UNL     1      -0.957   5.212 -31.395  1.00  0.00     0.001 A 
HETATM   39  C   UNL     1      -2.179   4.545 -31.287  1.00  0.00     0.015 A 
ENDBRANCH  31  33
ENDBRANCH   1  26
TORSDOF 6
ENDMDL
MODEL 10
REMARK VINA RESULT:      -8.7      3.033      6.085
REMARK  6 active torsions:
REMARK  status: ('A' for Active; 'I' for Inactive)
REMARK    1  A    between atoms: C_4  and  C_5 
REMARK    2  A    between atoms: C_8  and  C_9 
REMARK    3  A    between atoms: C_9  and  N_10 
REMARK       I    between atoms: N_10  and  C_11 
REMARK       I    between atoms: C_11  and  N_12 
REMARK    4  A    between atoms: N_12  and  C_13 
REMARK    5  A    between atoms: C_16  and  C_17 
REMARK    6  A    between atoms: C_29  and  C_30 
ROOT
HETATM    1  C   UNL     1      -7.453   6.609 -30.115  1.00  0.00     0.068 C 
HETATM    2  C   UNL     1      -8.839   6.026 -29.700  1.00  0.00     0.001 C 
HETATM    3  C   UNL     1      -9.541   5.294 -30.868  1.00  0.00     0.040 C 
HETATM    4  C   UNL     1      -9.630   6.198 -32.109  1.00  0.00     0.206 C 
HETATM    5  N   UNL     1      -9.118   7.575 -31.686  1.00  0.00    -0.065 N 
HETATM    6  H   UNL     1      -9.196   8.189 -32.527  1.00  0.00     0.280 HD
HETATM    7  C   UNL     1      -7.654   7.578 -31.294  1.00  0.00     0.246 C 
HETATM    8  C   UNL     1      -9.747   7.229 -29.337  1.00  0.00     0.033 C 
HETATM    9  C   UNL     1      -9.959   8.130 -30.563  1.00  0.00     0.236 C 
ENDROOT
BRANCH   4  10
HETATM   10  C   UNL     1      -8.900   5.619 -33.352  1.00  0.00     0.157 C 
BRANCH  10  11
HETATM   11  N   UNL     1      -9.086   4.188 -33.593  1.00  0.00    -0.341 N 
HETATM   12  C   UNL     1      -8.049   3.289 -33.713  1.00  0.00     0.320 C 
HETATM   13  N   UNL     1      -8.510   2.001 -33.799  1.00  0.00    -0.309 N 
HETATM   14  O   UNL     1      -6.883   3.662 -33.782  1.00  0.00    -0.247 OA
HETATM   15  H   UNL     1      -9.505   1.886 -33.938  1.00  0.00     0.170 HD
HETATM   16  H   UNL     1      -9.923   3.796 -33.178  1.00  0.00     0.164 HD
BRANCH  13  17
HETATM   17  C   UNL     1      -7.747   0.815 -33.866  1.00  0.00     0.036 A 
HETATM   18  C   UNL     1      -7.032   0.285 -32.789  1.00  0.00     0.030 A 
HETATM   19  C   UNL     1      -6.296  -0.901 -32.935  1.00  0.00     0.017 A 
HETATM   20  C   UNL     1      -6.271  -1.571 -34.161  1.00  0.00     0.009 A 
HETATM   21  C   UNL     1      -6.993  -1.044 -35.237  1.00  0.00     0.017 A 
HETATM   22  C   UNL     1      -7.729   0.137 -35.089  1.00  0.00     0.030 A 
BRANCH  20  23
HETATM   23  C   UNL     1      -5.498  -2.830 -34.372  1.00  0.00     0.155 C 
HETATM   24  C   UNL     1      -6.152  -3.980 -35.091  1.00  0.00     0.096 C 
HETATM   25  O   UNL     1      -4.344  -2.912 -33.954  1.00  0.00    -0.293 OA
ENDBRANCH  20  23
ENDBRANCH  13  17
ENDBRANCH  10  11
ENDBRANCH   4  10
BRANCH   1  26
HETATM   26  C   UNL     1      -6.359   5.613 -30.451  1.00  0.00     0.045 A 
HETATM   27  N   UNL     1      -6.511   4.341 -30.045  1.00  0.00    -0.238 NA
HETATM   28  C   UNL     1      -5.574   3.450 -30.424  1.00  0.00     0.123 A 
HETATM   29  C   UNL     1      -5.686   2.047 -29.914  1.00  0.00     0.093 C 
HETATM   30  N   UNL     1      -4.559   3.729 -31.251  1.00  0.00    -0.233 NA
HETATM   31  C   UNL     1      -4.445   4.999 -31.689  1.00  0.00     0.072 A 
HETATM   32  C   UNL     1      -5.307   5.994 -31.265  1.00  0.00     0.060 A 
BRANCH  31  33
HETATM   33  C   UNL     1      -3.357   5.241 -32.648  1.00  0.00     0.010 A 
HETATM   34  C   UNL     1      -2.093   5.754 -32.289  1.00  0.00     0.023 A 
HETATM   35 BR   UNL     1      -1.656   6.264 -30.502  1.00  0.00    -0.050 Br
HETATM   36  C   UNL     1      -1.097   5.962 -33.254  1.00  0.00     0.020 A 
HETATM   37  C   UNL     1      -1.350   5.678 -34.594  1.00  0.00     0.001 A 
HETATM   38  C   UNL     1      -2.595   5.193 -34.976  1.00  0.00     0.001 A 
HETATM   39  C   UNL     1      -3.585   4.980 -34.014  1.00  0.00     0.015 A 
ENDBRANCH  31  33
ENDBRANCH   1  26
TORSDOF 6
ENDMDL
