MODEL 1
REMARK VINA RESULT:      -9.2      0.000      0.000
REMARK  7 active torsions:
REMARK  status: ('A' for Active; 'I' for Inactive)
REMARK    1  A    between atoms: C_5  and  N_6 
REMARK    2  A    between atoms: N_6  and  C_7 
REMARK    3  A    between atoms: C_7  and  N_8 
REMARK    4  A    between atoms: N_8  and  C_9 
REMARK    5  A    between atoms: C_9  and  C_10 
REMARK    6  A    between atoms: C_10  and  C_11 
REMARK    7  A    between atoms: C_14  and  C_15 
ROOT
HETATM    1  C   UNL     1     -10.505   2.485 -33.758  1.00  0.00     0.102 C 
HETATM    2  C   UNL     1     -11.845   2.645 -33.563  1.00  0.00     0.139 C 
HETATM    3  C   UNL     1     -12.831   1.889 -34.374  1.00  0.00     0.270 C 
HETATM    4  O   UNL     1     -12.676   1.646 -35.568  1.00  0.00    -0.267 OA
HETATM    5  N   UNL     1     -13.981   1.551 -33.685  1.00  0.00    -0.270 N 
HETATM    6  C   UNL     1     -14.868   0.588 -34.312  1.00  0.00     0.164 C 
HETATM    7  C   UNL     1     -14.495   2.301 -32.642  1.00  0.00     0.333 C 
HETATM    8  O   UNL     1     -15.601   2.058 -32.154  1.00  0.00    -0.246 OA
HETATM    9  N   UNL     1     -13.711   3.353 -32.189  1.00  0.00    -0.270 N 
HETATM   10  C   UNL     1     -14.252   4.190 -31.131  1.00  0.00     0.164 C 
HETATM   11  C   UNL     1     -12.370   3.528 -32.497  1.00  0.00     0.270 C 
HETATM   12  O   UNL     1     -11.648   4.321 -31.888  1.00  0.00    -0.267 OA
ENDROOT
BRANCH   1  13
HETATM   13  N   UNL     1     -10.020   1.539 -34.651  1.00  0.00    -0.245 NA
HETATM   14  H   UNL     1      -9.907   1.965 -35.568  1.00  0.00     0.135 HD
BRANCH  13  15
HETATM   15  C   UNL     1      -8.901   0.702 -34.387  1.00  0.00     0.014 A 
HETATM   16  C   UNL     1      -8.914  -0.327 -33.438  1.00  0.00     0.024 A 
HETATM   17  C   UNL     1      -7.792  -1.139 -33.242  1.00  0.00     0.008 A 
HETATM   18  C   UNL     1      -6.642  -0.960 -34.016  1.00  0.00    -0.062 A 
HETATM   19  C   UNL     1      -5.424  -1.801 -33.773  1.00  0.00     0.048 C 
HETATM   20  C   UNL     1      -6.629   0.050 -34.982  1.00  0.00     0.008 A 
HETATM   21  C   UNL     1      -7.753   0.859 -35.175  1.00  0.00     0.024 A 
ENDBRANCH  13  15
ENDBRANCH   1  13
BRANCH   1  22
HETATM   22  N   UNL     1      -9.553   3.281 -33.116  1.00  0.00    -0.379 N 
HETATM   23  H   UNL     1      -9.078   2.770 -32.359  1.00  0.00     0.160 HD
BRANCH  22  24
HETATM   24  C   UNL     1      -8.642   4.189 -33.815  1.00  0.00     0.125 C 
BRANCH  24  25
HETATM   25  C   UNL     1      -7.562   4.705 -32.858  1.00  0.00     0.061 C 
BRANCH  25  26
HETATM   26  C   UNL     1      -6.414   3.747 -32.740  1.00  0.00    -0.022 A 
HETATM   27  C   UNL     1      -6.371   2.581 -31.907  1.00  0.00    -0.000 A 
HETATM   28  C   UNL     1      -5.120   1.989 -32.075  1.00  0.00     0.058 A 
HETATM   29  C   UNL     1      -7.287   1.985 -31.018  1.00  0.00     0.014 A 
HETATM   30  C   UNL     1      -4.720   0.820 -31.394  1.00  0.00     0.075 A 
HETATM   31  N   UNL     1      -4.435   2.761 -32.989  1.00  0.00    -0.358 N 
HETATM   32  C   UNL     1      -5.667   0.258 -30.511  1.00  0.00     0.018 A 
HETATM   33  C   UNL     1      -6.925   0.826 -30.325  1.00  0.00     0.002 A 
HETATM   34  H   UNL     1      -3.494   2.565 -33.307  1.00  0.00     0.166 HD
HETATM   35  C   UNL     1      -5.195   3.829 -33.392  1.00  0.00     0.013 A 
HETATM   36  C   UNL     1      -4.681   4.823 -34.369  1.00  0.00     0.068 C 
BRANCH  30  37
HETATM   37  C   UNL     1      -3.373   0.165 -31.557  1.00  0.00     0.419 C 
HETATM   38  F   UNL     1      -2.394   0.750 -30.807  1.00  0.00    -0.166 F 
HETATM   39  F   UNL     1      -3.379  -1.149 -31.196  1.00  0.00    -0.166 F 
HETATM   40  F   UNL     1      -2.924   0.198 -32.842  1.00  0.00    -0.166 F 
ENDBRANCH  30  37
ENDBRANCH  25  26
ENDBRANCH  24  25
ENDBRANCH  22  24
ENDBRANCH   1  22
TORSDOF 7
ENDMDL
MODEL 2
REMARK VINA RESULT:      -9.0      3.361      6.297
REMARK  7 active torsions:
REMARK  status: ('A' for Active; 'I' for Inactive)
REMARK    1  A    between atoms: C_5  and  N_6 
REMARK    2  A    between atoms: N_6  and  C_7 
REMARK    3  A    between atoms: C_7  and  N_8 
REMARK    4  A    between atoms: N_8  and  C_9 
REMARK    5  A    between atoms: C_9  and  C_10 
REMARK    6  A    between atoms: C_10  and  C_11 
REMARK    7  A    between atoms: C_14  and  C_15 
ROOT
HETATM    1  C   UNL     1      -5.424   2.481 -30.708  1.00  0.00     0.102 C 
HETATM    2  C   UNL     1      -6.752   2.547 -31.010  1.00  0.00     0.139 C 
HETATM    3  C   UNL     1      -7.449   3.852 -31.111  1.00  0.00     0.270 C 
HETATM    4  O   UNL     1      -7.210   4.802 -30.370  1.00  0.00    -0.267 OA
HETATM    5  N   UNL     1      -8.453   3.879 -32.060  1.00  0.00    -0.270 N 
HETATM    6  C   UNL     1      -8.997   5.177 -32.411  1.00  0.00     0.164 C 
HETATM    7  C   UNL     1      -9.186   2.763 -32.429  1.00  0.00     0.333 C 
HETATM    8  O   UNL     1     -10.174   2.852 -33.161  1.00  0.00    -0.246 OA
HETATM    9  N   UNL     1      -8.765   1.546 -31.913  1.00  0.00    -0.270 N 
HETATM   10  C   UNL     1      -9.551   0.368 -32.240  1.00  0.00     0.164 C 
HETATM   11  C   UNL     1      -7.536   1.327 -31.310  1.00  0.00     0.270 C 
HETATM   12  O   UNL     1      -7.098   0.195 -31.090  1.00  0.00    -0.267 OA
ENDROOT
BRANCH   1  13
HETATM   13  N   UNL     1      -4.661   3.635 -30.584  1.00  0.00    -0.245 NA
HETATM   14  H   UNL     1      -4.162   3.618 -29.698  1.00  0.00     0.135 HD
BRANCH  13  15
HETATM   15  C   UNL     1      -3.789   4.120 -31.597  1.00  0.00     0.014 A 
HETATM   16  C   UNL     1      -2.417   4.323 -31.403  1.00  0.00     0.024 A 
HETATM   17  C   UNL     1      -1.603   4.774 -32.446  1.00  0.00     0.008 A 
HETATM   18  C   UNL     1      -2.137   5.003 -33.718  1.00  0.00    -0.062 A 
HETATM   19  C   UNL     1      -1.272   5.531 -34.823  1.00  0.00     0.048 C 
HETATM   20  C   UNL     1      -3.501   4.781 -33.926  1.00  0.00     0.008 A 
HETATM   21  C   UNL     1      -4.312   4.328 -32.880  1.00  0.00     0.024 A 
ENDBRANCH  13  15
ENDBRANCH   1  13
BRANCH   1  22
HETATM   22  N   UNL     1      -4.767   1.272 -30.466  1.00  0.00    -0.379 N 
HETATM   23  H   UNL     1      -5.401   0.467 -30.568  1.00  0.00     0.160 HD
BRANCH  22  24
HETATM   24  C   UNL     1      -3.418   0.964 -30.942  1.00  0.00     0.125 C 
BRANCH  24  25
HETATM   25  C   UNL     1      -3.413   0.797 -32.465  1.00  0.00     0.061 C 
BRANCH  25  26
HETATM   26  C   UNL     1      -4.014  -0.511 -32.886  1.00  0.00    -0.022 A 
HETATM   27  C   UNL     1      -5.177  -0.681 -33.706  1.00  0.00    -0.000 A 
HETATM   28  C   UNL     1      -5.408  -2.049 -33.834  1.00  0.00     0.058 A 
HETATM   29  C   UNL     1      -6.059   0.216 -34.342  1.00  0.00     0.014 A 
HETATM   30  C   UNL     1      -6.487  -2.586 -34.569  1.00  0.00     0.075 A 
HETATM   31  N   UNL     1      -4.410  -2.688 -33.129  1.00  0.00    -0.358 N 
HETATM   32  C   UNL     1      -7.346  -1.653 -35.186  1.00  0.00     0.018 A 
HETATM   33  C   UNL     1      -7.139  -0.280 -35.077  1.00  0.00     0.002 A 
HETATM   34  H   UNL     1      -4.323  -3.693 -33.051  1.00  0.00     0.166 HD
HETATM   35  C   UNL     1      -3.568  -1.777 -32.544  1.00  0.00     0.013 A 
HETATM   36  C   UNL     1      -2.412  -2.209 -31.716  1.00  0.00     0.068 C 
BRANCH  30  37
HETATM   37  C   UNL     1      -6.757  -4.061 -34.718  1.00  0.00     0.419 C 
HETATM   38  F   UNL     1      -5.677  -4.840 -34.415  1.00  0.00    -0.166 F 
HETATM   39  F   UNL     1      -7.764  -4.496 -33.911  1.00  0.00    -0.166 F 
HETATM   40  F   UNL     1      -7.117  -4.405 -35.986  1.00  0.00    -0.166 F 
ENDBRANCH  30  37
ENDBRANCH  25  26
ENDBRANCH  24  25
ENDBRANCH  22  24
ENDBRANCH   1  22
TORSDOF 7
ENDMDL
MODEL 3
REMARK VINA RESULT:      -8.9      2.983      4.325
REMARK  7 active torsions:
REMARK  status: ('A' for Active; 'I' for Inactive)
REMARK    1  A    between atoms: C_5  and  N_6 
REMARK    2  A    between atoms: N_6  and  C_7 
REMARK    3  A    between atoms: C_7  and  N_8 
REMARK    4  A    between atoms: N_8  and  C_9 
REMARK    5  A    between atoms: C_9  and  C_10 
REMARK    6  A    between atoms: C_10  and  C_11 
REMARK    7  A    between atoms: C_14  and  C_15 
ROOT
HETATM    1  C   UNL     1      -8.670   3.127 -33.578  1.00  0.00     0.102 C 
HETATM    2  C   UNL     1      -9.912   3.534 -33.969  1.00  0.00     0.139 C 
HETATM    3  C   UNL     1     -11.105   2.688 -33.725  1.00  0.00     0.270 C 
HETATM    4  O   UNL     1     -11.092   1.463 -33.817  1.00  0.00    -0.267 OA
HETATM    5  N   UNL     1     -12.257   3.406 -33.466  1.00  0.00    -0.270 N 
HETATM    6  C   UNL     1     -13.397   2.666 -32.954  1.00  0.00     0.164 C 
HETATM    7  C   UNL     1     -12.499   4.672 -33.971  1.00  0.00     0.333 C 
HETATM    8  O   UNL     1     -13.598   5.218 -33.849  1.00  0.00    -0.246 OA
HETATM    9  N   UNL     1     -11.448   5.284 -34.640  1.00  0.00    -0.270 N 
HETATM   10  C   UNL     1     -11.693   6.590 -35.227  1.00  0.00     0.164 C 
HETATM   11  C   UNL     1     -10.129   4.859 -34.593  1.00  0.00     0.270 C 
HETATM   12  O   UNL     1      -9.193   5.558 -34.989  1.00  0.00    -0.267 OA
ENDROOT
BRANCH   1  13
HETATM   13  N   UNL     1      -8.496   1.956 -32.853  1.00  0.00    -0.245 NA
HETATM   14  H   UNL     1      -9.396   1.639 -32.499  1.00  0.00     0.135 HD
BRANCH  13  15
HETATM   15  C   UNL     1      -7.764   0.833 -33.327  1.00  0.00     0.014 A 
HETATM   16  C   UNL     1      -7.866   0.341 -34.634  1.00  0.00     0.024 A 
HETATM   17  C   UNL     1      -7.098  -0.750 -35.054  1.00  0.00     0.008 A 
HETATM   18  C   UNL     1      -6.185  -1.353 -34.183  1.00  0.00    -0.062 A 
HETATM   19  C   UNL     1      -5.396  -2.552 -34.620  1.00  0.00     0.048 C 
HETATM   20  C   UNL     1      -6.061  -0.854 -32.884  1.00  0.00     0.008 A 
HETATM   21  C   UNL     1      -6.830   0.238 -32.469  1.00  0.00     0.024 A 
ENDBRANCH  13  15
ENDBRANCH   1  13
BRANCH   1  22
HETATM   22  N   UNL     1      -7.509   3.828 -33.916  1.00  0.00    -0.379 N 
HETATM   23  H   UNL     1      -7.722   4.679 -34.455  1.00  0.00     0.160 HD
BRANCH  22  24
HETATM   24  C   UNL     1      -6.382   4.029 -33.003  1.00  0.00     0.125 C 
BRANCH  24  25
HETATM   25  C   UNL     1      -5.086   3.506 -33.630  1.00  0.00     0.061 C 
BRANCH  25  26
HETATM   26  C   UNL     1      -3.881   3.885 -32.822  1.00  0.00    -0.022 A 
HETATM   27  C   UNL     1      -3.003   4.988 -33.082  1.00  0.00    -0.000 A 
HETATM   28  C   UNL     1      -2.001   4.968 -32.114  1.00  0.00     0.058 A 
HETATM   29  C   UNL     1      -2.971   5.996 -34.067  1.00  0.00     0.014 A 
HETATM   30  C   UNL     1      -0.949   5.908 -32.069  1.00  0.00     0.075 A 
HETATM   31  N   UNL     1      -2.271   3.900 -31.285  1.00  0.00    -0.358 N 
HETATM   32  C   UNL     1      -0.955   6.897 -33.075  1.00  0.00     0.018 A 
HETATM   33  C   UNL     1      -1.943   6.942 -34.055  1.00  0.00     0.002 A 
HETATM   34  H   UNL     1      -1.707   3.644 -30.485  1.00  0.00     0.166 HD
HETATM   35  C   UNL     1      -3.393   3.231 -31.703  1.00  0.00     0.013 A 
HETATM   36  C   UNL     1      -3.894   2.030 -30.985  1.00  0.00     0.068 C 
BRANCH  30  37
HETATM   37  C   UNL     1       0.145   5.904 -31.033  1.00  0.00     0.419 C 
HETATM   38  F   UNL     1      -0.325   5.837 -29.753  1.00  0.00    -0.166 F 
HETATM   39  F   UNL     1       0.995   4.849 -31.169  1.00  0.00    -0.166 F 
HETATM   40  F   UNL     1       0.922   7.021 -31.083  1.00  0.00    -0.166 F 
ENDBRANCH  30  37
ENDBRANCH  25  26
ENDBRANCH  24  25
ENDBRANCH  22  24
ENDBRANCH   1  22
TORSDOF 7
ENDMDL
MODEL 4
REMARK VINA RESULT:      -8.8      4.152      7.660
REMARK  7 active torsions:
REMARK  status: ('A' for Active; 'I' for Inactive)
REMARK    1  A    between atoms: C_5  and  N_6 
REMARK    2  A    between atoms: N_6  and  C_7 
REMARK    3  A    between atoms: C_7  and  N_8 
REMARK    4  A    between atoms: N_8  and  C_9 
REMARK    5  A    between atoms: C_9  and  C_10 
REMARK    6  A    between atoms: C_10  and  C_11 
REMARK    7  A    between atoms: C_14  and  C_15 
ROOT
HETATM    1  C   UNL     1      -4.793   4.294 -31.942  1.00  0.00     0.102 C 
HETATM    2  C   UNL     1      -4.227   5.485 -32.288  1.00  0.00     0.139 C 
HETATM    3  C   UNL     1      -4.879   6.771 -31.941  1.00  0.00     0.270 C 
HETATM    4  O   UNL     1      -6.095   6.939 -31.971  1.00  0.00    -0.267 OA
HETATM    5  N   UNL     1      -3.990   7.792 -31.659  1.00  0.00    -0.270 N 
HETATM    6  C   UNL     1      -4.533   8.993 -31.053  1.00  0.00     0.164 C 
HETATM    7  C   UNL     1      -2.725   7.878 -32.214  1.00  0.00     0.333 C 
HETATM    8  O   UNL     1      -2.020   8.879 -32.064  1.00  0.00    -0.246 OA
HETATM    9  N   UNL     1      -2.302   6.792 -32.967  1.00  0.00    -0.270 N 
HETATM   10  C   UNL     1      -1.000   6.881 -33.606  1.00  0.00     0.164 C 
HETATM   11  C   UNL     1      -2.911   5.546 -32.967  1.00  0.00     0.270 C 
HETATM   12  O   UNL     1      -2.374   4.545 -33.445  1.00  0.00    -0.267 OA
ENDROOT
BRANCH   1  13
HETATM   13  N   UNL     1      -5.945   4.248 -31.169  1.00  0.00    -0.245 NA
HETATM   14  H   UNL     1      -6.141   5.174 -30.796  1.00  0.00     0.135 HD
BRANCH  13  15
HETATM   15  C   UNL     1      -7.163   3.654 -31.598  1.00  0.00     0.014 A 
HETATM   16  C   UNL     1      -8.027   2.959 -30.742  1.00  0.00     0.024 A 
HETATM   17  C   UNL     1      -9.228   2.420 -31.214  1.00  0.00     0.008 A 
HETATM   18  C   UNL     1      -9.609   2.594 -32.548  1.00  0.00    -0.062 A 
HETATM   19  C   UNL     1     -10.875   1.976 -33.064  1.00  0.00     0.048 C 
HETATM   20  C   UNL     1      -8.764   3.306 -33.403  1.00  0.00     0.008 A 
HETATM   21  C   UNL     1      -7.564   3.844 -32.927  1.00  0.00     0.024 A 
ENDBRANCH  13  15
ENDBRANCH   1  13
BRANCH   1  22
HETATM   22  N   UNL     1      -4.284   3.066 -32.374  1.00  0.00    -0.379 N 
HETATM   23  H   UNL     1      -3.890   3.130 -33.323  1.00  0.00     0.160 HD
BRANCH  22  24
HETATM   24  C   UNL     1      -3.511   2.158 -31.524  1.00  0.00     0.125 C 
BRANCH  24  25
HETATM   25  C   UNL     1      -4.413   1.054 -30.964  1.00  0.00     0.061 C 
BRANCH  25  26
HETATM   26  C   UNL     1      -4.513  -0.115 -31.898  1.00  0.00    -0.022 A 
HETATM   27  C   UNL     1      -5.661  -0.479 -32.675  1.00  0.00    -0.000 A 
HETATM   28  C   UNL     1      -5.343  -1.636 -33.383  1.00  0.00     0.058 A 
HETATM   29  C   UNL     1      -6.949   0.074 -32.827  1.00  0.00     0.014 A 
HETATM   30  C   UNL     1      -6.249  -2.289 -34.247  1.00  0.00     0.075 A 
HETATM   31  N   UNL     1      -4.041  -1.955 -33.059  1.00  0.00    -0.358 N 
HETATM   32  C   UNL     1      -7.526  -1.703 -34.367  1.00  0.00     0.018 A 
HETATM   33  C   UNL     1      -7.872  -0.546 -33.673  1.00  0.00     0.002 A 
HETATM   34  H   UNL     1      -3.541  -2.752 -33.432  1.00  0.00     0.166 HD
HETATM   35  C   UNL     1      -3.529  -1.055 -32.159  1.00  0.00     0.013 A 
HETATM   36  C   UNL     1      -2.143  -1.181 -31.639  1.00  0.00     0.068 C 
BRANCH  30  37
HETATM   37  C   UNL     1      -5.927  -3.541 -35.020  1.00  0.00     0.419 C 
HETATM   38  F   UNL     1      -5.342  -4.511 -34.257  1.00  0.00    -0.166 F 
HETATM   39  F   UNL     1      -7.032  -4.120 -35.568  1.00  0.00    -0.166 F 
HETATM   40  F   UNL     1      -5.070  -3.317 -36.054  1.00  0.00    -0.166 F 
ENDBRANCH  30  37
ENDBRANCH  25  26
ENDBRANCH  24  25
ENDBRANCH  22  24
ENDBRANCH   1  22
TORSDOF 7
ENDMDL
MODEL 5
REMARK VINA RESULT:      -8.6      2.593      3.638
REMARK  7 active torsions:
REMARK  status: ('A' for Active; 'I' for Inactive)
REMARK    1  A    between atoms: C_5  and  N_6 
REMARK    2  A    between atoms: N_6  and  C_7 
REMARK    3  A    between atoms: C_7  and  N_8 
REMARK    4  A    between atoms: N_8  and  C_9 
REMARK    5  A    between atoms: C_9  and  C_10 
REMARK    6  A    between atoms: C_10  and  C_11 
REMARK    7  A    between atoms: C_14  and  C_15 
ROOT
HETATM    1  C   UNL     1      -9.251   2.427 -31.744  1.00  0.00     0.102 C 
HETATM    2  C   UNL     1     -10.341   2.477 -32.562  1.00  0.00     0.139 C 
HETATM    3  C   UNL     1     -10.879   1.248 -33.194  1.00  0.00     0.270 C 
HETATM    4  O   UNL     1     -10.167   0.339 -33.612  1.00  0.00    -0.267 OA
HETATM    5  N   UNL     1     -12.253   1.251 -33.346  1.00  0.00    -0.270 N 
HETATM    6  C   UNL     1     -12.883  -0.007 -33.701  1.00  0.00     0.164 C 
HETATM    7  C   UNL     1     -12.999   2.405 -33.518  1.00  0.00     0.333 C 
HETATM    8  O   UNL     1     -14.198   2.362 -33.806  1.00  0.00    -0.246 OA
HETATM    9  N   UNL     1     -12.324   3.608 -33.373  1.00  0.00    -0.270 N 
HETATM   10  C   UNL     1     -13.073   4.832 -33.603  1.00  0.00     0.164 C 
HETATM   11  C   UNL     1     -11.067   3.745 -32.803  1.00  0.00     0.270 C 
HETATM   12  O   UNL     1     -10.607   4.838 -32.466  1.00  0.00    -0.267 OA
ENDROOT
BRANCH   1  13
HETATM   13  N   UNL     1      -8.672   1.214 -31.398  1.00  0.00    -0.245 NA
HETATM   14  H   UNL     1      -9.337   0.462 -31.559  1.00  0.00     0.135 HD
BRANCH  13  15
HETATM   15  C   UNL     1      -7.386   0.796 -31.837  1.00  0.00     0.014 A 
HETATM   16  C   UNL     1      -6.846   1.144 -33.082  1.00  0.00     0.024 A 
HETATM   17  C   UNL     1      -5.561   0.729 -33.449  1.00  0.00     0.008 A 
HETATM   18  C   UNL     1      -4.775  -0.016 -32.565  1.00  0.00    -0.062 A 
HETATM   19  C   UNL     1      -3.416  -0.499 -32.978  1.00  0.00     0.048 C 
HETATM   20  C   UNL     1      -5.298  -0.347 -31.312  1.00  0.00     0.008 A 
HETATM   21  C   UNL     1      -6.582   0.071 -30.948  1.00  0.00     0.024 A 
ENDBRANCH  13  15
ENDBRANCH   1  13
BRANCH   1  22
HETATM   22  N   UNL     1      -8.632   3.577 -31.247  1.00  0.00    -0.379 N 
HETATM   23  H   UNL     1      -9.218   4.413 -31.380  1.00  0.00     0.160 HD
BRANCH  22  24
HETATM   24  C   UNL     1      -7.893   3.626 -29.984  1.00  0.00     0.125 C 
BRANCH  24  25
HETATM   25  C   UNL     1      -7.093   4.928 -29.882  1.00  0.00     0.061 C 
BRANCH  25  26
HETATM   26  C   UNL     1      -6.305   5.200 -31.129  1.00  0.00    -0.022 A 
HETATM   27  C   UNL     1      -5.114   4.517 -31.540  1.00  0.00    -0.000 A 
HETATM   28  C   UNL     1      -4.689   5.092 -32.736  1.00  0.00     0.058 A 
HETATM   29  C   UNL     1      -4.357   3.463 -30.990  1.00  0.00     0.014 A 
HETATM   30  C   UNL     1      -3.532   4.674 -33.427  1.00  0.00     0.075 A 
HETATM   31  N   UNL     1      -5.599   6.080 -33.047  1.00  0.00    -0.358 N 
HETATM   32  C   UNL     1      -2.802   3.620 -32.840  1.00  0.00     0.018 A 
HETATM   33  C   UNL     1      -3.204   3.024 -31.646  1.00  0.00     0.002 A 
HETATM   34  H   UNL     1      -5.544   6.665 -33.871  1.00  0.00     0.166 HD
HETATM   35  C   UNL     1      -6.573   6.165 -32.085  1.00  0.00     0.013 A 
HETATM   36  C   UNL     1      -7.671   7.162 -32.178  1.00  0.00     0.068 C 
BRANCH  30  37
HETATM   37  C   UNL     1      -3.052   5.283 -34.720  1.00  0.00     0.419 C 
HETATM   38  F   UNL     1      -3.976   5.215 -35.723  1.00  0.00    -0.166 F 
HETATM   39  F   UNL     1      -2.740   6.603 -34.595  1.00  0.00    -0.166 F 
HETATM   40  F   UNL     1      -1.933   4.677 -35.205  1.00  0.00    -0.166 F 
ENDBRANCH  30  37
ENDBRANCH  25  26
ENDBRANCH  24  25
ENDBRANCH  22  24
ENDBRANCH   1  22
TORSDOF 7
ENDMDL
MODEL 6
REMARK VINA RESULT:      -8.4      2.853      6.058
REMARK  7 active torsions:
REMARK  status: ('A' for Active; 'I' for Inactive)
REMARK    1  A    between atoms: C_5  and  N_6 
REMARK    2  A    between atoms: N_6  and  C_7 
REMARK    3  A    between atoms: C_7  and  N_8 
REMARK    4  A    between atoms: N_8  and  C_9 
REMARK    5  A    between atoms: C_9  and  C_10 
REMARK    6  A    between atoms: C_10  and  C_11 
REMARK    7  A    between atoms: C_14  and  C_15 
ROOT
HETATM    1  C   UNL     1      -8.824   2.588 -33.166  1.00  0.00     0.102 C 
HETATM    2  C   UNL     1      -8.044   3.563 -32.617  1.00  0.00     0.139 C 
HETATM    3  C   UNL     1      -8.120   4.963 -33.097  1.00  0.00     0.270 C 
HETATM    4  O   UNL     1      -8.277   5.263 -34.278  1.00  0.00    -0.267 OA
HETATM    5  N   UNL     1      -7.917   5.907 -32.107  1.00  0.00    -0.270 N 
HETATM    6  C   UNL     1      -8.240   7.284 -32.430  1.00  0.00     0.164 C 
HETATM    7  C   UNL     1      -7.129   5.685 -30.991  1.00  0.00     0.333 C 
HETATM    8  O   UNL     1      -6.843   6.595 -30.210  1.00  0.00    -0.246 OA
HETATM    9  N   UNL     1      -6.659   4.392 -30.810  1.00  0.00    -0.270 N 
HETATM   10  C   UNL     1      -5.784   4.146 -29.676  1.00  0.00     0.164 C 
HETATM   11  C   UNL     1      -7.138   3.277 -31.480  1.00  0.00     0.270 C 
HETATM   12  O   UNL     1      -6.879   2.126 -31.123  1.00  0.00    -0.267 OA
ENDROOT
BRANCH   1  13
HETATM   13  N   UNL     1      -9.783   2.894 -34.122  1.00  0.00    -0.245 NA
HETATM   14  H   UNL     1      -9.428   2.657 -35.046  1.00  0.00     0.135 HD
BRANCH  13  15
HETATM   15  C   UNL     1     -11.145   2.496 -34.033  1.00  0.00     0.014 A 
HETATM   16  C   UNL     1     -11.709   1.490 -34.828  1.00  0.00     0.024 A 
HETATM   17  C   UNL     1     -13.049   1.120 -34.675  1.00  0.00     0.008 A 
HETATM   18  C   UNL     1     -13.847   1.725 -33.699  1.00  0.00    -0.062 A 
HETATM   19  C   UNL     1     -15.296   1.360 -33.567  1.00  0.00     0.048 C 
HETATM   20  C   UNL     1     -13.285   2.714 -32.886  1.00  0.00     0.008 A 
HETATM   21  C   UNL     1     -11.945   3.081 -33.042  1.00  0.00     0.024 A 
ENDBRANCH  13  15
ENDBRANCH   1  13
BRANCH   1  22
HETATM   22  N   UNL     1      -8.679   1.237 -32.840  1.00  0.00    -0.379 N 
HETATM   23  H   UNL     1      -9.435   0.911 -32.221  1.00  0.00     0.160 HD
BRANCH  22  24
HETATM   24  C   UNL     1      -8.276   0.204 -33.796  1.00  0.00     0.125 C 
BRANCH  24  25
HETATM   25  C   UNL     1      -6.884   0.508 -34.358  1.00  0.00     0.061 C 
BRANCH  25  26
HETATM   26  C   UNL     1      -5.902  -0.581 -34.041  1.00  0.00    -0.022 A 
HETATM   27  C   UNL     1      -6.019  -1.959 -34.419  1.00  0.00    -0.000 A 
HETATM   28  C   UNL     1      -4.913  -2.633 -33.906  1.00  0.00     0.058 A 
HETATM   29  C   UNL     1      -6.978  -2.691 -35.148  1.00  0.00     0.014 A 
HETATM   30  C   UNL     1      -4.704  -4.018 -34.075  1.00  0.00     0.075 A 
HETATM   31  N   UNL     1      -4.144  -1.694 -33.251  1.00  0.00    -0.358 N 
HETATM   32  C   UNL     1      -5.690  -4.712 -34.808  1.00  0.00     0.018 A 
HETATM   33  C   UNL     1      -6.804  -4.064 -35.335  1.00  0.00     0.002 A 
HETATM   34  H   UNL     1      -3.271  -1.900 -32.782  1.00  0.00     0.166 HD
HETATM   35  C   UNL     1      -4.730  -0.455 -33.315  1.00  0.00     0.013 A 
HETATM   36  C   UNL     1      -4.106   0.732 -32.675  1.00  0.00     0.068 C 
BRANCH  30  37
HETATM   37  C   UNL     1      -3.517  -4.768 -33.526  1.00  0.00     0.419 C 
HETATM   38  F   UNL     1      -3.835  -6.008 -33.052  1.00  0.00    -0.166 F 
HETATM   39  F   UNL     1      -2.544  -4.967 -34.458  1.00  0.00    -0.166 F 
HETATM   40  F   UNL     1      -2.917  -4.118 -32.491  1.00  0.00    -0.166 F 
ENDBRANCH  30  37
ENDBRANCH  25  26
ENDBRANCH  24  25
ENDBRANCH  22  24
ENDBRANCH   1  22
TORSDOF 7
ENDMDL
MODEL 7
REMARK VINA RESULT:      -8.4      2.880      5.324
REMARK  7 active torsions:
REMARK  status: ('A' for Active; 'I' for Inactive)
REMARK    1  A    between atoms: C_5  and  N_6 
REMARK    2  A    between atoms: N_6  and  C_7 
REMARK    3  A    between atoms: C_7  and  N_8 
REMARK    4  A    between atoms: N_8  and  C_9 
REMARK    5  A    between atoms: C_9  and  C_10 
REMARK    6  A    between atoms: C_10  and  C_11 
REMARK    7  A    between atoms: C_14  and  C_15 
ROOT
HETATM    1  C   UNL     1      -6.712   3.996 -31.850  1.00  0.00     0.102 C 
HETATM    2  C   UNL     1      -8.002   4.341 -32.130  1.00  0.00     0.139 C 
HETATM    3  C   UNL     1      -8.431   4.630 -33.519  1.00  0.00     0.270 C 
HETATM    4  O   UNL     1      -7.726   5.221 -34.333  1.00  0.00    -0.267 OA
HETATM    5  N   UNL     1      -9.731   4.250 -33.794  1.00  0.00    -0.270 N 
HETATM    6  C   UNL     1     -10.139   4.247 -35.187  1.00  0.00     0.164 C 
HETATM    7  C   UNL     1     -10.733   4.208 -32.840  1.00  0.00     0.333 C 
HETATM    8  O   UNL     1     -11.912   4.016 -33.149  1.00  0.00    -0.246 OA
HETATM    9  N   UNL     1     -10.346   4.417 -31.524  1.00  0.00    -0.270 N 
HETATM   10  C   UNL     1     -11.388   4.434 -30.510  1.00  0.00     0.164 C 
HETATM   11  C   UNL     1      -9.036   4.379 -31.071  1.00  0.00     0.270 C 
HETATM   12  O   UNL     1      -8.751   4.321 -29.873  1.00  0.00    -0.267 OA
ENDROOT
BRANCH   1  13
HETATM   13  N   UNL     1      -5.785   3.809 -32.868  1.00  0.00    -0.245 NA
HETATM   14  H   UNL     1      -6.261   3.827 -33.767  1.00  0.00     0.135 HD
BRANCH  13  15
HETATM   15  C   UNL     1      -4.568   4.534 -32.972  1.00  0.00     0.014 A 
HETATM   16  C   UNL     1      -4.507   5.930 -33.067  1.00  0.00     0.024 A 
HETATM   17  C   UNL     1      -3.277   6.593 -33.138  1.00  0.00     0.008 A 
HETATM   18  C   UNL     1      -2.078   5.876 -33.081  1.00  0.00    -0.062 A 
HETATM   19  C   UNL     1      -0.762   6.584 -33.204  1.00  0.00     0.048 C 
HETATM   20  C   UNL     1      -2.130   4.484 -32.963  1.00  0.00     0.008 A 
HETATM   21  C   UNL     1      -3.362   3.825 -32.892  1.00  0.00     0.024 A 
ENDBRANCH  13  15
ENDBRANCH   1  13
BRANCH   1  22
HETATM   22  N   UNL     1      -6.238   3.855 -30.544  1.00  0.00    -0.379 N 
HETATM   23  H   UNL     1      -6.940   4.151 -29.850  1.00  0.00     0.160 HD
BRANCH  22  24
HETATM   24  C   UNL     1      -5.462   2.706 -30.075  1.00  0.00     0.125 C 
BRANCH  24  25
HETATM   25  C   UNL     1      -6.384   1.512 -29.803  1.00  0.00     0.061 C 
BRANCH  25  26
HETATM   26  C   UNL     1      -6.506   0.616 -31.000  1.00  0.00    -0.022 A 
HETATM   27  C   UNL     1      -5.449  -0.150 -31.592  1.00  0.00    -0.000 A 
HETATM   28  C   UNL     1      -5.979  -0.820 -32.693  1.00  0.00     0.058 A 
HETATM   29  C   UNL     1      -4.083  -0.321 -31.291  1.00  0.00     0.014 A 
HETATM   30  C   UNL     1      -5.215  -1.664 -33.528  1.00  0.00     0.075 A 
HETATM   31  N   UNL     1      -7.315  -0.485 -32.757  1.00  0.00    -0.358 N 
HETATM   32  C   UNL     1      -3.852  -1.803 -33.191  1.00  0.00     0.018 A 
HETATM   33  C   UNL     1      -3.295  -1.148 -32.095  1.00  0.00     0.002 A 
HETATM   34  H   UNL     1      -7.956  -0.832 -33.460  1.00  0.00     0.166 HD
HETATM   35  C   UNL     1      -7.647   0.386 -31.750  1.00  0.00     0.013 A 
HETATM   36  C   UNL     1      -9.029   0.912 -31.603  1.00  0.00     0.068 C 
BRANCH  30  37
HETATM   37  C   UNL     1      -5.766  -2.396 -34.724  1.00  0.00     0.419 C 
HETATM   38  F   UNL     1      -6.387  -1.574 -35.620  1.00  0.00    -0.166 F 
HETATM   39  F   UNL     1      -4.803  -3.051 -35.430  1.00  0.00    -0.166 F 
HETATM   40  F   UNL     1      -6.689  -3.338 -34.385  1.00  0.00    -0.166 F 
ENDBRANCH  30  37
ENDBRANCH  25  26
ENDBRANCH  24  25
ENDBRANCH  22  24
ENDBRANCH   1  22
TORSDOF 7
ENDMDL
MODEL 8
REMARK VINA RESULT:      -8.3      3.830      6.628
REMARK  7 active torsions:
REMARK  status: ('A' for Active; 'I' for Inactive)
REMARK    1  A    between atoms: C_5  and  N_6 
REMARK    2  A    between atoms: N_6  and  C_7 
REMARK    3  A    between atoms: C_7  and  N_8 
REMARK    4  A    between atoms: N_8  and  C_9 
REMARK    5  A    between atoms: C_9  and  C_10 
REMARK    6  A    between atoms: C_10  and  C_11 
REMARK    7  A    between atoms: C_14  and  C_15 
ROOT
HETATM    1  C   UNL     1      -5.616   3.789 -30.513  1.00  0.00     0.102 C 
HETATM    2  C   UNL     1      -6.776   4.362 -30.082  1.00  0.00     0.139 C 
HETATM    3  C   UNL     1      -6.767   5.657 -29.360  1.00  0.00     0.270 C 
HETATM    4  O   UNL     1      -5.899   5.970 -28.549  1.00  0.00    -0.267 OA
HETATM    5  N   UNL     1      -7.869   6.450 -29.618  1.00  0.00    -0.270 N 
HETATM    6  C   UNL     1      -7.811   7.830 -29.172  1.00  0.00     0.164 C 
HETATM    7  C   UNL     1      -9.114   5.943 -29.949  1.00  0.00     0.333 C 
HETATM    8  O   UNL     1     -10.109   6.668 -30.019  1.00  0.00    -0.246 OA
HETATM    9  N   UNL     1      -9.188   4.576 -30.174  1.00  0.00    -0.270 N 
HETATM   10  C   UNL     1     -10.494   4.011 -30.469  1.00  0.00     0.164 C 
HETATM   11  C   UNL     1      -8.093   3.748 -30.370  1.00  0.00     0.270 C 
HETATM   12  O   UNL     1      -8.199   2.601 -30.810  1.00  0.00    -0.267 OA
ENDROOT
BRANCH   1  13
HETATM   13  N   UNL     1      -4.400   4.447 -30.377  1.00  0.00    -0.245 NA
HETATM   14  H   UNL     1      -3.860   4.011 -29.634  1.00  0.00     0.135 HD
BRANCH  13  15
HETATM   15  C   UNL     1      -3.535   4.744 -31.466  1.00  0.00     0.014 A 
HETATM   16  C   UNL     1      -2.139   4.677 -31.382  1.00  0.00     0.024 A 
HETATM   17  C   UNL     1      -1.338   4.952 -32.496  1.00  0.00     0.008 A 
HETATM   18  C   UNL     1      -1.919   5.268 -33.728  1.00  0.00    -0.062 A 
HETATM   19  C   UNL     1      -1.058   5.607 -34.909  1.00  0.00     0.048 C 
HETATM   20  C   UNL     1      -3.312   5.313 -33.825  1.00  0.00     0.008 A 
HETATM   21  C   UNL     1      -4.109   5.037 -32.710  1.00  0.00     0.024 A 
ENDBRANCH  13  15
ENDBRANCH   1  13
BRANCH   1  22
HETATM   22  N   UNL     1      -5.571   2.507 -31.068  1.00  0.00    -0.379 N 
HETATM   23  H   UNL     1      -5.916   2.501 -32.038  1.00  0.00     0.160 HD
BRANCH  22  24
HETATM   24  C   UNL     1      -4.460   1.574 -30.879  1.00  0.00     0.125 C 
BRANCH  24  25
HETATM   25  C   UNL     1      -3.780   1.273 -32.219  1.00  0.00     0.061 C 
BRANCH  25  26
HETATM   26  C   UNL     1      -4.127  -0.094 -32.729  1.00  0.00    -0.022 A 
HETATM   27  C   UNL     1      -5.242  -0.424 -33.567  1.00  0.00    -0.000 A 
HETATM   28  C   UNL     1      -5.214  -1.800 -33.785  1.00  0.00     0.058 A 
HETATM   29  C   UNL     1      -6.279   0.331 -34.150  1.00  0.00     0.014 A 
HETATM   30  C   UNL     1      -6.177  -2.481 -34.561  1.00  0.00     0.075 A 
HETATM   31  N   UNL     1      -4.111  -2.286 -33.115  1.00  0.00    -0.358 N 
HETATM   32  C   UNL     1      -7.198  -1.687 -35.123  1.00  0.00     0.018 A 
HETATM   33  C   UNL     1      -7.251  -0.309 -34.923  1.00  0.00     0.002 A 
HETATM   34  H   UNL     1      -3.837  -3.260 -33.101  1.00  0.00     0.166 HD
HETATM   35  C   UNL     1      -3.451  -1.274 -32.466  1.00  0.00     0.013 A 
HETATM   36  C   UNL     1      -2.231  -1.535 -31.659  1.00  0.00     0.068 C 
BRANCH  30  37
HETATM   37  C   UNL     1      -6.167  -3.967 -34.808  1.00  0.00     0.419 C 
HETATM   38  F   UNL     1      -5.063  -4.591 -34.301  1.00  0.00    -0.166 F 
HETATM   39  F   UNL     1      -7.236  -4.601 -34.250  1.00  0.00    -0.166 F 
HETATM   40  F   UNL     1      -6.194  -4.282 -36.133  1.00  0.00    -0.166 F 
ENDBRANCH  30  37
ENDBRANCH  25  26
ENDBRANCH  24  25
ENDBRANCH  22  24
ENDBRANCH   1  22
TORSDOF 7
ENDMDL
MODEL 9
REMARK VINA RESULT:      -8.0      3.535      6.428
REMARK  7 active torsions:
REMARK  status: ('A' for Active; 'I' for Inactive)
REMARK    1  A    between atoms: C_5  and  N_6 
REMARK    2  A    between atoms: N_6  and  C_7 
REMARK    3  A    between atoms: C_7  and  N_8 
REMARK    4  A    between atoms: N_8  and  C_9 
REMARK    5  A    between atoms: C_9  and  C_10 
REMARK    6  A    between atoms: C_10  and  C_11 
REMARK    7  A    between atoms: C_14  and  C_15 
ROOT
HETATM    1  C   UNL     1      -7.601   3.688 -31.230  1.00  0.00     0.102 C 
HETATM    2  C   UNL     1      -7.325   4.915 -30.702  1.00  0.00     0.139 C 
HETATM    3  C   UNL     1      -8.347   5.661 -29.928  1.00  0.00     0.270 C 
HETATM    4  O   UNL     1      -9.541   5.662 -30.216  1.00  0.00    -0.267 OA
HETATM    5  N   UNL     1      -7.824   6.423 -28.900  1.00  0.00    -0.270 N 
HETATM    6  C   UNL     1      -8.763   6.963 -27.934  1.00  0.00     0.164 C 
HETATM    7  C   UNL     1      -6.555   6.974 -28.926  1.00  0.00     0.333 C 
HETATM    8  O   UNL     1      -6.179   7.774 -28.067  1.00  0.00    -0.246 OA
HETATM    9  N   UNL     1      -5.736   6.596 -29.982  1.00  0.00    -0.270 N 
HETATM   10  C   UNL     1      -4.418   7.203 -30.062  1.00  0.00     0.164 C 
HETATM   11  C   UNL     1      -5.981   5.524 -30.825  1.00  0.00     0.270 C 
HETATM   12  O   UNL     1      -5.122   5.068 -31.584  1.00  0.00    -0.267 OA
ENDROOT
BRANCH   1  13
HETATM   13  N   UNL     1      -8.811   3.056 -30.976  1.00  0.00    -0.245 NA
HETATM   14  H   UNL     1      -9.342   3.600 -30.300  1.00  0.00     0.135 HD
BRANCH  13  15
HETATM   15  C   UNL     1      -9.690   2.592 -31.993  1.00  0.00     0.014 A 
HETATM   16  C   UNL     1      -9.762   1.254 -32.399  1.00  0.00     0.024 A 
HETATM   17  C   UNL     1     -10.669   0.850 -33.384  1.00  0.00     0.008 A 
HETATM   18  C   UNL     1     -11.548   1.771 -33.962  1.00  0.00    -0.062 A 
HETATM   19  C   UNL     1     -12.488   1.345 -35.051  1.00  0.00     0.048 C 
HETATM   20  C   UNL     1     -11.498   3.104 -33.545  1.00  0.00     0.008 A 
HETATM   21  C   UNL     1     -10.591   3.504 -32.559  1.00  0.00     0.024 A 
ENDBRANCH  13  15
ENDBRANCH   1  13
BRANCH   1  22
HETATM   22  N   UNL     1      -6.716   3.021 -32.081  1.00  0.00    -0.379 N 
HETATM   23  H   UNL     1      -6.135   3.679 -32.618  1.00  0.00     0.160 HD
BRANCH  22  24
HETATM   24  C   UNL     1      -5.971   1.818 -31.705  1.00  0.00     0.125 C 
BRANCH  24  25
HETATM   25  C   UNL     1      -4.990   1.427 -32.816  1.00  0.00     0.061 C 
BRANCH  25  26
HETATM   26  C   UNL     1      -5.361   0.123 -33.457  1.00  0.00    -0.022 A 
HETATM   27  C   UNL     1      -4.733  -1.143 -33.219  1.00  0.00    -0.000 A 
HETATM   28  C   UNL     1      -5.361  -2.085 -34.031  1.00  0.00     0.058 A 
HETATM   29  C   UNL     1      -3.675  -1.565 -32.388  1.00  0.00     0.014 A 
HETATM   30  C   UNL     1      -4.989  -3.446 -34.067  1.00  0.00     0.075 A 
HETATM   31  N   UNL     1      -6.347  -1.417 -34.726  1.00  0.00    -0.358 N 
HETATM   32  C   UNL     1      -3.924  -3.823 -33.223  1.00  0.00     0.018 A 
HETATM   33  C   UNL     1      -3.279  -2.904 -32.399  1.00  0.00     0.002 A 
HETATM   34  H   UNL     1      -6.970  -1.855 -35.392  1.00  0.00     0.166 HD
HETATM   35  C   UNL     1      -6.355  -0.085 -34.399  1.00  0.00     0.013 A 
HETATM   36  C   UNL     1      -7.318   0.861 -35.020  1.00  0.00     0.068 C 
BRANCH  30  37
HETATM   37  C   UNL     1      -5.652  -4.481 -34.939  1.00  0.00     0.419 C 
HETATM   38  F   UNL     1      -6.944  -4.742 -34.580  1.00  0.00    -0.166 F 
HETATM   39  F   UNL     1      -5.701  -4.113 -36.249  1.00  0.00    -0.166 F 
HETATM   40  F   UNL     1      -5.011  -5.683 -34.911  1.00  0.00    -0.166 F 
ENDBRANCH  30  37
ENDBRANCH  25  26
ENDBRANCH  24  25
ENDBRANCH  22  24
ENDBRANCH   1  22
TORSDOF 7
ENDMDL
MODEL 10
REMARK VINA RESULT:      -7.9      4.745      8.171
REMARK  7 active torsions:
REMARK  status: ('A' for Active; 'I' for Inactive)
REMARK    1  A    between atoms: C_5  and  N_6 
REMARK    2  A    between atoms: N_6  and  C_7 
REMARK    3  A    between atoms: C_7  and  N_8 
REMARK    4  A    between atoms: N_8  and  C_9 
REMARK    5  A    between atoms: C_9  and  C_10 
REMARK    6  A    between atoms: C_10  and  C_11 
REMARK    7  A    between atoms: C_14  and  C_15 
ROOT
HETATM    1  C   UNL     1      -4.509   4.277 -31.194  1.00  0.00     0.102 C 
HETATM    2  C   UNL     1      -3.573   5.258 -31.344  1.00  0.00     0.139 C 
HETATM    3  C   UNL     1      -2.704   5.307 -32.545  1.00  0.00     0.270 C 
HETATM    4  O   UNL     1      -2.252   4.303 -33.090  1.00  0.00    -0.267 OA
HETATM    5  N   UNL     1      -2.379   6.588 -32.949  1.00  0.00    -0.270 N 
HETATM    6  C   UNL     1      -1.765   6.734 -34.256  1.00  0.00     0.164 C 
HETATM    7  C   UNL     1      -2.283   7.662 -32.080  1.00  0.00     0.333 C 
HETATM    8  O   UNL     1      -1.840   8.752 -32.447  1.00  0.00    -0.246 OA
HETATM    9  N   UNL     1      -2.689   7.440 -30.772  1.00  0.00    -0.270 N 
HETATM   10  C   UNL     1      -2.546   8.535 -29.827  1.00  0.00     0.164 C 
HETATM   11  C   UNL     1      -3.429   6.346 -30.350  1.00  0.00     0.270 C 
HETATM   12  O   UNL     1      -3.980   6.303 -29.248  1.00  0.00    -0.267 OA
ENDROOT
BRANCH   1  13
HETATM   13  N   UNL     1      -4.745   3.353 -32.203  1.00  0.00    -0.245 NA
HETATM   14  H   UNL     1      -4.436   3.736 -33.093  1.00  0.00     0.135 HD
BRANCH  13  15
HETATM   15  C   UNL     1      -4.363   1.985 -32.130  1.00  0.00     0.014 A 
HETATM   16  C   UNL     1      -3.354   1.511 -31.284  1.00  0.00     0.024 A 
HETATM   17  C   UNL     1      -3.041   0.149 -31.231  1.00  0.00     0.008 A 
HETATM   18  C   UNL     1      -3.755  -0.775 -32.001  1.00  0.00    -0.062 A 
HETATM   19  C   UNL     1      -3.388  -2.229 -31.978  1.00  0.00     0.048 C 
HETATM   20  C   UNL     1      -4.780  -0.312 -32.830  1.00  0.00     0.008 A 
HETATM   21  C   UNL     1      -5.090   1.051 -32.879  1.00  0.00     0.024 A 
ENDBRANCH  13  15
ENDBRANCH   1  13
BRANCH   1  22
HETATM   22  N   UNL     1      -5.245   4.115 -30.017  1.00  0.00    -0.379 N 
HETATM   23  H   UNL     1      -4.693   4.367 -29.185  1.00  0.00     0.160 HD
BRANCH  22  24
HETATM   24  C   UNL     1      -6.651   4.498 -29.874  1.00  0.00     0.125 C 
BRANCH  24  25
HETATM   25  C   UNL     1      -7.527   3.256 -29.684  1.00  0.00     0.061 C 
BRANCH  25  26
HETATM   26  C   UNL     1      -8.671   3.225 -30.654  1.00  0.00    -0.022 A 
HETATM   27  C   UNL     1      -8.993   2.148 -31.544  1.00  0.00    -0.000 A 
HETATM   28  C   UNL     1     -10.108   2.534 -32.287  1.00  0.00     0.058 A 
HETATM   29  C   UNL     1      -8.424   0.882 -31.788  1.00  0.00     0.014 A 
HETATM   30  C   UNL     1     -10.697   1.719 -33.277  1.00  0.00     0.075 A 
HETATM   31  N   UNL     1     -10.459   3.794 -31.851  1.00  0.00    -0.358 N 
HETATM   32  C   UNL     1     -10.093   0.462 -33.490  1.00  0.00     0.018 A 
HETATM   33  C   UNL     1      -8.980   0.049 -32.762  1.00  0.00     0.002 A 
HETATM   34  H   UNL     1     -11.241   4.324 -32.214  1.00  0.00     0.166 HD
HETATM   35  C   UNL     1      -9.599   4.229 -30.875  1.00  0.00     0.013 A 
HETATM   36  C   UNL     1      -9.752   5.566 -30.245  1.00  0.00     0.068 C 
BRANCH  30  37
HETATM   37  C   UNL     1     -11.900   2.117 -34.093  1.00  0.00     0.419 C 
HETATM   38  F   UNL     1     -11.747   3.314 -34.732  1.00  0.00    -0.166 F 
HETATM   39  F   UNL     1     -12.195   1.214 -35.070  1.00  0.00    -0.166 F 
HETATM   40  F   UNL     1     -13.029   2.239 -33.342  1.00  0.00    -0.166 F 
ENDBRANCH  30  37
ENDBRANCH  25  26
ENDBRANCH  24  25
ENDBRANCH  22  24
ENDBRANCH   1  22
TORSDOF 7
ENDMDL
