MODEL 1
REMARK VINA RESULT:      -8.7      0.000      0.000
REMARK  7 active torsions:
REMARK  status: ('A' for Active; 'I' for Inactive)
REMARK    1  A    between atoms: C_2  and  O_3 
REMARK    2  A    between atoms: O_3  and  C_4 
REMARK    3  A    between atoms: C_5  and  N_6 
REMARK    4  A    between atoms: N_9  and  C_11 
REMARK    5  A    between atoms: C_11  and  C_12 
REMARK       I    between atoms: C_12  and  N_13 
REMARK    6  A    between atoms: N_13  and  C_14 
REMARK    7  A    between atoms: C_15  and  C_16 
ROOT
HETATM    1  C   UNL     1      -5.107   6.276 -30.232  1.00  0.00     0.275 C 
HETATM    2  C   UNL     1      -6.426   6.408 -29.480  1.00  0.00     0.050 C 
ENDROOT
BRANCH   1   3
HETATM    3  N   UNL     1      -4.709   4.793 -30.386  1.00  0.00    -0.056 N 
HETATM    4  C   UNL     1      -5.830   3.781 -30.112  1.00  0.00     0.255 C 
HETATM    5  C   UNL     1      -5.242   2.354 -30.085  1.00  0.00     0.150 C 
HETATM    6  N   UNL     1      -4.542   2.061 -31.349  1.00  0.00    -0.375 N 
HETATM    7  C   UNL     1      -3.456   3.011 -31.673  1.00  0.00     0.150 C 
HETATM    8  C   UNL     1      -3.977   4.465 -31.679  1.00  0.00     0.255 C 
HETATM    9  H   UNL     1      -4.048   4.638 -29.607  1.00  0.00     0.281 HD
BRANCH   6  10
HETATM   10  C   UNL     1      -5.200   1.401 -32.400  1.00  0.00     0.064 A 
HETATM   11  C   UNL     1      -5.132  -0.010 -32.579  1.00  0.00     0.095 A 
HETATM   12  C   UNL     1      -5.821  -0.633 -33.635  1.00  0.00     0.039 A 
HETATM   13  C   UNL     1      -6.587   0.112 -34.527  1.00  0.00     0.003 A 
HETATM   14  C   UNL     1      -6.684   1.484 -34.363  1.00  0.00     0.002 A 
HETATM   15  C   UNL     1      -6.008   2.111 -33.313  1.00  0.00     0.032 A 
BRANCH  11  16
HETATM   16  O   UNL     1      -4.428  -0.727 -31.638  1.00  0.00    -0.349 OA
BRANCH  16  17
HETATM   17  C   UNL     1      -3.127  -1.195 -31.990  1.00  0.00     0.171 C 
HETATM   18  C   UNL     1      -3.158  -2.713 -31.979  1.00  0.00     0.034 C 
ENDBRANCH  16  17
ENDBRANCH  11  16
ENDBRANCH   6  10
ENDBRANCH   1   3
BRANCH   1  19
HETATM   19  C   UNL     1      -3.949   7.059 -29.563  1.00  0.00     0.253 C 
HETATM   20  N   UNL     1      -2.827   6.318 -29.269  1.00  0.00    -0.325 N 
HETATM   21  H   UNL     1      -2.906   5.306 -29.235  1.00  0.00     0.169 HD
HETATM   22  O   UNL     1      -4.121   8.252 -29.311  1.00  0.00    -0.271 OA
BRANCH  20  23
HETATM   23  C   UNL     1      -1.543   6.818 -28.923  1.00  0.00     0.045 A 
HETATM   24  C   UNL     1      -0.628   7.121 -29.962  1.00  0.00     0.001 A 
HETATM   25  C   UNL     1       0.607   7.709 -29.629  1.00  0.00     0.014 A 
HETATM   26  C   UNL     1       0.937   7.989 -28.303  1.00  0.00     0.001 A 
HETATM   27  C   UNL     1       0.041   7.675 -27.289  1.00  0.00     0.002 A 
HETATM   28  C   UNL     1      -1.191   7.093 -27.595  1.00  0.00     0.030 A 
BRANCH  24  29
HETATM   29  C   UNL     1      -0.899   6.811 -31.376  1.00  0.00    -0.024 A 
HETATM   30  C   UNL     1      -0.593   5.551 -31.911  1.00  0.00     0.012 A 
HETATM   31  C   UNL     1      -0.856   5.263 -33.253  1.00  0.00     0.001 A 
HETATM   32  C   UNL     1      -1.429   6.231 -34.076  1.00  0.00     0.000 A 
HETATM   33  C   UNL     1      -1.744   7.486 -33.559  1.00  0.00     0.001 A 
HETATM   34  C   UNL     1      -1.483   7.772 -32.218  1.00  0.00     0.012 A 
ENDBRANCH  24  29
ENDBRANCH  20  23
ENDBRANCH   1  19
TORSDOF 7
ENDMDL
MODEL 2
REMARK VINA RESULT:      -8.4      3.932      8.910
REMARK  7 active torsions:
REMARK  status: ('A' for Active; 'I' for Inactive)
REMARK    1  A    between atoms: C_2  and  O_3 
REMARK    2  A    between atoms: O_3  and  C_4 
REMARK    3  A    between atoms: C_5  and  N_6 
REMARK    4  A    between atoms: N_9  and  C_11 
REMARK    5  A    between atoms: C_11  and  C_12 
REMARK       I    between atoms: C_12  and  N_13 
REMARK    6  A    between atoms: N_13  and  C_14 
REMARK    7  A    between atoms: C_15  and  C_16 
ROOT
HETATM    1  C   UNL     1      -3.407   0.555 -32.172  1.00  0.00     0.275 C 
HETATM    2  C   UNL     1      -2.648   0.416 -30.858  1.00  0.00     0.050 C 
ENDROOT
BRANCH   1   3
HETATM    3  N   UNL     1      -4.132   1.915 -32.245  1.00  0.00    -0.056 N 
HETATM    4  C   UNL     1      -5.339   1.964 -33.193  1.00  0.00     0.255 C 
HETATM    5  C   UNL     1      -5.825   3.422 -33.334  1.00  0.00     0.150 C 
HETATM    6  N   UNL     1      -6.148   3.989 -32.013  1.00  0.00    -0.375 N 
HETATM    7  C   UNL     1      -5.025   3.959 -31.052  1.00  0.00     0.150 C 
HETATM    8  C   UNL     1      -4.470   2.526 -30.893  1.00  0.00     0.255 C 
HETATM    9  H   UNL     1      -3.442   2.534 -32.702  1.00  0.00     0.281 HD
BRANCH   6  10
HETATM   10  C   UNL     1      -7.463   3.961 -31.519  1.00  0.00     0.064 A 
HETATM   11  C   UNL     1      -8.329   5.089 -31.582  1.00  0.00     0.095 A 
HETATM   12  C   UNL     1      -9.644   5.012 -31.092  1.00  0.00     0.039 A 
HETATM   13  C   UNL     1     -10.132   3.832 -30.537  1.00  0.00     0.003 A 
HETATM   14  C   UNL     1      -9.316   2.714 -30.481  1.00  0.00     0.002 A 
HETATM   15  C   UNL     1      -8.009   2.780 -30.972  1.00  0.00     0.032 A 
BRANCH  11  16
HETATM   16  O   UNL     1      -7.842   6.217 -32.203  1.00  0.00    -0.349 OA
BRANCH  16  17
HETATM   17  C   UNL     1      -7.495   7.334 -31.385  1.00  0.00     0.171 C 
HETATM   18  C   UNL     1      -6.017   7.618 -31.585  1.00  0.00     0.034 C 
ENDBRANCH  16  17
ENDBRANCH  11  16
ENDBRANCH   6  10
ENDBRANCH   1   3
BRANCH   1  19
HETATM   19  C   UNL     1      -4.424  -0.592 -32.407  1.00  0.00     0.253 C 
HETATM   20  N   UNL     1      -4.348  -1.205 -33.636  1.00  0.00    -0.325 N 
HETATM   21  H   UNL     1      -3.866  -0.728 -34.391  1.00  0.00     0.169 HD
HETATM   22  O   UNL     1      -5.235  -0.842 -31.515  1.00  0.00    -0.271 OA
BRANCH  20  23
HETATM   23  C   UNL     1      -4.949  -2.437 -34.011  1.00  0.00     0.045 A 
HETATM   24  C   UNL     1      -6.306  -2.435 -34.422  1.00  0.00     0.001 A 
HETATM   25  C   UNL     1      -6.875  -3.635 -34.888  1.00  0.00     0.014 A 
HETATM   26  C   UNL     1      -6.130  -4.812 -34.944  1.00  0.00     0.001 A 
HETATM   27  C   UNL     1      -4.805  -4.810 -34.525  1.00  0.00     0.002 A 
HETATM   28  C   UNL     1      -4.217  -3.631 -34.061  1.00  0.00     0.030 A 
BRANCH  24  29
HETATM   29  C   UNL     1      -7.158  -1.236 -34.346  1.00  0.00    -0.024 A 
HETATM   30  C   UNL     1      -7.102  -0.245 -35.337  1.00  0.00     0.012 A 
HETATM   31  C   UNL     1      -7.915   0.888 -35.260  1.00  0.00     0.001 A 
HETATM   32  C   UNL     1      -8.795   1.044 -34.190  1.00  0.00     0.000 A 
HETATM   33  C   UNL     1      -8.867   0.067 -33.199  1.00  0.00     0.001 A 
HETATM   34  C   UNL     1      -8.055  -1.066 -33.278  1.00  0.00     0.012 A 
ENDBRANCH  24  29
ENDBRANCH  20  23
ENDBRANCH   1  19
TORSDOF 7
ENDMDL
MODEL 3
REMARK VINA RESULT:      -8.2      3.058      8.322
REMARK  7 active torsions:
REMARK  status: ('A' for Active; 'I' for Inactive)
REMARK    1  A    between atoms: C_2  and  O_3 
REMARK    2  A    between atoms: O_3  and  C_4 
REMARK    3  A    between atoms: C_5  and  N_6 
REMARK    4  A    between atoms: N_9  and  C_11 
REMARK    5  A    between atoms: C_11  and  C_12 
REMARK       I    between atoms: C_12  and  N_13 
REMARK    6  A    between atoms: N_13  and  C_14 
REMARK    7  A    between atoms: C_15  and  C_16 
ROOT
HETATM    1  C   UNL     1      -9.345   0.801 -32.887  1.00  0.00     0.275 C 
HETATM    2  C   UNL     1     -10.718   0.889 -33.542  1.00  0.00     0.050 C 
ENDROOT
BRANCH   1   3
HETATM    3  N   UNL     1      -8.848   2.198 -32.463  1.00  0.00    -0.056 N 
HETATM    4  C   UNL     1      -7.533   2.214 -31.671  1.00  0.00     0.255 C 
HETATM    5  C   UNL     1      -7.275   3.636 -31.128  1.00  0.00     0.150 C 
HETATM    6  N   UNL     1      -7.258   4.615 -32.231  1.00  0.00    -0.375 N 
HETATM    7  C   UNL     1      -8.497   4.637 -33.037  1.00  0.00     0.150 C 
HETATM    8  C   UNL     1      -8.830   3.230 -33.581  1.00  0.00     0.255 C 
HETATM    9  H   UNL     1      -9.551   2.505 -31.770  1.00  0.00     0.281 HD
BRANCH   6  10
HETATM   10  C   UNL     1      -6.050   4.997 -32.836  1.00  0.00     0.064 A 
HETATM   11  C   UNL     1      -5.089   5.816 -32.176  1.00  0.00     0.095 A 
HETATM   12  C   UNL     1      -3.883   6.160 -32.812  1.00  0.00     0.039 A 
HETATM   13  C   UNL     1      -3.598   5.708 -34.097  1.00  0.00     0.003 A 
HETATM   14  C   UNL     1      -4.507   4.894 -34.753  1.00  0.00     0.002 A 
HETATM   15  C   UNL     1      -5.706   4.541 -34.126  1.00  0.00     0.032 A 
BRANCH  11  16
HETATM   16  O   UNL     1      -5.367   6.186 -30.880  1.00  0.00    -0.349 OA
BRANCH  16  17
HETATM   17  C   UNL     1      -4.273   6.333 -29.976  1.00  0.00     0.171 C 
HETATM   18  C   UNL     1      -4.360   7.716 -29.357  1.00  0.00     0.034 C 
ENDBRANCH  16  17
ENDBRANCH  11  16
ENDBRANCH   6  10
ENDBRANCH   1   3
BRANCH   1  19
HETATM   19  C   UNL     1      -8.285   0.124 -33.794  1.00  0.00     0.253 C 
HETATM   20  N   UNL     1      -7.437  -0.752 -33.156  1.00  0.00    -0.325 N 
HETATM   21  H   UNL     1      -7.353  -0.703 -32.146  1.00  0.00     0.169 HD
HETATM   22  O   UNL     1      -8.251   0.438 -34.983  1.00  0.00    -0.271 OA
BRANCH  20  23
HETATM   23  C   UNL     1      -6.576  -1.701 -33.770  1.00  0.00     0.045 A 
HETATM   24  C   UNL     1      -5.183  -1.615 -33.526  1.00  0.00     0.001 A 
HETATM   25  C   UNL     1      -4.339  -2.612 -34.052  1.00  0.00     0.014 A 
HETATM   26  C   UNL     1      -4.852  -3.667 -34.804  1.00  0.00     0.001 A 
HETATM   27  C   UNL     1      -6.217  -3.737 -35.052  1.00  0.00     0.002 A 
HETATM   28  C   UNL     1      -7.075  -2.762 -34.539  1.00  0.00     0.030 A 
BRANCH  24  29
HETATM   29  C   UNL     1      -4.574  -0.502 -32.777  1.00  0.00    -0.024 A 
HETATM   30  C   UNL     1      -4.590   0.805 -33.284  1.00  0.00     0.012 A 
HETATM   31  C   UNL     1      -4.014   1.856 -32.566  1.00  0.00     0.001 A 
HETATM   32  C   UNL     1      -3.415   1.612 -31.331  1.00  0.00     0.000 A 
HETATM   33  C   UNL     1      -3.395   0.320 -30.811  1.00  0.00     0.001 A 
HETATM   34  C   UNL     1      -3.973  -0.729 -31.528  1.00  0.00     0.012 A 
ENDBRANCH  24  29
ENDBRANCH  20  23
ENDBRANCH   1  19
TORSDOF 7
ENDMDL
MODEL 4
REMARK VINA RESULT:      -8.2      4.360      8.675
REMARK  7 active torsions:
REMARK  status: ('A' for Active; 'I' for Inactive)
REMARK    1  A    between atoms: C_2  and  O_3 
REMARK    2  A    between atoms: O_3  and  C_4 
REMARK    3  A    between atoms: C_5  and  N_6 
REMARK    4  A    between atoms: N_9  and  C_11 
REMARK    5  A    between atoms: C_11  and  C_12 
REMARK       I    between atoms: C_12  and  N_13 
REMARK    6  A    between atoms: N_13  and  C_14 
REMARK    7  A    between atoms: C_15  and  C_16 
ROOT
HETATM    1  C   UNL     1     -10.267   0.883 -33.385  1.00  0.00     0.275 C 
HETATM    2  C   UNL     1     -11.234   1.180 -34.524  1.00  0.00     0.050 C 
ENDROOT
BRANCH   1   3
HETATM    3  N   UNL     1     -10.230   2.051 -32.377  1.00  0.00    -0.056 N 
HETATM    4  C   UNL     1      -9.051   2.032 -31.394  1.00  0.00     0.255 C 
HETATM    5  C   UNL     1      -9.260   3.118 -30.317  1.00  0.00     0.150 C 
HETATM    6  N   UNL     1      -9.423   4.442 -30.944  1.00  0.00    -0.375 N 
HETATM    7  C   UNL     1     -10.539   4.518 -31.911  1.00  0.00     0.150 C 
HETATM    8  C   UNL     1     -10.406   3.429 -32.998  1.00  0.00     0.255 C 
HETATM    9  H   UNL     1     -11.050   1.876 -31.773  1.00  0.00     0.281 HD
BRANCH   6  10
HETATM   10  C   UNL     1      -8.325   5.302 -31.108  1.00  0.00     0.064 A 
HETATM   11  C   UNL     1      -7.826   6.116 -30.052  1.00  0.00     0.095 A 
HETATM   12  C   UNL     1      -6.712   6.949 -30.255  1.00  0.00     0.039 A 
HETATM   13  C   UNL     1      -6.069   6.996 -31.488  1.00  0.00     0.003 A 
HETATM   14  C   UNL     1      -6.523   6.199 -32.526  1.00  0.00     0.002 A 
HETATM   15  C   UNL     1      -7.626   5.363 -32.333  1.00  0.00     0.032 A 
BRANCH  11  16
HETATM   16  O   UNL     1      -8.437   5.992 -28.824  1.00  0.00    -0.349 OA
BRANCH  16  17
HETATM   17  C   UNL     1      -8.738   7.186 -28.104  1.00  0.00     0.171 C 
HETATM   18  C   UNL     1      -9.988   7.796 -28.711  1.00  0.00     0.034 C 
ENDBRANCH  16  17
ENDBRANCH  11  16
ENDBRANCH   6  10
ENDBRANCH   1   3
BRANCH   1  19
HETATM   19  C   UNL     1      -8.829   0.575 -33.877  1.00  0.00     0.253 C 
HETATM   20  N   UNL     1      -8.185  -0.445 -33.215  1.00  0.00    -0.325 N 
HETATM   21  H   UNL     1      -8.536  -0.737 -32.308  1.00  0.00     0.169 HD
HETATM   22  O   UNL     1      -8.360   1.271 -34.777  1.00  0.00    -0.271 OA
BRANCH  20  23
HETATM   23  C   UNL     1      -7.001  -1.113 -33.628  1.00  0.00     0.045 A 
HETATM   24  C   UNL     1      -5.772  -0.763 -33.015  1.00  0.00     0.001 A 
HETATM   25  C   UNL     1      -4.615  -1.491 -33.350  1.00  0.00     0.014 A 
HETATM   26  C   UNL     1      -4.663  -2.536 -34.271  1.00  0.00     0.001 A 
HETATM   27  C   UNL     1      -5.867  -2.865 -34.879  1.00  0.00     0.002 A 
HETATM   28  C   UNL     1      -7.030  -2.159 -34.561  1.00  0.00     0.030 A 
BRANCH  24  29
HETATM   29  C   UNL     1      -5.648   0.359 -32.068  1.00  0.00    -0.024 A 
HETATM   30  C   UNL     1      -5.857   0.171 -30.694  1.00  0.00     0.012 A 
HETATM   31  C   UNL     1      -5.734   1.240 -29.802  1.00  0.00     0.001 A 
HETATM   32  C   UNL     1      -5.400   2.508 -30.272  1.00  0.00     0.000 A 
HETATM   33  C   UNL     1      -5.184   2.710 -31.634  1.00  0.00     0.001 A 
HETATM   34  C   UNL     1      -5.305   1.642 -32.525  1.00  0.00     0.012 A 
ENDBRANCH  24  29
ENDBRANCH  20  23
ENDBRANCH   1  19
TORSDOF 7
ENDMDL
MODEL 5
REMARK VINA RESULT:      -8.1      2.879      8.970
REMARK  7 active torsions:
REMARK  status: ('A' for Active; 'I' for Inactive)
REMARK    1  A    between atoms: C_2  and  O_3 
REMARK    2  A    between atoms: O_3  and  C_4 
REMARK    3  A    between atoms: C_5  and  N_6 
REMARK    4  A    between atoms: N_9  and  C_11 
REMARK    5  A    between atoms: C_11  and  C_12 
REMARK       I    between atoms: C_12  and  N_13 
REMARK    6  A    between atoms: N_13  and  C_14 
REMARK    7  A    between atoms: C_15  and  C_16 
ROOT
HETATM    1  C   UNL     1      -6.610   4.415 -33.634  1.00  0.00     0.275 C 
HETATM    2  C   UNL     1      -5.767   3.283 -34.209  1.00  0.00     0.050 C 
ENDROOT
BRANCH   1   3
HETATM    3  N   UNL     1      -5.911   5.057 -32.418  1.00  0.00    -0.056 N 
HETATM    4  C   UNL     1      -5.006   4.118 -31.610  1.00  0.00     0.255 C 
HETATM    5  C   UNL     1      -4.555   4.825 -30.314  1.00  0.00     0.150 C 
HETATM    6  N   UNL     1      -3.877   6.095 -30.628  1.00  0.00    -0.375 N 
HETATM    7  C   UNL     1      -4.698   7.039 -31.416  1.00  0.00     0.150 C 
HETATM    8  C   UNL     1      -5.211   6.376 -32.714  1.00  0.00     0.255 C 
HETATM    9  H   UNL     1      -6.690   5.259 -31.770  1.00  0.00     0.281 HD
BRANCH   6  10
HETATM   10  C   UNL     1      -2.479   6.157 -30.741  1.00  0.00     0.064 A 
HETATM   11  C   UNL     1      -1.674   6.948 -29.872  1.00  0.00     0.095 A 
HETATM   12  C   UNL     1      -0.275   6.967 -30.009  1.00  0.00     0.039 A 
HETATM   13  C   UNL     1       0.357   6.212 -30.993  1.00  0.00     0.003 A 
HETATM   14  C   UNL     1      -0.401   5.419 -31.839  1.00  0.00     0.002 A 
HETATM   15  C   UNL     1      -1.792   5.389 -31.706  1.00  0.00     0.032 A 
BRANCH  11  16
HETATM   16  O   UNL     1      -2.323   7.625 -28.863  1.00  0.00    -0.349 OA
BRANCH  16  17
HETATM   17  C   UNL     1      -1.578   7.951 -27.691  1.00  0.00     0.171 C 
HETATM   18  C   UNL     1      -1.837   6.870 -26.657  1.00  0.00     0.034 C 
ENDBRANCH  16  17
ENDBRANCH  11  16
ENDBRANCH   6  10
ENDBRANCH   1   3
BRANCH   1  19
HETATM   19  C   UNL     1      -8.038   3.961 -33.235  1.00  0.00     0.253 C 
HETATM   20  N   UNL     1      -8.756   3.332 -34.226  1.00  0.00    -0.325 N 
HETATM   21  H   UNL     1      -8.458   3.443 -35.190  1.00  0.00     0.169 HD
HETATM   22  O   UNL     1      -8.436   4.223 -32.100  1.00  0.00    -0.271 OA
BRANCH  20  23
HETATM   23  C   UNL     1      -9.950   2.580 -34.065  1.00  0.00     0.045 A 
HETATM   24  C   UNL     1      -9.849   1.194 -33.787  1.00  0.00     0.001 A 
HETATM   25  C   UNL     1     -11.026   0.466 -33.528  1.00  0.00     0.014 A 
HETATM   26  C   UNL     1     -12.275   1.086 -33.548  1.00  0.00     0.001 A 
HETATM   27  C   UNL     1     -12.368   2.441 -33.835  1.00  0.00     0.002 A 
HETATM   28  C   UNL     1     -11.214   3.185 -34.093  1.00  0.00     0.030 A 
BRANCH  24  29
HETATM   29  C   UNL     1      -8.565   0.473 -33.795  1.00  0.00    -0.024 A 
HETATM   30  C   UNL     1      -7.865   0.230 -32.604  1.00  0.00     0.012 A 
HETATM   31  C   UNL     1      -6.649  -0.457 -32.619  1.00  0.00     0.001 A 
HETATM   32  C   UNL     1      -6.117  -0.911 -33.826  1.00  0.00     0.000 A 
HETATM   33  C   UNL     1      -6.802  -0.682 -35.017  1.00  0.00     0.001 A 
HETATM   34  C   UNL     1      -8.019   0.003 -35.001  1.00  0.00     0.012 A 
ENDBRANCH  24  29
ENDBRANCH  20  23
ENDBRANCH   1  19
TORSDOF 7
ENDMDL
MODEL 6
REMARK VINA RESULT:      -8.1      6.164      9.242
REMARK  7 active torsions:
REMARK  status: ('A' for Active; 'I' for Inactive)
REMARK    1  A    between atoms: C_2  and  O_3 
REMARK    2  A    between atoms: O_3  and  C_4 
REMARK    3  A    between atoms: C_5  and  N_6 
REMARK    4  A    between atoms: N_9  and  C_11 
REMARK    5  A    between atoms: C_11  and  C_12 
REMARK       I    between atoms: C_12  and  N_13 
REMARK    6  A    between atoms: N_13  and  C_14 
REMARK    7  A    between atoms: C_15  and  C_16 
ROOT
HETATM    1  C   UNL     1      -9.291   1.612 -32.490  1.00  0.00     0.275 C 
HETATM    2  C   UNL     1      -9.089   1.455 -30.988  1.00  0.00     0.050 C 
ENDROOT
BRANCH   1   3
HETATM    3  N   UNL     1      -8.036   1.158 -33.263  1.00  0.00    -0.056 N 
HETATM    4  C   UNL     1      -6.947   0.490 -32.413  1.00  0.00     0.255 C 
HETATM    5  C   UNL     1      -5.676   0.292 -33.265  1.00  0.00     0.150 C 
HETATM    6  N   UNL     1      -5.981  -0.495 -34.473  1.00  0.00    -0.375 N 
HETATM    7  C   UNL     1      -7.033   0.095 -35.328  1.00  0.00     0.150 C 
HETATM    8  C   UNL     1      -8.325   0.351 -34.521  1.00  0.00     0.255 C 
HETATM    9  H   UNL     1      -7.600   2.047 -33.560  1.00  0.00     0.281 HD
BRANCH   6  10
HETATM   10  C   UNL     1      -5.795  -1.887 -34.492  1.00  0.00     0.064 A 
HETATM   11  C   UNL     1      -4.612  -2.509 -34.000  1.00  0.00     0.095 A 
HETATM   12  C   UNL     1      -4.475  -3.907 -34.021  1.00  0.00     0.039 A 
HETATM   13  C   UNL     1      -5.491  -4.718 -34.518  1.00  0.00     0.003 A 
HETATM   14  C   UNL     1      -6.661  -4.140 -34.984  1.00  0.00     0.002 A 
HETATM   15  C   UNL     1      -6.808  -2.750 -34.962  1.00  0.00     0.032 A 
BRANCH  11  16
HETATM   16  O   UNL     1      -3.657  -1.685 -33.448  1.00  0.00    -0.349 OA
BRANCH  16  17
HETATM   17  C   UNL     1      -3.227  -1.959 -32.115  1.00  0.00     0.171 C 
HETATM   18  C   UNL     1      -2.578  -0.702 -31.565  1.00  0.00     0.034 C 
ENDBRANCH  16  17
ENDBRANCH  11  16
ENDBRANCH   6  10
ENDBRANCH   1   3
BRANCH   1  19
HETATM   19  C   UNL     1      -9.662   3.060 -32.901  1.00  0.00     0.253 C 
HETATM   20  N   UNL     1     -10.151   3.203 -34.180  1.00  0.00    -0.325 N 
HETATM   21  H   UNL     1      -9.987   2.460 -34.851  1.00  0.00     0.169 HD
HETATM   22  O   UNL     1      -9.462   3.965 -32.091  1.00  0.00    -0.271 OA
BRANCH  20  23
HETATM   23  C   UNL     1     -10.817   4.339 -34.713  1.00  0.00     0.045 A 
HETATM   24  C   UNL     1     -12.233   4.389 -34.651  1.00  0.00     0.001 A 
HETATM   25  C   UNL     1     -12.891   5.555 -35.087  1.00  0.00     0.014 A 
HETATM   26  C   UNL     1     -12.174   6.645 -35.580  1.00  0.00     0.001 A 
HETATM   27  C   UNL     1     -10.788   6.583 -35.651  1.00  0.00     0.002 A 
HETATM   28  C   UNL     1     -10.112   5.438 -35.222  1.00  0.00     0.030 A 
BRANCH  24  29
HETATM   29  C   UNL     1     -13.049   3.255 -34.183  1.00  0.00    -0.024 A 
HETATM   30  C   UNL     1     -13.144   2.075 -34.934  1.00  0.00     0.012 A 
HETATM   31  C   UNL     1     -13.917   1.002 -34.482  1.00  0.00     0.001 A 
HETATM   32  C   UNL     1     -14.604   1.097 -33.273  1.00  0.00     0.000 A 
HETATM   33  C   UNL     1     -14.517   2.261 -32.513  1.00  0.00     0.001 A 
HETATM   34  C   UNL     1     -13.742   3.331 -32.963  1.00  0.00     0.012 A 
ENDBRANCH  24  29
ENDBRANCH  20  23
ENDBRANCH   1  19
TORSDOF 7
ENDMDL
MODEL 7
REMARK VINA RESULT:      -7.9      2.256      7.786
REMARK  7 active torsions:
REMARK  status: ('A' for Active; 'I' for Inactive)
REMARK    1  A    between atoms: C_2  and  O_3 
REMARK    2  A    between atoms: O_3  and  C_4 
REMARK    3  A    between atoms: C_5  and  N_6 
REMARK    4  A    between atoms: N_9  and  C_11 
REMARK    5  A    between atoms: C_11  and  C_12 
REMARK       I    between atoms: C_12  and  N_13 
REMARK    6  A    between atoms: N_13  and  C_14 
REMARK    7  A    between atoms: C_15  and  C_16 
ROOT
HETATM    1  C   UNL     1      -6.869   4.584 -32.404  1.00  0.00     0.275 C 
HETATM    2  C   UNL     1      -7.736   5.318 -33.420  1.00  0.00     0.050 C 
ENDROOT
BRANCH   1   3
HETATM    3  N   UNL     1      -5.970   5.572 -31.633  1.00  0.00    -0.056 N 
HETATM    4  C   UNL     1      -5.167   4.963 -30.475  1.00  0.00     0.255 C 
HETATM    5  C   UNL     1      -4.493   6.091 -29.665  1.00  0.00     0.150 C 
HETATM    6  N   UNL     1      -3.642   6.917 -30.540  1.00  0.00    -0.375 N 
HETATM    7  C   UNL     1      -4.359   7.523 -31.682  1.00  0.00     0.150 C 
HETATM    8  C   UNL     1      -5.087   6.445 -32.515  1.00  0.00     0.255 C 
HETATM    9  H   UNL     1      -6.645   6.194 -31.158  1.00  0.00     0.281 HD
BRANCH   6  10
HETATM   10  C   UNL     1      -2.268   6.654 -30.666  1.00  0.00     0.064 A 
HETATM   11  C   UNL     1      -1.763   5.596 -31.474  1.00  0.00     0.095 A 
HETATM   12  C   UNL     1      -0.378   5.379 -31.586  1.00  0.00     0.039 A 
HETATM   13  C   UNL     1       0.530   6.193 -30.917  1.00  0.00     0.003 A 
HETATM   14  C   UNL     1       0.065   7.242 -30.140  1.00  0.00     0.002 A 
HETATM   15  C   UNL     1      -1.310   7.469 -30.026  1.00  0.00     0.032 A 
BRANCH  11  16
HETATM   16  O   UNL     1      -2.683   4.855 -32.182  1.00  0.00    -0.349 OA
BRANCH  16  17
HETATM   17  C   UNL     1      -2.240   4.196 -33.367  1.00  0.00     0.171 C 
HETATM   18  C   UNL     1      -2.362   5.176 -34.520  1.00  0.00     0.034 C 
ENDBRANCH  16  17
ENDBRANCH  11  16
ENDBRANCH   6  10
ENDBRANCH   1   3
BRANCH   1  19
HETATM   19  C   UNL     1      -5.995   3.475 -33.044  1.00  0.00     0.253 C 
HETATM   20  N   UNL     1      -5.673   2.425 -32.215  1.00  0.00    -0.325 N 
HETATM   21  H   UNL     1      -5.764   2.550 -31.211  1.00  0.00     0.169 HD
HETATM   22  O   UNL     1      -5.626   3.624 -34.209  1.00  0.00    -0.271 OA
BRANCH  20  23
HETATM   23  C   UNL     1      -5.137   1.168 -32.603  1.00  0.00     0.045 A 
HETATM   24  C   UNL     1      -6.003   0.211 -33.188  1.00  0.00     0.001 A 
HETATM   25  C   UNL     1      -5.458  -0.997 -33.664  1.00  0.00     0.014 A 
HETATM   26  C   UNL     1      -4.092  -1.260 -33.562  1.00  0.00     0.001 A 
HETATM   27  C   UNL     1      -3.252  -0.324 -32.974  1.00  0.00     0.002 A 
HETATM   28  C   UNL     1      -3.769   0.883 -32.496  1.00  0.00     0.030 A 
BRANCH  24  29
HETATM   29  C   UNL     1      -7.459   0.410 -33.286  1.00  0.00    -0.024 A 
HETATM   30  C   UNL     1      -8.050   0.854 -34.478  1.00  0.00     0.012 A 
HETATM   31  C   UNL     1      -9.432   1.038 -34.563  1.00  0.00     0.001 A 
HETATM   32  C   UNL     1     -10.241   0.780 -33.458  1.00  0.00     0.000 A 
HETATM   33  C   UNL     1      -9.671   0.335 -32.267  1.00  0.00     0.001 A 
HETATM   34  C   UNL     1      -8.290   0.149 -32.183  1.00  0.00     0.012 A 
ENDBRANCH  24  29
ENDBRANCH  20  23
ENDBRANCH   1  19
TORSDOF 7
ENDMDL
MODEL 8
REMARK VINA RESULT:      -7.8      2.121      8.994
REMARK  7 active torsions:
REMARK  status: ('A' for Active; 'I' for Inactive)
REMARK    1  A    between atoms: C_2  and  O_3 
REMARK    2  A    between atoms: O_3  and  C_4 
REMARK    3  A    between atoms: C_5  and  N_6 
REMARK    4  A    between atoms: N_9  and  C_11 
REMARK    5  A    between atoms: C_11  and  C_12 
REMARK       I    between atoms: C_12  and  N_13 
REMARK    6  A    between atoms: N_13  and  C_14 
REMARK    7  A    between atoms: C_15  and  C_16 
ROOT
HETATM    1  C   UNL     1      -3.841   3.379 -32.708  1.00  0.00     0.275 C 
HETATM    2  C   UNL     1      -3.416   2.473 -31.559  1.00  0.00     0.050 C 
ENDROOT
BRANCH   1   3
HETATM    3  N   UNL     1      -3.768   4.863 -32.294  1.00  0.00    -0.056 N 
HETATM    4  C   UNL     1      -4.012   5.141 -30.804  1.00  0.00     0.255 C 
HETATM    5  C   UNL     1      -4.128   6.663 -30.576  1.00  0.00     0.150 C 
HETATM    6  N   UNL     1      -2.922   7.353 -31.067  1.00  0.00    -0.375 N 
HETATM    7  C   UNL     1      -2.629   7.113 -32.496  1.00  0.00     0.150 C 
HETATM    8  C   UNL     1      -2.536   5.601 -32.797  1.00  0.00     0.255 C 
HETATM    9  H   UNL     1      -4.591   5.285 -32.756  1.00  0.00     0.281 HD
BRANCH   6  10
HETATM   10  C   UNL     1      -1.859   7.651 -30.199  1.00  0.00     0.064 A 
HETATM   11  C   UNL     1      -1.903   8.736 -29.278  1.00  0.00     0.095 A 
HETATM   12  C   UNL     1      -0.823   8.987 -28.414  1.00  0.00     0.039 A 
HETATM   13  C   UNL     1       0.312   8.182 -28.435  1.00  0.00     0.003 A 
HETATM   14  C   UNL     1       0.372   7.108 -29.308  1.00  0.00     0.002 A 
HETATM   15  C   UNL     1      -0.699   6.846 -30.166  1.00  0.00     0.032 A 
BRANCH  11  16
HETATM   16  O   UNL     1      -3.068   9.468 -29.231  1.00  0.00    -0.349 OA
BRANCH  16  17
HETATM   17  C   UNL     1      -3.619   9.765 -27.948  1.00  0.00     0.171 C 
HETATM   18  C   UNL     1      -4.251   8.495 -27.407  1.00  0.00     0.034 C 
ENDBRANCH  16  17
ENDBRANCH  11  16
ENDBRANCH   6  10
ENDBRANCH   1   3
BRANCH   1  19
HETATM   19  C   UNL     1      -5.262   3.055 -33.238  1.00  0.00     0.253 C 
HETATM   20  N   UNL     1      -5.854   1.938 -32.695  1.00  0.00    -0.325 N 
HETATM   21  H   UNL     1      -5.268   1.255 -32.224  1.00  0.00     0.169 HD
HETATM   22  O   UNL     1      -5.736   3.779 -34.114  1.00  0.00    -0.271 OA
BRANCH  20  23
HETATM   23  C   UNL     1      -7.224   1.573 -32.782  1.00  0.00     0.045 A 
HETATM   24  C   UNL     1      -7.553   0.232 -33.102  1.00  0.00     0.001 A 
HETATM   25  C   UNL     1      -8.906  -0.156 -33.091  1.00  0.00     0.014 A 
HETATM   26  C   UNL     1      -9.914   0.754 -32.779  1.00  0.00     0.001 A 
HETATM   27  C   UNL     1      -9.586   2.071 -32.481  1.00  0.00     0.002 A 
HETATM   28  C   UNL     1      -8.250   2.480 -32.482  1.00  0.00     0.030 A 
BRANCH  24  29
HETATM   29  C   UNL     1      -6.538  -0.766 -33.483  1.00  0.00    -0.024 A 
HETATM   30  C   UNL     1      -6.717  -1.584 -34.608  1.00  0.00     0.012 A 
HETATM   31  C   UNL     1      -5.748  -2.526 -34.965  1.00  0.00     0.001 A 
HETATM   32  C   UNL     1      -4.590  -2.661 -34.202  1.00  0.00     0.000 A 
HETATM   33  C   UNL     1      -4.395  -1.853 -33.084  1.00  0.00     0.001 A 
HETATM   34  C   UNL     1      -5.362  -0.910 -32.729  1.00  0.00     0.012 A 
ENDBRANCH  24  29
ENDBRANCH  20  23
ENDBRANCH   1  19
TORSDOF 7
ENDMDL
MODEL 9
REMARK VINA RESULT:      -7.8      2.542      4.628
REMARK  7 active torsions:
REMARK  status: ('A' for Active; 'I' for Inactive)
REMARK    1  A    between atoms: C_2  and  O_3 
REMARK    2  A    between atoms: O_3  and  C_4 
REMARK    3  A    between atoms: C_5  and  N_6 
REMARK    4  A    between atoms: N_9  and  C_11 
REMARK    5  A    between atoms: C_11  and  C_12 
REMARK       I    between atoms: C_12  and  N_13 
REMARK    6  A    between atoms: N_13  and  C_14 
REMARK    7  A    between atoms: C_15  and  C_16 
ROOT
HETATM    1  C   UNL     1      -5.911   6.339 -29.852  1.00  0.00     0.275 C 
HETATM    2  C   UNL     1      -5.160   5.725 -28.677  1.00  0.00     0.050 C 
ENDROOT
BRANCH   1   3
HETATM    3  N   UNL     1      -7.048   5.408 -30.323  1.00  0.00    -0.056 N 
HETATM    4  C   UNL     1      -7.517   5.626 -31.768  1.00  0.00     0.255 C 
HETATM    5  C   UNL     1      -8.789   4.792 -32.029  1.00  0.00     0.150 C 
HETATM    6  N   UNL     1      -8.538   3.367 -31.748  1.00  0.00    -0.375 N 
HETATM    7  C   UNL     1      -8.072   3.095 -30.371  1.00  0.00     0.150 C 
HETATM    8  C   UNL     1      -6.817   3.931 -30.036  1.00  0.00     0.255 C 
HETATM    9  H   UNL     1      -7.858   5.711 -29.758  1.00  0.00     0.281 HD
BRANCH   6  10
HETATM   10  C   UNL     1      -8.164   2.485 -32.775  1.00  0.00     0.064 A 
HETATM   11  C   UNL     1      -9.102   1.653 -33.450  1.00  0.00     0.095 A 
HETATM   12  C   UNL     1      -8.688   0.798 -34.485  1.00  0.00     0.039 A 
HETATM   13  C   UNL     1      -7.353   0.746 -34.879  1.00  0.00     0.003 A 
HETATM   14  C   UNL     1      -6.424   1.559 -34.251  1.00  0.00     0.002 A 
HETATM   15  C   UNL     1      -6.828   2.417 -33.225  1.00  0.00     0.032 A 
BRANCH  11  16
HETATM   16  O   UNL     1     -10.425   1.782 -33.089  1.00  0.00    -0.349 OA
BRANCH  16  17
HETATM   17  C   UNL     1     -11.356   0.836 -33.612  1.00  0.00     0.171 C 
HETATM   18  C   UNL     1     -12.299   1.576 -34.544  1.00  0.00     0.034 C 
ENDBRANCH  16  17
ENDBRANCH  11  16
ENDBRANCH   6  10
ENDBRANCH   1   3
BRANCH   1  19
HETATM   19  C   UNL     1      -4.986   6.678 -31.049  1.00  0.00     0.253 C 
HETATM   20  N   UNL     1      -4.133   5.672 -31.440  1.00  0.00    -0.325 N 
HETATM   21  H   UNL     1      -3.948   4.910 -30.794  1.00  0.00     0.169 HD
HETATM   22  O   UNL     1      -5.049   7.809 -31.531  1.00  0.00    -0.271 OA
BRANCH  20  23
HETATM   23  C   UNL     1      -3.394   5.605 -32.651  1.00  0.00     0.045 A 
HETATM   24  C   UNL     1      -1.983   5.736 -32.597  1.00  0.00     0.001 A 
HETATM   25  C   UNL     1      -1.240   5.571 -33.781  1.00  0.00     0.014 A 
HETATM   26  C   UNL     1      -1.869   5.289 -34.993  1.00  0.00     0.001 A 
HETATM   27  C   UNL     1      -3.253   5.177 -35.042  1.00  0.00     0.002 A 
HETATM   28  C   UNL     1      -4.012   5.334 -33.880  1.00  0.00     0.030 A 
BRANCH  24  29
HETATM   29  C   UNL     1      -1.264   6.076 -31.357  1.00  0.00    -0.024 A 
HETATM   30  C   UNL     1      -0.508   5.113 -30.673  1.00  0.00     0.012 A 
HETATM   31  C   UNL     1       0.175   5.444 -29.500  1.00  0.00     0.001 A 
HETATM   32  C   UNL     1       0.109   6.742 -28.996  1.00  0.00     0.000 A 
HETATM   33  C   UNL     1      -0.634   7.711 -29.665  1.00  0.00     0.001 A 
HETATM   34  C   UNL     1      -1.314   7.381 -30.839  1.00  0.00     0.012 A 
ENDBRANCH  24  29
ENDBRANCH  20  23
ENDBRANCH   1  19
TORSDOF 7
ENDMDL
MODEL 10
REMARK VINA RESULT:      -7.8      2.151      8.341
REMARK  7 active torsions:
REMARK  status: ('A' for Active; 'I' for Inactive)
REMARK    1  A    between atoms: C_2  and  O_3 
REMARK    2  A    between atoms: O_3  and  C_4 
REMARK    3  A    between atoms: C_5  and  N_6 
REMARK    4  A    between atoms: N_9  and  C_11 
REMARK    5  A    between atoms: C_11  and  C_12 
REMARK       I    between atoms: C_12  and  N_13 
REMARK    6  A    between atoms: N_13  and  C_14 
REMARK    7  A    between atoms: C_15  and  C_16 
ROOT
HETATM    1  C   UNL     1      -6.800   4.519 -32.311  1.00  0.00     0.275 C 
HETATM    2  C   UNL     1      -7.730   5.200 -33.307  1.00  0.00     0.050 C 
ENDROOT
BRANCH   1   3
HETATM    3  N   UNL     1      -5.895   5.552 -31.609  1.00  0.00    -0.056 N 
HETATM    4  C   UNL     1      -5.105   5.020 -30.405  1.00  0.00     0.255 C 
HETATM    5  C   UNL     1      -4.424   6.198 -29.675  1.00  0.00     0.150 C 
HETATM    6  N   UNL     1      -3.560   6.950 -30.602  1.00  0.00    -0.375 N 
HETATM    7  C   UNL     1      -4.265   7.478 -31.790  1.00  0.00     0.150 C 
HETATM    8  C   UNL     1      -4.999   6.349 -32.546  1.00  0.00     0.255 C 
HETATM    9  H   UNL     1      -6.566   6.213 -31.184  1.00  0.00     0.281 HD
BRANCH   6  10
HETATM   10  C   UNL     1      -2.188   6.665 -30.700  1.00  0.00     0.064 A 
HETATM   11  C   UNL     1      -1.194   7.460 -30.061  1.00  0.00     0.095 A 
HETATM   12  C   UNL     1       0.168   7.128 -30.171  1.00  0.00     0.039 A 
HETATM   13  C   UNL     1       0.577   6.016 -30.901  1.00  0.00     0.003 A 
HETATM   14  C   UNL     1      -0.372   5.216 -31.516  1.00  0.00     0.002 A 
HETATM   15  C   UNL     1      -1.729   5.534 -31.408  1.00  0.00     0.032 A 
BRANCH  11  16
HETATM   16  O   UNL     1      -1.635   8.509 -29.286  1.00  0.00    -0.349 OA
BRANCH  16  17
HETATM   17  C   UNL     1      -1.116   8.626 -27.962  1.00  0.00     0.171 C 
HETATM   18  C   UNL     1      -1.038  10.103 -27.620  1.00  0.00     0.034 C 
ENDBRANCH  16  17
ENDBRANCH  11  16
ENDBRANCH   6  10
ENDBRANCH   1   3
BRANCH   1  19
HETATM   19  C   UNL     1      -5.925   3.415 -32.959  1.00  0.00     0.253 C 
HETATM   20  N   UNL     1      -5.670   2.321 -32.163  1.00  0.00    -0.325 N 
HETATM   21  H   UNL     1      -5.806   2.405 -31.161  1.00  0.00     0.169 HD
HETATM   22  O   UNL     1      -5.497   3.605 -34.098  1.00  0.00    -0.271 OA
BRANCH  20  23
HETATM   23  C   UNL     1      -5.149   1.068 -32.582  1.00  0.00     0.045 A 
HETATM   24  C   UNL     1      -6.022   0.143 -33.208  1.00  0.00     0.001 A 
HETATM   25  C   UNL     1      -5.488  -1.058 -33.713  1.00  0.00     0.014 A 
HETATM   26  C   UNL     1      -4.129  -1.346 -33.601  1.00  0.00     0.001 A 
HETATM   27  C   UNL     1      -3.282  -0.442 -32.973  1.00  0.00     0.002 A 
HETATM   28  C   UNL     1      -3.787   0.758 -32.466  1.00  0.00     0.030 A 
BRANCH  24  29
HETATM   29  C   UNL     1      -7.473   0.369 -33.319  1.00  0.00    -0.024 A 
HETATM   30  C   UNL     1      -8.035   0.897 -34.490  1.00  0.00     0.012 A 
HETATM   31  C   UNL     1      -9.413   1.105 -34.589  1.00  0.00     0.001 A 
HETATM   32  C   UNL     1     -10.246   0.788 -33.517  1.00  0.00     0.000 A 
HETATM   33  C   UNL     1      -9.704   0.258 -32.348  1.00  0.00     0.001 A 
HETATM   34  C   UNL     1      -8.327   0.048 -32.251  1.00  0.00     0.012 A 
ENDBRANCH  24  29
ENDBRANCH  20  23
ENDBRANCH   1  19
TORSDOF 7
ENDMDL
