MODEL 1
REMARK VINA RESULT:      -9.2      0.000      0.000
REMARK  3 active torsions:
REMARK  status: ('A' for Active; 'I' for Inactive)
REMARK    1  A    between atoms: C_9  and  N_10 
REMARK       I    between atoms: N_10  and  C_11 
REMARK    2  A    between atoms: C_11  and  C_12 
REMARK    3  A    between atoms: N_14  and  C_15 
ROOT
HETATM    1  N   UNL     1      -7.968   1.404 -33.097  1.00  0.00    -0.322 N 
HETATM    2  C   UNL     1      -7.434   1.721 -31.864  1.00  0.00     0.276 C 
HETATM    3  O   UNL     1      -7.981   2.272 -30.920  1.00  0.00    -0.266 OA
HETATM    4  H   UNL     1      -7.324   0.952 -33.743  1.00  0.00     0.169 HD
ENDROOT
BRANCH   2   5
HETATM    5  C   UNL     1      -5.993   1.246 -31.704  1.00  0.00     0.145 A 
HETATM    6  N   UNL     1      -5.691   0.058 -32.124  1.00  0.00    -0.159 NA
HETATM    7  N   UNL     1      -4.377  -0.378 -31.952  1.00  0.00    -0.197 N 
HETATM    8  C   UNL     1      -3.401   0.400 -31.305  1.00  0.00     0.268 A 
HETATM    9  O   UNL     1      -2.227   0.113 -31.085  1.00  0.00    -0.266 OA
HETATM   10  C   UNL     1      -3.835   1.744 -30.852  1.00  0.00     0.079 A 
HETATM   11  C   UNL     1      -5.077   2.182 -31.043  1.00  0.00     0.044 A 
BRANCH   7  12
HETATM   12  C   UNL     1      -4.121  -1.683 -32.510  1.00  0.00     0.062 A 
HETATM   13  C   UNL     1      -3.351  -2.659 -31.853  1.00  0.00     0.035 A 
HETATM   14  C   UNL     1      -3.105  -3.911 -32.432  1.00  0.00     0.044 A 
HETATM   15  C   UNL     1      -3.624  -4.204 -33.682  1.00  0.00     0.116 A 
HETATM   16  F   UNL     1      -3.383  -5.398 -34.237  1.00  0.00    -0.206 F 
HETATM   17  C   UNL     1      -4.391  -3.272 -34.362  1.00  0.00     0.044 A 
HETATM   18  C   UNL     1      -4.640  -2.025 -33.778  1.00  0.00     0.035 A 
ENDBRANCH   7  12
ENDBRANCH   2   5
BRANCH   1  19
HETATM   19  C   UNL     1      -9.289   1.625 -33.533  1.00  0.00     0.035 A 
HETATM   20  C   UNL     1     -10.331   0.720 -33.310  1.00  0.00     0.039 A 
HETATM   21  C   UNL     1     -11.597   1.020 -33.795  1.00  0.00    -0.022 A 
HETATM   22  C   UNL     1     -12.848   0.227 -33.640  1.00  0.00     0.274 C 
HETATM   23  C   UNL     1     -11.845   2.202 -34.496  1.00  0.00    -0.025 A 
HETATM   24  N   UNL     1     -13.851   0.910 -34.561  1.00  0.00    -0.067 N 
HETATM   25  C   UNL     1     -15.248   0.919 -34.050  1.00  0.00     0.270 C 
HETATM   26  H   UNL     1     -13.827   0.383 -35.442  1.00  0.00     0.280 HD
HETATM   27  C   UNL     1     -13.283   2.288 -34.879  1.00  0.00     0.273 C 
HETATM   28  C   UNL     1     -10.829   3.116 -34.717  1.00  0.00     0.012 A 
HETATM   29  C   UNL     1      -9.550   2.821 -34.230  1.00  0.00     0.030 A 
ENDBRANCH   1  19
TORSDOF 3
ENDMDL
MODEL 2
REMARK VINA RESULT:      -8.9      4.248      8.377
REMARK  3 active torsions:
REMARK  status: ('A' for Active; 'I' for Inactive)
REMARK    1  A    between atoms: C_9  and  N_10 
REMARK       I    between atoms: N_10  and  C_11 
REMARK    2  A    between atoms: C_11  and  C_12 
REMARK    3  A    between atoms: N_14  and  C_15 
ROOT
HETATM    1  N   UNL     1      -3.447   4.000 -32.257  1.00  0.00    -0.322 N 
HETATM    2  C   UNL     1      -3.648   2.660 -31.991  1.00  0.00     0.276 C 
HETATM    3  O   UNL     1      -3.062   1.950 -31.188  1.00  0.00    -0.266 OA
HETATM    4  H   UNL     1      -4.047   4.392 -32.979  1.00  0.00     0.169 HD
ENDROOT
BRANCH   2   5
HETATM    5  C   UNL     1      -4.801   2.066 -32.795  1.00  0.00     0.145 A 
HETATM    6  N   UNL     1      -4.745   0.809 -33.108  1.00  0.00    -0.159 NA
HETATM    7  N   UNL     1      -5.792   0.280 -33.863  1.00  0.00    -0.197 N 
HETATM    8  C   UNL     1      -6.862   1.065 -34.326  1.00  0.00     0.268 A 
HETATM    9  O   UNL     1      -7.821   0.711 -35.007  1.00  0.00    -0.266 OA
HETATM   10  C   UNL     1      -6.843   2.493 -33.926  1.00  0.00     0.079 A 
HETATM   11  C   UNL     1      -5.867   2.999 -33.177  1.00  0.00     0.044 A 
BRANCH   7  12
HETATM   12  C   UNL     1      -5.674  -1.138 -34.103  1.00  0.00     0.062 A 
HETATM   13  C   UNL     1      -6.740  -1.925 -34.570  1.00  0.00     0.035 A 
HETATM   14  C   UNL     1      -6.599  -3.304 -34.774  1.00  0.00     0.044 A 
HETATM   15  C   UNL     1      -5.385  -3.917 -34.511  1.00  0.00     0.116 A 
HETATM   16  F   UNL     1      -5.252  -5.236 -34.700  1.00  0.00    -0.206 F 
HETATM   17  C   UNL     1      -4.308  -3.177 -34.053  1.00  0.00     0.044 A 
HETATM   18  C   UNL     1      -4.451  -1.799 -33.855  1.00  0.00     0.035 A 
ENDBRANCH   7  12
ENDBRANCH   2   5
BRANCH   1  19
HETATM   19  C   UNL     1      -2.525   4.861 -31.630  1.00  0.00     0.035 A 
HETATM   20  C   UNL     1      -2.876   5.745 -30.605  1.00  0.00     0.039 A 
HETATM   21  C   UNL     1      -1.898   6.567 -30.062  1.00  0.00    -0.022 A 
HETATM   22  C   UNL     1      -2.040   7.545 -28.947  1.00  0.00     0.274 C 
HETATM   23  C   UNL     1      -0.579   6.525 -30.517  1.00  0.00    -0.025 A 
HETATM   24  N   UNL     1      -0.724   8.312 -28.941  1.00  0.00    -0.067 N 
HETATM   25  C   UNL     1      -0.244   8.701 -27.588  1.00  0.00     0.270 C 
HETATM   26  H   UNL     1      -0.894   9.165 -29.486  1.00  0.00     0.280 HD
HETATM   27  C   UNL     1       0.267   7.485 -29.752  1.00  0.00     0.273 C 
HETATM   28  C   UNL     1      -0.208   5.649 -31.523  1.00  0.00     0.012 A 
HETATM   29  C   UNL     1      -1.190   4.816 -32.075  1.00  0.00     0.030 A 
ENDBRANCH   1  19
TORSDOF 3
ENDMDL
MODEL 3
REMARK VINA RESULT:      -8.8      5.046      6.753
REMARK  3 active torsions:
REMARK  status: ('A' for Active; 'I' for Inactive)
REMARK    1  A    between atoms: C_9  and  N_10 
REMARK       I    between atoms: N_10  and  C_11 
REMARK    2  A    between atoms: C_11  and  C_12 
REMARK    3  A    between atoms: N_14  and  C_15 
ROOT
HETATM    1  N   UNL     1      -6.176   3.282 -33.604  1.00  0.00    -0.322 N 
HETATM    2  C   UNL     1      -5.604   4.072 -32.628  1.00  0.00     0.276 C 
HETATM    3  O   UNL     1      -5.972   4.239 -31.474  1.00  0.00    -0.266 OA
HETATM    4  H   UNL     1      -5.703   3.300 -34.505  1.00  0.00     0.169 HD
ENDROOT
BRANCH   2   5
HETATM    5  C   UNL     1      -4.319   4.751 -33.094  1.00  0.00     0.145 A 
HETATM    6  N   UNL     1      -3.473   5.143 -32.195  1.00  0.00    -0.159 NA
HETATM    7  N   UNL     1      -2.312   5.783 -32.629  1.00  0.00    -0.197 N 
HETATM    8  C   UNL     1      -2.061   6.054 -33.986  1.00  0.00     0.268 A 
HETATM    9  O   UNL     1      -1.089   6.623 -34.476  1.00  0.00    -0.266 OA
HETATM   10  C   UNL     1      -3.085   5.576 -34.945  1.00  0.00     0.079 A 
HETATM   11  C   UNL     1      -4.179   4.933 -34.543  1.00  0.00     0.044 A 
BRANCH   7  12
HETATM   12  C   UNL     1      -1.401   6.121 -31.562  1.00  0.00     0.062 A 
HETATM   13  C   UNL     1      -0.336   5.290 -31.176  1.00  0.00     0.035 A 
HETATM   14  C   UNL     1       0.519   5.638 -30.121  1.00  0.00     0.044 A 
HETATM   15  C   UNL     1       0.318   6.824 -29.435  1.00  0.00     0.116 A 
HETATM   16  F   UNL     1       1.131   7.153 -28.424  1.00  0.00    -0.206 F 
HETATM   17  C   UNL     1      -0.719   7.673 -29.787  1.00  0.00     0.044 A 
HETATM   18  C   UNL     1      -1.567   7.325 -30.844  1.00  0.00     0.035 A 
ENDBRANCH   7  12
ENDBRANCH   2   5
BRANCH   1  19
HETATM   19  C   UNL     1      -7.313   2.461 -33.474  1.00  0.00     0.035 A 
HETATM   20  C   UNL     1      -8.612   2.902 -33.745  1.00  0.00     0.039 A 
HETATM   21  C   UNL     1      -9.671   2.022 -33.569  1.00  0.00    -0.022 A 
HETATM   22  C   UNL     1     -11.117   2.266 -33.832  1.00  0.00     0.274 C 
HETATM   23  C   UNL     1      -9.462   0.713 -33.130  1.00  0.00    -0.025 A 
HETATM   24  N   UNL     1     -11.823   1.049 -33.246  1.00  0.00    -0.067 N 
HETATM   25  C   UNL     1     -13.017   0.602 -34.011  1.00  0.00     0.270 C 
HETATM   26  H   UNL     1     -12.122   1.327 -32.303  1.00  0.00     0.280 HD
HETATM   27  C   UNL     1     -10.757  -0.022 -33.050  1.00  0.00     0.273 C 
HETATM   28  C   UNL     1      -8.183   0.254 -32.866  1.00  0.00     0.012 A 
HETATM   29  C   UNL     1      -7.110   1.136 -33.042  1.00  0.00     0.030 A 
ENDBRANCH   1  19
TORSDOF 3
ENDMDL
MODEL 4
REMARK VINA RESULT:      -8.8      4.627      7.777
REMARK  3 active torsions:
REMARK  status: ('A' for Active; 'I' for Inactive)
REMARK    1  A    between atoms: C_9  and  N_10 
REMARK       I    between atoms: N_10  and  C_11 
REMARK    2  A    between atoms: C_11  and  C_12 
REMARK    3  A    between atoms: N_14  and  C_15 
ROOT
HETATM    1  N   UNL     1      -5.788   1.944 -33.150  1.00  0.00    -0.322 N 
HETATM    2  C   UNL     1      -5.976   2.402 -31.861  1.00  0.00     0.276 C 
HETATM    3  O   UNL     1      -6.259   1.757 -30.861  1.00  0.00    -0.266 OA
HETATM    4  H   UNL     1      -5.566   2.664 -33.834  1.00  0.00     0.169 HD
ENDROOT
BRANCH   2   5
HETATM    5  C   UNL     1      -5.728   3.901 -31.723  1.00  0.00     0.145 A 
HETATM    6  N   UNL     1      -4.502   4.317 -31.690  1.00  0.00    -0.159 NA
HETATM    7  N   UNL     1      -4.284   5.687 -31.540  1.00  0.00    -0.197 N 
HETATM    8  C   UNL     1      -5.335   6.607 -31.379  1.00  0.00     0.268 A 
HETATM    9  O   UNL     1      -5.260   7.822 -31.224  1.00  0.00    -0.266 OA
HETATM   10  C   UNL     1      -6.706   6.042 -31.424  1.00  0.00     0.079 A 
HETATM   11  C   UNL     1      -6.924   4.741 -31.602  1.00  0.00     0.044 A 
BRANCH   7  12
HETATM   12  C   UNL     1      -2.891   6.061 -31.583  1.00  0.00     0.062 A 
HETATM   13  C   UNL     1      -2.174   6.202 -32.783  1.00  0.00     0.035 A 
HETATM   14  C   UNL     1      -0.815   6.547 -32.789  1.00  0.00     0.044 A 
HETATM   15  C   UNL     1      -0.154   6.755 -31.590  1.00  0.00     0.116 A 
HETATM   16  F   UNL     1       1.145   7.079 -31.596  1.00  0.00    -0.206 F 
HETATM   17  C   UNL     1      -0.825   6.631 -30.385  1.00  0.00     0.044 A 
HETATM   18  C   UNL     1      -2.183   6.291 -30.383  1.00  0.00     0.035 A 
ENDBRANCH   7  12
ENDBRANCH   2   5
BRANCH   1  19
HETATM   19  C   UNL     1      -5.856   0.610 -33.596  1.00  0.00     0.035 A 
HETATM   20  C   UNL     1      -4.867  -0.340 -33.324  1.00  0.00     0.039 A 
HETATM   21  C   UNL     1      -5.016  -1.627 -33.824  1.00  0.00    -0.022 A 
HETATM   22  C   UNL     1      -4.113  -2.795 -33.626  1.00  0.00     0.274 C 
HETATM   23  C   UNL     1      -6.129  -1.985 -34.586  1.00  0.00    -0.025 A 
HETATM   24  N   UNL     1      -4.646  -3.856 -34.581  1.00  0.00    -0.067 N 
HETATM   25  C   UNL     1      -4.546  -5.250 -34.071  1.00  0.00     0.270 C 
HETATM   26  H   UNL     1      -4.077  -3.777 -35.432  1.00  0.00     0.280 HD
HETATM   27  C   UNL     1      -6.054  -3.424 -34.973  1.00  0.00     0.273 C 
HETATM   28  C   UNL     1      -7.125  -1.063 -34.857  1.00  0.00     0.012 A 
HETATM   29  C   UNL     1      -6.982   0.237 -34.356  1.00  0.00     0.030 A 
ENDBRANCH   1  19
TORSDOF 3
ENDMDL
MODEL 5
REMARK VINA RESULT:      -8.6      4.330      8.452
REMARK  3 active torsions:
REMARK  status: ('A' for Active; 'I' for Inactive)
REMARK    1  A    between atoms: C_9  and  N_10 
REMARK       I    between atoms: N_10  and  C_11 
REMARK    2  A    between atoms: C_11  and  C_12 
REMARK    3  A    between atoms: N_14  and  C_15 
ROOT
HETATM    1  N   UNL     1      -3.788   2.845 -32.729  1.00  0.00    -0.322 N 
HETATM    2  C   UNL     1      -3.660   1.597 -32.152  1.00  0.00     0.276 C 
HETATM    3  O   UNL     1      -2.935   1.260 -31.228  1.00  0.00    -0.266 OA
HETATM    4  H   UNL     1      -4.450   2.898 -33.500  1.00  0.00     0.169 HD
ENDROOT
BRANCH   2   5
HETATM    5  C   UNL     1      -4.613   0.568 -32.752  1.00  0.00     0.145 A 
HETATM    6  N   UNL     1      -5.870   0.872 -32.832  1.00  0.00    -0.159 NA
HETATM    7  N   UNL     1      -6.739  -0.084 -33.360  1.00  0.00    -0.197 N 
HETATM    8  C   UNL     1      -6.306  -1.361 -33.756  1.00  0.00     0.268 A 
HETATM    9  O   UNL     1      -6.979  -2.280 -34.215  1.00  0.00    -0.266 OA
HETATM   10  C   UNL     1      -4.852  -1.625 -33.625  1.00  0.00     0.079 A 
HETATM   11  C   UNL     1      -4.011  -0.707 -33.156  1.00  0.00     0.044 A 
BRANCH   7  12
HETATM   12  C   UNL     1      -8.104   0.371 -33.470  1.00  0.00     0.062 A 
HETATM   13  C   UNL     1      -9.173  -0.255 -32.807  1.00  0.00     0.035 A 
HETATM   14  C   UNL     1     -10.491   0.200 -32.952  1.00  0.00     0.044 A 
HETATM   15  C   UNL     1     -10.758   1.288 -33.766  1.00  0.00     0.116 A 
HETATM   16  F   UNL     1     -12.018   1.718 -33.908  1.00  0.00    -0.206 F 
HETATM   17  C   UNL     1      -9.731   1.935 -34.434  1.00  0.00     0.044 A 
HETATM   18  C   UNL     1      -8.416   1.482 -34.283  1.00  0.00     0.035 A 
ENDBRANCH   7  12
ENDBRANCH   2   5
BRANCH   1  19
HETATM   19  C   UNL     1      -3.120   4.026 -32.354  1.00  0.00     0.035 A 
HETATM   20  C   UNL     1      -3.490   4.799 -31.248  1.00  0.00     0.039 A 
HETATM   21  C   UNL     1      -2.779   5.958 -30.969  1.00  0.00    -0.022 A 
HETATM   22  C   UNL     1      -2.974   6.900 -29.832  1.00  0.00     0.274 C 
HETATM   23  C   UNL     1      -1.708   6.363 -31.768  1.00  0.00    -0.025 A 
HETATM   24  N   UNL     1      -2.083   8.091 -30.163  1.00  0.00    -0.067 N 
HETATM   25  C   UNL     1      -1.443   8.729 -28.982  1.00  0.00     0.270 C 
HETATM   26  H   UNL     1      -2.694   8.780 -30.618  1.00  0.00     0.280 HD
HETATM   27  C   UNL     1      -1.108   7.620 -31.237  1.00  0.00     0.273 C 
HETATM   28  C   UNL     1      -1.319   5.608 -32.861  1.00  0.00     0.012 A 
HETATM   29  C   UNL     1      -2.031   4.436 -33.148  1.00  0.00     0.030 A 
ENDBRANCH   1  19
TORSDOF 3
ENDMDL
MODEL 6
REMARK VINA RESULT:      -8.4      2.182      3.203
REMARK  3 active torsions:
REMARK  status: ('A' for Active; 'I' for Inactive)
REMARK    1  A    between atoms: C_9  and  N_10 
REMARK       I    between atoms: N_10  and  C_11 
REMARK    2  A    between atoms: C_11  and  C_12 
REMARK    3  A    between atoms: N_14  and  C_15 
ROOT
HETATM    1  N   UNL     1     -10.441   1.289 -33.266  1.00  0.00    -0.322 N 
HETATM    2  C   UNL     1      -9.535   2.058 -33.970  1.00  0.00     0.276 C 
HETATM    3  O   UNL     1      -9.757   3.014 -34.698  1.00  0.00    -0.266 OA
HETATM    4  H   UNL     1     -10.032   0.530 -32.725  1.00  0.00     0.169 HD
ENDROOT
BRANCH   2   5
HETATM    5  C   UNL     1      -8.088   1.647 -33.717  1.00  0.00     0.145 A 
HETATM    6  N   UNL     1      -7.748   0.420 -33.962  1.00  0.00    -0.159 NA
HETATM    7  N   UNL     1      -6.429   0.047 -33.706  1.00  0.00    -0.197 N 
HETATM    8  C   UNL     1      -5.486   0.933 -33.154  1.00  0.00     0.268 A 
HETATM    9  O   UNL     1      -4.312   0.709 -32.874  1.00  0.00    -0.266 OA
HETATM   10  C   UNL     1      -5.962   2.314 -32.900  1.00  0.00     0.079 A 
HETATM   11  C   UNL     1      -7.209   2.689 -33.174  1.00  0.00     0.044 A 
BRANCH   7  12
HETATM   12  C   UNL     1      -6.130  -1.316 -34.073  1.00  0.00     0.062 A 
HETATM   13  C   UNL     1      -7.116  -2.233 -34.473  1.00  0.00     0.035 A 
HETATM   14  C   UNL     1      -6.795  -3.557 -34.805  1.00  0.00     0.044 A 
HETATM   15  C   UNL     1      -5.479  -3.982 -34.738  1.00  0.00     0.116 A 
HETATM   16  F   UNL     1      -5.173  -5.248 -35.050  1.00  0.00    -0.206 F 
HETATM   17  C   UNL     1      -4.476  -3.108 -34.353  1.00  0.00     0.044 A 
HETATM   18  C   UNL     1      -4.799  -1.786 -34.027  1.00  0.00     0.035 A 
ENDBRANCH   7  12
ENDBRANCH   2   5
BRANCH   1  19
HETATM   19  C   UNL     1     -11.837   1.458 -33.212  1.00  0.00     0.035 A 
HETATM   20  C   UNL     1     -12.453   2.583 -32.654  1.00  0.00     0.039 A 
HETATM   21  C   UNL     1     -13.839   2.650 -32.632  1.00  0.00    -0.022 A 
HETATM   22  C   UNL     1     -14.694   3.760 -32.127  1.00  0.00     0.274 C 
HETATM   23  C   UNL     1     -14.624   1.620 -33.155  1.00  0.00    -0.025 A 
HETATM   24  N   UNL     1     -16.107   3.191 -32.139  1.00  0.00    -0.067 N 
HETATM   25  C   UNL     1     -17.164   4.176 -32.491  1.00  0.00     0.270 C 
HETATM   26  H   UNL     1     -16.280   2.851 -31.185  1.00  0.00     0.280 HD
HETATM   27  C   UNL     1     -16.072   1.953 -33.028  1.00  0.00     0.273 C 
HETATM   28  C   UNL     1     -14.035   0.503 -33.721  1.00  0.00     0.012 A 
HETATM   29  C   UNL     1     -12.636   0.429 -33.748  1.00  0.00     0.030 A 
ENDBRANCH   1  19
TORSDOF 3
ENDMDL
MODEL 7
REMARK VINA RESULT:      -8.4      7.407     11.411
REMARK  3 active torsions:
REMARK  status: ('A' for Active; 'I' for Inactive)
REMARK    1  A    between atoms: C_9  and  N_10 
REMARK       I    between atoms: N_10  and  C_11 
REMARK    2  A    between atoms: C_11  and  C_12 
REMARK    3  A    between atoms: N_14  and  C_15 
ROOT
HETATM    1  N   UNL     1      -0.626   7.499 -29.765  1.00  0.00    -0.322 N 
HETATM    2  C   UNL     1      -0.474   6.192 -30.184  1.00  0.00     0.276 C 
HETATM    3  O   UNL     1       0.073   5.268 -29.599  1.00  0.00    -0.266 OA
HETATM    4  H   UNL     1      -1.110   8.108 -30.421  1.00  0.00     0.169 HD
ENDROOT
BRANCH   2   5
HETATM    5  C   UNL     1      -1.145   5.919 -31.526  1.00  0.00     0.145 A 
HETATM    6  N   UNL     1      -2.026   4.971 -31.588  1.00  0.00    -0.159 NA
HETATM    7  N   UNL     1      -2.617   4.713 -32.826  1.00  0.00    -0.197 N 
HETATM    8  C   UNL     1      -2.258   5.406 -33.995  1.00  0.00     0.268 A 
HETATM    9  O   UNL     1      -2.697   5.251 -35.131  1.00  0.00    -0.266 OA
HETATM   10  C   UNL     1      -1.238   6.470 -33.832  1.00  0.00     0.079 A 
HETATM   11  C   UNL     1      -0.694   6.747 -32.650  1.00  0.00     0.044 A 
BRANCH   7  12
HETATM   12  C   UNL     1      -3.632   3.688 -32.780  1.00  0.00     0.062 A 
HETATM   13  C   UNL     1      -4.968   3.919 -33.149  1.00  0.00     0.035 A 
HETATM   14  C   UNL     1      -5.935   2.906 -33.075  1.00  0.00     0.044 A 
HETATM   15  C   UNL     1      -5.576   1.646 -32.628  1.00  0.00     0.116 A 
HETATM   16  F   UNL     1      -6.501   0.680 -32.551  1.00  0.00    -0.206 F 
HETATM   17  C   UNL     1      -4.269   1.375 -32.259  1.00  0.00     0.044 A 
HETATM   18  C   UNL     1      -3.306   2.387 -32.339  1.00  0.00     0.035 A 
ENDBRANCH   7  12
ENDBRANCH   2   5
BRANCH   1  19
HETATM   19  C   UNL     1      -0.202   8.054 -28.543  1.00  0.00     0.035 A 
HETATM   20  C   UNL     1      -1.086   8.485 -27.548  1.00  0.00     0.039 A 
HETATM   21  C   UNL     1      -0.570   9.035 -26.383  1.00  0.00    -0.022 A 
HETATM   22  C   UNL     1      -1.320   9.519 -25.190  1.00  0.00     0.274 C 
HETATM   23  C   UNL     1       0.806   9.165 -26.188  1.00  0.00    -0.025 A 
HETATM   24  N   UNL     1      -0.270  10.221 -24.337  1.00  0.00    -0.067 N 
HETATM   25  C   UNL     1      -0.463  10.066 -22.871  1.00  0.00     0.270 C 
HETATM   26  H   UNL     1      -0.339  11.218 -24.573  1.00  0.00     0.280 HD
HETATM   27  C   UNL     1       1.089   9.760 -24.851  1.00  0.00     0.273 C 
HETATM   28  C   UNL     1       1.698   8.734 -27.155  1.00  0.00     0.012 A 
HETATM   29  C   UNL     1       1.186   8.177 -28.333  1.00  0.00     0.030 A 
ENDBRANCH   1  19
TORSDOF 3
ENDMDL
MODEL 8
REMARK VINA RESULT:      -8.2      2.467      3.396
REMARK  3 active torsions:
REMARK  status: ('A' for Active; 'I' for Inactive)
REMARK    1  A    between atoms: C_9  and  N_10 
REMARK       I    between atoms: N_10  and  C_11 
REMARK    2  A    between atoms: C_11  and  C_12 
REMARK    3  A    between atoms: N_14  and  C_15 
ROOT
HETATM    1  N   UNL     1      -9.768   2.532 -33.434  1.00  0.00    -0.322 N 
HETATM    2  C   UNL     1      -9.148   3.658 -33.937  1.00  0.00     0.276 C 
HETATM    3  O   UNL     1      -9.658   4.619 -34.495  1.00  0.00    -0.266 OA
HETATM    4  H   UNL     1      -9.142   1.847 -33.015  1.00  0.00     0.169 HD
ENDROOT
BRANCH   2   5
HETATM    5  C   UNL     1      -7.644   3.669 -33.682  1.00  0.00     0.145 A 
HETATM    6  N   UNL     1      -7.080   2.568 -33.295  1.00  0.00    -0.159 NA
HETATM    7  N   UNL     1      -5.709   2.594 -33.041  1.00  0.00    -0.197 N 
HETATM    8  C   UNL     1      -4.943   3.768 -33.143  1.00  0.00     0.268 A 
HETATM    9  O   UNL     1      -3.742   3.910 -32.928  1.00  0.00    -0.266 OA
HETATM   10  C   UNL     1      -5.670   4.983 -33.586  1.00  0.00     0.079 A 
HETATM   11  C   UNL     1      -6.971   4.960 -33.864  1.00  0.00     0.044 A 
BRANCH   7  12
HETATM   12  C   UNL     1      -5.161   1.308 -32.683  1.00  0.00     0.062 A 
HETATM   13  C   UNL     1      -4.339   1.113 -31.560  1.00  0.00     0.035 A 
HETATM   14  C   UNL     1      -3.807  -0.146 -31.251  1.00  0.00     0.044 A 
HETATM   15  C   UNL     1      -4.089  -1.230 -32.064  1.00  0.00     0.116 A 
HETATM   16  F   UNL     1      -3.576  -2.432 -31.772  1.00  0.00    -0.206 F 
HETATM   17  C   UNL     1      -4.899  -1.082 -33.178  1.00  0.00     0.044 A 
HETATM   18  C   UNL     1      -5.433   0.176 -33.481  1.00  0.00     0.035 A 
ENDBRANCH   7  12
ENDBRANCH   2   5
BRANCH   1  19
HETATM   19  C   UNL     1     -11.148   2.252 -33.429  1.00  0.00     0.035 A 
HETATM   20  C   UNL     1     -12.056   2.891 -32.579  1.00  0.00     0.039 A 
HETATM   21  C   UNL     1     -13.396   2.533 -32.636  1.00  0.00    -0.022 A 
HETATM   22  C   UNL     1     -14.530   3.106 -31.859  1.00  0.00     0.274 C 
HETATM   23  C   UNL     1     -13.849   1.555 -33.523  1.00  0.00    -0.025 A 
HETATM   24  N   UNL     1     -15.705   2.183 -32.159  1.00  0.00    -0.067 N 
HETATM   25  C   UNL     1     -17.021   2.870 -32.244  1.00  0.00     0.270 C 
HETATM   26  H   UNL     1     -15.736   1.509 -31.385  1.00  0.00     0.280 HD
HETATM   27  C   UNL     1     -15.325   1.383 -33.399  1.00  0.00     0.273 C 
HETATM   28  C   UNL     1     -12.968   0.918 -34.380  1.00  0.00     0.012 A 
HETATM   29  C   UNL     1     -11.615   1.275 -34.329  1.00  0.00     0.030 A 
ENDBRANCH   1  19
TORSDOF 3
ENDMDL
MODEL 9
REMARK VINA RESULT:      -8.1      5.394      9.697
REMARK  3 active torsions:
REMARK  status: ('A' for Active; 'I' for Inactive)
REMARK    1  A    between atoms: C_9  and  N_10 
REMARK       I    between atoms: N_10  and  C_11 
REMARK    2  A    between atoms: C_11  and  C_12 
REMARK    3  A    between atoms: N_14  and  C_15 
ROOT
HETATM    1  N   UNL     1      -3.178   5.785 -30.664  1.00  0.00    -0.322 N 
HETATM    2  C   UNL     1      -3.207   4.593 -31.359  1.00  0.00     0.276 C 
HETATM    3  O   UNL     1      -2.275   3.849 -31.629  1.00  0.00    -0.266 OA
HETATM    4  H   UNL     1      -4.079   6.248 -30.564  1.00  0.00     0.169 HD
ENDROOT
BRANCH   2   5
HETATM    5  C   UNL     1      -4.619   4.179 -31.764  1.00  0.00     0.145 A 
HETATM    6  N   UNL     1      -4.771   3.055 -32.391  1.00  0.00    -0.159 NA
HETATM    7  N   UNL     1      -6.062   2.696 -32.778  1.00  0.00    -0.197 N 
HETATM    8  C   UNL     1      -7.176   3.524 -32.555  1.00  0.00     0.268 A 
HETATM    9  O   UNL     1      -8.346   3.318 -32.866  1.00  0.00    -0.266 OA
HETATM   10  C   UNL     1      -6.910   4.794 -31.837  1.00  0.00     0.079 A 
HETATM   11  C   UNL     1      -5.687   5.129 -31.432  1.00  0.00     0.044 A 
BRANCH   7  12
HETATM   12  C   UNL     1      -6.140   1.400 -33.408  1.00  0.00     0.062 A 
HETATM   13  C   UNL     1      -6.785   1.185 -34.637  1.00  0.00     0.035 A 
HETATM   14  C   UNL     1      -6.860  -0.091 -35.213  1.00  0.00     0.044 A 
HETATM   15  C   UNL     1      -6.290  -1.173 -34.562  1.00  0.00     0.116 A 
HETATM   16  F   UNL     1      -6.366  -2.392 -35.109  1.00  0.00    -0.206 F 
HETATM   17  C   UNL     1      -5.640  -1.003 -33.351  1.00  0.00     0.044 A 
HETATM   18  C   UNL     1      -5.563   0.273 -32.782  1.00  0.00     0.035 A 
ENDBRANCH   7  12
ENDBRANCH   2   5
BRANCH   1  19
HETATM   19  C   UNL     1      -2.054   6.401 -30.081  1.00  0.00     0.035 A 
HETATM   20  C   UNL     1      -2.103   7.095 -28.868  1.00  0.00     0.039 A 
HETATM   21  C   UNL     1      -0.943   7.684 -28.384  1.00  0.00    -0.022 A 
HETATM   22  C   UNL     1      -0.760   8.430 -27.108  1.00  0.00     0.274 C 
HETATM   23  C   UNL     1       0.263   7.595 -29.081  1.00  0.00    -0.025 A 
HETATM   24  N   UNL     1       0.634   9.037 -27.215  1.00  0.00    -0.067 N 
HETATM   25  C   UNL     1       1.381   9.095 -25.931  1.00  0.00     0.270 C 
HETATM   26  H   UNL     1       0.496   9.995 -27.558  1.00  0.00     0.280 HD
HETATM   27  C   UNL     1       1.351   8.288 -28.333  1.00  0.00     0.273 C 
HETATM   28  C   UNL     1       0.335   6.903 -30.278  1.00  0.00     0.012 A 
HETATM   29  C   UNL     1      -0.831   6.305 -30.773  1.00  0.00     0.030 A 
ENDBRANCH   1  19
TORSDOF 3
ENDMDL
MODEL 10
REMARK VINA RESULT:      -8.0      6.346      9.233
REMARK  3 active torsions:
REMARK  status: ('A' for Active; 'I' for Inactive)
REMARK    1  A    between atoms: C_9  and  N_10 
REMARK       I    between atoms: N_10  and  C_11 
REMARK    2  A    between atoms: C_11  and  C_12 
REMARK    3  A    between atoms: N_14  and  C_15 
ROOT
HETATM    1  N   UNL     1      -2.997   4.083 -31.224  1.00  0.00    -0.322 N 
HETATM    2  C   UNL     1      -2.022   4.825 -31.860  1.00  0.00     0.276 C 
HETATM    3  O   UNL     1      -1.755   4.863 -33.052  1.00  0.00    -0.266 OA
HETATM    4  H   UNL     1      -3.037   4.199 -30.213  1.00  0.00     0.169 HD
ENDROOT
BRANCH   2   5
HETATM    5  C   UNL     1      -1.254   5.734 -30.905  1.00  0.00     0.145 A 
HETATM    6  N   UNL     1      -1.859   6.151 -29.838  1.00  0.00    -0.159 NA
HETATM    7  N   UNL     1      -1.157   7.001 -28.982  1.00  0.00    -0.197 N 
HETATM    8  C   UNL     1       0.146   7.449 -29.263  1.00  0.00     0.268 A 
HETATM    9  O   UNL     1       0.847   8.205 -28.596  1.00  0.00    -0.266 OA
HETATM   10  C   UNL     1       0.759   6.926 -30.509  1.00  0.00     0.079 A 
HETATM   11  C   UNL     1       0.111   6.087 -31.313  1.00  0.00     0.044 A 
BRANCH   7  12
HETATM   12  C   UNL     1      -1.887   7.356 -27.790  1.00  0.00     0.062 A 
HETATM   13  C   UNL     1      -2.916   8.313 -27.781  1.00  0.00     0.035 A 
HETATM   14  C   UNL     1      -3.593   8.649 -26.601  1.00  0.00     0.044 A 
HETATM   15  C   UNL     1      -3.247   8.033 -25.410  1.00  0.00     0.116 A 
HETATM   16  F   UNL     1      -3.890   8.359 -24.282  1.00  0.00    -0.206 F 
HETATM   17  C   UNL     1      -2.241   7.081 -25.376  1.00  0.00     0.044 A 
HETATM   18  C   UNL     1      -1.571   6.744 -26.557  1.00  0.00     0.035 A 
ENDBRANCH   7  12
ENDBRANCH   2   5
BRANCH   1  19
HETATM   19  C   UNL     1      -3.930   3.215 -31.823  1.00  0.00     0.035 A 
HETATM   20  C   UNL     1      -3.635   1.893 -32.170  1.00  0.00     0.039 A 
HETATM   21  C   UNL     1      -4.617   1.121 -32.774  1.00  0.00    -0.022 A 
HETATM   22  C   UNL     1      -4.534  -0.308 -33.186  1.00  0.00     0.274 C 
HETATM   23  C   UNL     1      -5.887   1.639 -33.039  1.00  0.00    -0.025 A 
HETATM   24  N   UNL     1      -5.804  -0.549 -33.992  1.00  0.00    -0.067 N 
HETATM   25  C   UNL     1      -6.392  -1.905 -33.826  1.00  0.00     0.270 C 
HETATM   26  H   UNL     1      -5.538  -0.425 -34.977  1.00  0.00     0.280 HD
HETATM   27  C   UNL     1      -6.753   0.599 -33.665  1.00  0.00     0.273 C 
HETATM   28  C   UNL     1      -6.203   2.941 -32.694  1.00  0.00     0.012 A 
HETATM   29  C   UNL     1      -5.217   3.726 -32.084  1.00  0.00     0.030 A 
ENDBRANCH   1  19
TORSDOF 3
ENDMDL
