MODEL 1
REMARK VINA RESULT:      -7.1      0.000      0.000
REMARK  2 active torsions:
REMARK  status: ('A' for Active; 'I' for Inactive)
REMARK    1  A    between atoms: C_8  and  N_9 
REMARK       I    between atoms: N_9  and  C_10 
REMARK       I    between atoms: C_10  and  N_11 
REMARK    2  A    between atoms: N_11  and  C_12 
ROOT
HETATM    1  N   UNL     1      -3.715   1.298 -31.590  1.00  0.00    -0.309 N 
HETATM    2  C   UNL     1      -3.390   2.588 -31.850  1.00  0.00     0.321 C 
HETATM    3  N   UNL     1      -4.196   3.289 -32.691  1.00  0.00    -0.337 N 
HETATM    4  O   UNL     1      -2.429   3.113 -31.287  1.00  0.00    -0.247 OA
HETATM    5  H   UNL     1      -3.221   0.934 -30.780  1.00  0.00     0.170 HD
HETATM    6  H   UNL     1      -5.139   2.922 -32.766  1.00  0.00     0.164 HD
ENDROOT
BRANCH   1   7
HETATM    7  C   UNL     1      -4.492   0.352 -32.292  1.00  0.00     0.037 A 
HETATM    8  C   UNL     1      -3.954  -0.731 -32.999  1.00  0.00     0.051 A 
HETATM    9  C   UNL     1      -4.839  -1.638 -33.619  1.00  0.00     0.037 A 
HETATM   10  S   UNL     1      -4.475  -3.050 -34.537  1.00  0.00    -0.073 SA
HETATM   11  C   UNL     1      -6.223  -1.496 -33.543  1.00  0.00     0.075 A 
HETATM   12  C   UNL     1      -6.152  -3.346 -34.752  1.00  0.00     0.072 A 
HETATM   13  C   UNL     1      -6.626  -4.531 -35.519  1.00  0.00     0.079 C 
HETATM   14  N   UNL     1      -6.956  -2.467 -34.195  1.00  0.00    -0.245 NA
HETATM   15  C   UNL     1      -6.749  -0.413 -32.816  1.00  0.00     0.035 A 
HETATM   16  C   UNL     1      -5.880   0.492 -32.193  1.00  0.00     0.032 A 
ENDBRANCH   1   7
BRANCH   3  17
HETATM   17  C   UNL     1      -3.980   4.664 -33.162  1.00  0.00     0.113 C 
HETATM   18  C   UNL     1      -4.728   5.060 -34.443  1.00  0.00     0.257 C 
HETATM   19  N   UNL     1      -6.075   5.469 -33.938  1.00  0.00    -0.073 N 
HETATM   20  H   UNL     1      -6.617   6.054 -34.584  1.00  0.00     0.277 HD
HETATM   21  H   UNL     1      -6.608   4.580 -33.814  1.00  0.00     0.277 HD
HETATM   22  C   UNL     1      -5.905   6.043 -32.570  1.00  0.00     0.234 C 
HETATM   23  C   UNL     1      -4.477   5.703 -32.161  1.00  0.00     0.054 C 
ENDBRANCH   3  17
TORSDOF 2
ENDMDL
MODEL 2
REMARK VINA RESULT:      -6.9      2.117      2.647
REMARK  2 active torsions:
REMARK  status: ('A' for Active; 'I' for Inactive)
REMARK    1  A    between atoms: C_8  and  N_9 
REMARK       I    between atoms: N_9  and  C_10 
REMARK       I    between atoms: C_10  and  N_11 
REMARK    2  A    between atoms: N_11  and  C_12 
ROOT
HETATM    1  N   UNL     1      -6.823   2.043 -33.080  1.00  0.00    -0.309 N 
HETATM    2  C   UNL     1      -6.214   3.199 -32.715  1.00  0.00     0.321 C 
HETATM    3  N   UNL     1      -4.924   3.387 -33.098  1.00  0.00    -0.337 N 
HETATM    4  O   UNL     1      -6.843   4.068 -32.109  1.00  0.00    -0.247 OA
HETATM    5  H   UNL     1      -7.832   2.093 -32.975  1.00  0.00     0.170 HD
HETATM    6  H   UNL     1      -4.646   2.837 -33.905  1.00  0.00     0.164 HD
ENDROOT
BRANCH   1   7
HETATM    7  C   UNL     1      -6.319   0.778 -33.447  1.00  0.00     0.037 A 
HETATM    8  C   UNL     1      -5.310   0.105 -32.746  1.00  0.00     0.051 A 
HETATM    9  C   UNL     1      -4.926  -1.179 -33.183  1.00  0.00     0.037 A 
HETATM   10  S   UNL     1      -3.737  -2.238 -32.524  1.00  0.00    -0.073 SA
HETATM   11  C   UNL     1      -5.523  -1.801 -34.278  1.00  0.00     0.075 A 
HETATM   12  C   UNL     1      -4.107  -3.407 -33.725  1.00  0.00     0.072 A 
HETATM   13  C   UNL     1      -3.396  -4.715 -33.762  1.00  0.00     0.079 C 
HETATM   14  N   UNL     1      -5.044  -3.060 -34.580  1.00  0.00    -0.245 NA
HETATM   15  C   UNL     1      -6.546  -1.121 -34.962  1.00  0.00     0.035 A 
HETATM   16  C   UNL     1      -6.938   0.155 -34.535  1.00  0.00     0.032 A 
ENDBRANCH   1   7
BRANCH   3  17
HETATM   17  C   UNL     1      -4.064   4.523 -32.743  1.00  0.00     0.113 C 
HETATM   18  C   UNL     1      -2.555   4.246 -32.730  1.00  0.00     0.257 C 
HETATM   19  N   UNL     1      -2.163   4.428 -34.162  1.00  0.00    -0.073 N 
HETATM   20  H   UNL     1      -1.161   4.591 -34.317  1.00  0.00     0.277 HD
HETATM   21  H   UNL     1      -2.399   3.526 -34.632  1.00  0.00     0.277 HD
HETATM   22  C   UNL     1      -3.063   5.456 -34.763  1.00  0.00     0.234 C 
HETATM   23  C   UNL     1      -4.177   5.669 -33.745  1.00  0.00     0.054 C 
ENDBRANCH   3  17
TORSDOF 2
ENDMDL
MODEL 3
REMARK VINA RESULT:      -6.9      3.526      5.264
REMARK  2 active torsions:
REMARK  status: ('A' for Active; 'I' for Inactive)
REMARK    1  A    between atoms: C_8  and  N_9 
REMARK       I    between atoms: N_9  and  C_10 
REMARK       I    between atoms: C_10  and  N_11 
REMARK    2  A    between atoms: N_11  and  C_12 
ROOT
HETATM    1  N   UNL     1      -2.755   5.858 -34.246  1.00  0.00    -0.309 N 
HETATM    2  C   UNL     1      -2.002   6.745 -33.549  1.00  0.00     0.321 C 
HETATM    3  N   UNL     1      -1.649   6.418 -32.277  1.00  0.00    -0.337 N 
HETATM    4  O   UNL     1      -1.607   7.781 -34.084  1.00  0.00    -0.247 OA
HETATM    5  H   UNL     1      -2.760   6.060 -35.242  1.00  0.00     0.170 HD
HETATM    6  H   UNL     1      -1.664   5.422 -32.085  1.00  0.00     0.164 HD
ENDROOT
BRANCH   1   7
HETATM    7  C   UNL     1      -3.611   4.813 -33.841  1.00  0.00     0.037 A 
HETATM    8  C   UNL     1      -3.246   3.811 -32.932  1.00  0.00     0.051 A 
HETATM    9  C   UNL     1      -4.209   2.848 -32.568  1.00  0.00     0.037 A 
HETATM   10  S   UNL     1      -4.056   1.520 -31.480  1.00  0.00    -0.073 SA
HETATM   11  C   UNL     1      -5.508   2.866 -33.073  1.00  0.00     0.075 A 
HETATM   12  C   UNL     1      -5.693   1.091 -31.767  1.00  0.00     0.072 A 
HETATM   13  C   UNL     1      -6.308  -0.077 -31.079  1.00  0.00     0.079 C 
HETATM   14  N   UNL     1      -6.337   1.861 -32.617  1.00  0.00    -0.245 NA
HETATM   15  C   UNL     1      -5.865   3.888 -33.971  1.00  0.00     0.035 A 
HETATM   16  C   UNL     1      -4.918   4.852 -34.338  1.00  0.00     0.032 A 
ENDBRANCH   1   7
BRANCH   3  17
HETATM   17  C   UNL     1      -0.910   7.265 -31.332  1.00  0.00     0.113 C 
HETATM   18  C   UNL     1      -1.524   7.403 -29.932  1.00  0.00     0.257 C 
HETATM   19  N   UNL     1      -1.011   6.195 -29.214  1.00  0.00    -0.073 N 
HETATM   20  H   UNL     1      -1.048   6.254 -28.190  1.00  0.00     0.277 HD
HETATM   21  H   UNL     1      -1.645   5.414 -29.495  1.00  0.00     0.277 HD
HETATM   22  C   UNL     1       0.333   5.859 -29.772  1.00  0.00     0.234 C 
HETATM   23  C   UNL     1       0.479   6.713 -31.025  1.00  0.00     0.054 C 
ENDBRANCH   3  17
TORSDOF 2
ENDMDL
MODEL 4
REMARK VINA RESULT:      -6.6      2.925      3.873
REMARK  2 active torsions:
REMARK  status: ('A' for Active; 'I' for Inactive)
REMARK    1  A    between atoms: C_8  and  N_9 
REMARK       I    between atoms: N_9  and  C_10 
REMARK       I    between atoms: C_10  and  N_11 
REMARK    2  A    between atoms: N_11  and  C_12 
ROOT
HETATM    1  N   UNL     1      -5.040   2.457 -32.506  1.00  0.00    -0.309 N 
HETATM    2  C   UNL     1      -6.241   3.043 -32.732  1.00  0.00     0.321 C 
HETATM    3  N   UNL     1      -7.361   2.309 -32.492  1.00  0.00    -0.337 N 
HETATM    4  O   UNL     1      -6.303   4.221 -33.082  1.00  0.00    -0.247 OA
HETATM    5  H   UNL     1      -4.284   3.136 -32.467  1.00  0.00     0.170 HD
HETATM    6  H   UNL     1      -7.224   1.542 -31.843  1.00  0.00     0.164 HD
ENDROOT
BRANCH   1   7
HETATM    7  C   UNL     1      -4.636   1.107 -32.443  1.00  0.00     0.037 A 
HETATM    8  C   UNL     1      -5.014   0.134 -33.378  1.00  0.00     0.051 A 
HETATM    9  C   UNL     1      -4.503  -1.172 -33.235  1.00  0.00     0.037 A 
HETATM   10  S   UNL     1      -4.780  -2.558 -34.222  1.00  0.00    -0.073 SA
HETATM   11  C   UNL     1      -3.632  -1.522 -32.205  1.00  0.00     0.075 A 
HETATM   12  C   UNL     1      -3.742  -3.484 -33.218  1.00  0.00     0.072 A 
HETATM   13  C   UNL     1      -3.478  -4.921 -33.512  1.00  0.00     0.079 C 
HETATM   14  N   UNL     1      -3.214  -2.838 -32.202  1.00  0.00    -0.245 NA
HETATM   15  C   UNL     1      -3.248  -0.531 -31.284  1.00  0.00     0.035 A 
HETATM   16  C   UNL     1      -3.747   0.771 -31.417  1.00  0.00     0.032 A 
ENDBRANCH   1   7
BRANCH   3  17
HETATM   17  C   UNL     1      -8.747   2.725 -32.746  1.00  0.00     0.113 C 
HETATM   18  C   UNL     1      -9.150   2.855 -34.221  1.00  0.00     0.257 C 
HETATM   19  N   UNL     1      -9.526   1.456 -34.596  1.00  0.00    -0.073 N 
HETATM   20  H   UNL     1     -10.111   1.378 -35.436  1.00  0.00     0.277 HD
HETATM   21  H   UNL     1      -8.625   0.974 -34.809  1.00  0.00     0.277 HD
HETATM   22  C   UNL     1     -10.080   0.783 -33.384  1.00  0.00     0.234 C 
HETATM   23  C   UNL     1      -9.760   1.711 -32.219  1.00  0.00     0.054 C 
ENDBRANCH   3  17
TORSDOF 2
ENDMDL
MODEL 5
REMARK VINA RESULT:      -6.5      4.181      5.065
REMARK  2 active torsions:
REMARK  status: ('A' for Active; 'I' for Inactive)
REMARK    1  A    between atoms: C_8  and  N_9 
REMARK       I    between atoms: N_9  and  C_10 
REMARK       I    between atoms: C_10  and  N_11 
REMARK    2  A    between atoms: N_11  and  C_12 
ROOT
HETATM    1  N   UNL     1      -7.444   2.937 -33.603  1.00  0.00    -0.309 N 
HETATM    2  C   UNL     1      -8.656   3.535 -33.707  1.00  0.00     0.321 C 
HETATM    3  N   UNL     1      -9.757   2.738 -33.754  1.00  0.00    -0.337 N 
HETATM    4  O   UNL     1      -8.747   4.763 -33.694  1.00  0.00    -0.247 OA
HETATM    5  H   UNL     1      -6.717   3.590 -33.326  1.00  0.00     0.170 HD
HETATM    6  H   UNL     1      -9.619   1.815 -33.355  1.00  0.00     0.164 HD
ENDROOT
BRANCH   1   7
HETATM    7  C   UNL     1      -6.993   1.639 -33.923  1.00  0.00     0.037 A 
HETATM    8  C   UNL     1      -5.903   1.015 -33.302  1.00  0.00     0.051 A 
HETATM    9  C   UNL     1      -5.581  -0.307 -33.675  1.00  0.00     0.037 A 
HETATM   10  S   UNL     1      -4.318  -1.321 -33.086  1.00  0.00    -0.073 SA
HETATM   11  C   UNL     1      -6.314  -1.010 -34.628  1.00  0.00     0.075 A 
HETATM   12  C   UNL     1      -4.841  -2.581 -34.126  1.00  0.00     0.072 A 
HETATM   13  C   UNL     1      -4.143  -3.897 -34.142  1.00  0.00     0.079 C 
HETATM   14  N   UNL     1      -5.880  -2.297 -34.880  1.00  0.00    -0.245 NA
HETATM   15  C   UNL     1      -7.416  -0.377 -35.230  1.00  0.00     0.035 A 
HETATM   16  C   UNL     1      -7.748   0.934 -34.866  1.00  0.00     0.032 A 
ENDBRANCH   1   7
BRANCH   3  17
HETATM   17  C   UNL     1     -11.145   3.177 -33.944  1.00  0.00     0.113 C 
HETATM   18  C   UNL     1     -11.556   3.501 -35.387  1.00  0.00     0.257 C 
HETATM   19  N   UNL     1     -11.929   2.164 -35.944  1.00  0.00    -0.073 N 
HETATM   20  H   UNL     1     -12.517   2.196 -36.784  1.00  0.00     0.277 HD
HETATM   21  H   UNL     1     -11.027   1.718 -36.223  1.00  0.00     0.277 HD
HETATM   22  C   UNL     1     -12.474   1.332 -34.830  1.00  0.00     0.234 C 
HETATM   23  C   UNL     1     -12.152   2.099 -33.553  1.00  0.00     0.054 C 
ENDBRANCH   3  17
TORSDOF 2
ENDMDL
MODEL 6
REMARK VINA RESULT:      -6.4      5.920      7.221
REMARK  2 active torsions:
REMARK  status: ('A' for Active; 'I' for Inactive)
REMARK    1  A    between atoms: C_8  and  N_9 
REMARK       I    between atoms: N_9  and  C_10 
REMARK       I    between atoms: C_10  and  N_11 
REMARK    2  A    between atoms: N_11  and  C_12 
ROOT
HETATM    1  N   UNL     1     -10.846   1.552 -35.078  1.00  0.00    -0.309 N 
HETATM    2  C   UNL     1     -12.043   2.166 -34.912  1.00  0.00     0.321 C 
HETATM    3  N   UNL     1     -12.219   2.928 -33.800  1.00  0.00    -0.337 N 
HETATM    4  O   UNL     1     -12.913   2.078 -35.780  1.00  0.00    -0.247 OA
HETATM    5  H   UNL     1     -10.715   1.220 -36.030  1.00  0.00     0.170 HD
HETATM    6  H   UNL     1     -11.355   3.261 -33.384  1.00  0.00     0.164 HD
ENDROOT
BRANCH   1   7
HETATM    7  C   UNL     1      -9.831   1.185 -34.169  1.00  0.00     0.037 A 
HETATM    8  C   UNL     1      -8.504   1.624 -34.262  1.00  0.00     0.051 A 
HETATM    9  C   UNL     1      -7.592   1.229 -33.262  1.00  0.00     0.037 A 
HETATM   10  S   UNL     1      -5.919   1.614 -33.108  1.00  0.00    -0.073 SA
HETATM   11  C   UNL     1      -7.969   0.428 -32.186  1.00  0.00     0.075 A 
HETATM   12  C   UNL     1      -5.840   0.703 -31.655  1.00  0.00     0.072 A 
HETATM   13  C   UNL     1      -4.567   0.595 -30.891  1.00  0.00     0.079 C 
HETATM   14  N   UNL     1      -6.965   0.131 -31.286  1.00  0.00    -0.245 NA
HETATM   15  C   UNL     1      -9.309   0.010 -32.097  1.00  0.00     0.035 A 
HETATM   16  C   UNL     1     -10.224   0.398 -33.083  1.00  0.00     0.032 A 
ENDBRANCH   1   7
BRANCH   3  17
HETATM   17  C   UNL     1     -13.456   3.608 -33.394  1.00  0.00     0.113 C 
HETATM   18  C   UNL     1     -14.524   2.723 -32.737  1.00  0.00     0.257 C 
HETATM   19  N   UNL     1     -14.101   2.687 -31.303  1.00  0.00    -0.073 N 
HETATM   20  H   UNL     1     -14.838   2.410 -30.644  1.00  0.00     0.277 HD
HETATM   21  H   UNL     1     -13.358   1.955 -31.250  1.00  0.00     0.277 HD
HETATM   22  C   UNL     1     -13.431   3.982 -30.983  1.00  0.00     0.234 C 
HETATM   23  C   UNL     1     -13.208   4.668 -32.325  1.00  0.00     0.054 C 
ENDBRANCH   3  17
TORSDOF 2
ENDMDL
MODEL 7
REMARK VINA RESULT:      -6.4      4.097      5.321
REMARK  2 active torsions:
REMARK  status: ('A' for Active; 'I' for Inactive)
REMARK    1  A    between atoms: C_8  and  N_9 
REMARK       I    between atoms: N_9  and  C_10 
REMARK       I    between atoms: C_10  and  N_11 
REMARK    2  A    between atoms: N_11  and  C_12 
ROOT
HETATM    1  N   UNL     1     -10.093   0.712 -33.843  1.00  0.00    -0.309 N 
HETATM    2  C   UNL     1     -10.771   1.865 -33.622  1.00  0.00     0.321 C 
HETATM    3  N   UNL     1     -10.082   3.034 -33.708  1.00  0.00    -0.337 N 
HETATM    4  O   UNL     1     -11.984   1.842 -33.412  1.00  0.00    -0.247 OA
HETATM    5  H   UNL     1     -10.716  -0.074 -34.005  1.00  0.00     0.170 HD
HETATM    6  H   UNL     1      -9.238   2.979 -34.268  1.00  0.00     0.164 HD
ENDROOT
BRANCH   1   7
HETATM    7  C   UNL     1      -8.723   0.384 -33.766  1.00  0.00     0.037 A 
HETATM    8  C   UNL     1      -8.005   0.302 -32.566  1.00  0.00     0.051 A 
HETATM    9  C   UNL     1      -6.650  -0.085 -32.615  1.00  0.00     0.037 A 
HETATM   10  S   UNL     1      -5.531  -0.280 -31.319  1.00  0.00    -0.073 SA
HETATM   11  C   UNL     1      -6.009  -0.395 -33.812  1.00  0.00     0.075 A 
HETATM   12  C   UNL     1      -4.315  -0.750 -32.435  1.00  0.00     0.072 A 
HETATM   13  C   UNL     1      -2.949  -1.113 -31.968  1.00  0.00     0.079 C 
HETATM   14  N   UNL     1      -4.683  -0.764 -33.698  1.00  0.00    -0.245 NA
HETATM   15  C   UNL     1      -6.746  -0.325 -35.008  1.00  0.00     0.035 A 
HETATM   16  C   UNL     1      -8.094   0.055 -34.971  1.00  0.00     0.032 A 
ENDBRANCH   1   7
BRANCH   3  17
HETATM   17  C   UNL     1     -10.606   4.378 -33.429  1.00  0.00     0.113 C 
HETATM   18  C   UNL     1      -9.572   5.423 -32.990  1.00  0.00     0.257 C 
HETATM   19  N   UNL     1      -9.028   5.931 -34.288  1.00  0.00    -0.073 N 
HETATM   20  H   UNL     1      -8.556   6.841 -34.230  1.00  0.00     0.277 HD
HETATM   21  H   UNL     1      -8.307   5.234 -34.579  1.00  0.00     0.277 HD
HETATM   22  C   UNL     1     -10.115   5.854 -35.309  1.00  0.00     0.234 C 
HETATM   23  C   UNL     1     -11.221   5.027 -34.666  1.00  0.00     0.054 C 
ENDBRANCH   3  17
TORSDOF 2
ENDMDL
MODEL 8
REMARK VINA RESULT:      -6.4      3.177      6.723
REMARK  2 active torsions:
REMARK  status: ('A' for Active; 'I' for Inactive)
REMARK    1  A    between atoms: C_8  and  N_9 
REMARK       I    between atoms: N_9  and  C_10 
REMARK       I    between atoms: C_10  and  N_11 
REMARK    2  A    between atoms: N_11  and  C_12 
ROOT
HETATM    1  N   UNL     1      -5.321   1.425 -30.526  1.00  0.00    -0.309 N 
HETATM    2  C   UNL     1      -6.136   0.483 -31.061  1.00  0.00     0.321 C 
HETATM    3  N   UNL     1      -6.298   0.474 -32.410  1.00  0.00    -0.337 N 
HETATM    4  O   UNL     1      -6.657  -0.369 -30.340  1.00  0.00    -0.247 OA
HETATM    5  H   UNL     1      -5.063   1.209 -29.567  1.00  0.00     0.170 HD
HETATM    6  H   UNL     1      -5.543   0.918 -32.923  1.00  0.00     0.164 HD
ENDROOT
BRANCH   1   7
HETATM    7  C   UNL     1      -4.879   2.679 -30.998  1.00  0.00     0.037 A 
HETATM    8  C   UNL     1      -3.598   2.912 -31.517  1.00  0.00     0.051 A 
HETATM    9  C   UNL     1      -3.292   4.199 -32.005  1.00  0.00     0.037 A 
HETATM   10  S   UNL     1      -1.823   4.773 -32.700  1.00  0.00    -0.073 SA
HETATM   11  C   UNL     1      -4.220   5.238 -31.996  1.00  0.00     0.075 A 
HETATM   12  C   UNL     1      -2.530   6.320 -32.924  1.00  0.00     0.072 A 
HETATM   13  C   UNL     1      -1.758   7.429 -33.550  1.00  0.00     0.079 C 
HETATM   14  N   UNL     1      -3.774   6.438 -32.514  1.00  0.00    -0.245 NA
HETATM   15  C   UNL     1      -5.507   4.985 -31.489  1.00  0.00     0.035 A 
HETATM   16  C   UNL     1      -5.824   3.709 -31.004  1.00  0.00     0.032 A 
ENDBRANCH   1   7
BRANCH   3  17
HETATM   17  C   UNL     1      -7.192  -0.405 -33.176  1.00  0.00     0.113 C 
HETATM   18  C   UNL     1      -8.573   0.172 -33.515  1.00  0.00     0.257 C 
HETATM   19  N   UNL     1      -8.318   0.958 -34.762  1.00  0.00    -0.073 N 
HETATM   20  H   UNL     1      -9.154   1.166 -35.319  1.00  0.00     0.277 HD
HETATM   21  H   UNL     1      -7.933   1.874 -34.439  1.00  0.00     0.277 HD
HETATM   22  C   UNL     1      -7.216   0.289 -35.516  1.00  0.00     0.234 C 
HETATM   23  C   UNL     1      -6.631  -0.740 -34.556  1.00  0.00     0.054 C 
ENDBRANCH   3  17
TORSDOF 2
ENDMDL
MODEL 9
REMARK VINA RESULT:      -6.3     15.468     17.894
REMARK  2 active torsions:
REMARK  status: ('A' for Active; 'I' for Inactive)
REMARK    1  A    between atoms: C_8  and  N_9 
REMARK       I    between atoms: N_9  and  C_10 
REMARK       I    between atoms: C_10  and  N_11 
REMARK    2  A    between atoms: N_11  and  C_12 
ROOT
HETATM    1  N   UNL     1      -9.725 -12.656 -39.500  1.00  0.00    -0.309 N 
HETATM    2  C   UNL     1     -10.550 -13.559 -40.086  1.00  0.00     0.321 C 
HETATM    3  N   UNL     1     -10.074 -14.816 -40.291  1.00  0.00    -0.337 N 
HETATM    4  O   UNL     1     -11.710 -13.253 -40.362  1.00  0.00    -0.247 OA
HETATM    5  H   UNL     1     -10.228 -11.840 -39.163  1.00  0.00     0.170 HD
HETATM    6  H   UNL     1      -9.303 -15.072 -39.683  1.00  0.00     0.164 HD
ENDROOT
BRANCH   1   7
HETATM    7  C   UNL     1      -8.321 -12.583 -39.388  1.00  0.00     0.037 A 
HETATM    8  C   UNL     1      -7.609 -12.943 -38.237  1.00  0.00     0.051 A 
HETATM    9  C   UNL     1      -6.201 -12.874 -38.265  1.00  0.00     0.037 A 
HETATM   10  S   UNL     1      -5.071 -13.257 -37.021  1.00  0.00    -0.073 SA
HETATM   11  C   UNL     1      -5.499 -12.470 -39.399  1.00  0.00     0.075 A 
HETATM   12  C   UNL     1      -3.774 -12.862 -38.072  1.00  0.00     0.072 A 
HETATM   13  C   UNL     1      -2.360 -12.981 -37.618  1.00  0.00     0.079 C 
HETATM   14  N   UNL     1      -4.124 -12.460 -39.274  1.00  0.00    -0.245 NA
HETATM   15  C   UNL     1      -6.226 -12.128 -40.553  1.00  0.00     0.035 A 
HETATM   16  C   UNL     1      -7.625 -12.196 -40.538  1.00  0.00     0.032 A 
ENDBRANCH   1   7
BRANCH   3  17
HETATM   17  C   UNL     1     -10.771 -15.912 -40.976  1.00  0.00     0.113 C 
HETATM   18  C   UNL     1     -10.339 -16.181 -42.423  1.00  0.00     0.257 C 
HETATM   19  N   UNL     1      -9.147 -17.071 -42.264  1.00  0.00    -0.073 N 
HETATM   20  H   UNL     1      -8.898 -17.611 -43.100  1.00  0.00     0.277 HD
HETATM   21  H   UNL     1      -8.346 -16.431 -42.066  1.00  0.00     0.277 HD
HETATM   22  C   UNL     1      -9.339 -17.887 -41.028  1.00  0.00     0.234 C 
HETATM   23  C   UNL     1     -10.526 -17.261 -40.306  1.00  0.00     0.054 C 
ENDBRANCH   3  17
TORSDOF 2
ENDMDL
MODEL 10
REMARK VINA RESULT:      -6.2     15.143     16.963
REMARK  2 active torsions:
REMARK  status: ('A' for Active; 'I' for Inactive)
REMARK    1  A    between atoms: C_8  and  N_9 
REMARK       I    between atoms: N_9  and  C_10 
REMARK       I    between atoms: C_10  and  N_11 
REMARK    2  A    between atoms: N_11  and  C_12 
ROOT
HETATM    1  N   UNL     1      -3.538 -12.473 -38.090  1.00  0.00    -0.309 N 
HETATM    2  C   UNL     1      -2.484 -13.326 -38.078  1.00  0.00     0.321 C 
HETATM    3  N   UNL     1      -2.401 -14.248 -39.073  1.00  0.00    -0.337 N 
HETATM    4  O   UNL     1      -1.605 -13.216 -37.223  1.00  0.00    -0.247 OA
HETATM    5  H   UNL     1      -3.393 -11.677 -37.476  1.00  0.00     0.170 HD
HETATM    6  H   UNL     1      -2.912 -14.000 -39.914  1.00  0.00     0.164 HD
ENDROOT
BRANCH   1   7
HETATM    7  C   UNL     1      -4.816 -12.549 -38.683  1.00  0.00     0.037 A 
HETATM    8  C   UNL     1      -5.940 -13.096 -38.050  1.00  0.00     0.051 A 
HETATM    9  C   UNL     1      -7.176 -13.069 -38.728  1.00  0.00     0.037 A 
HETATM   10  S   UNL     1      -8.712 -13.650 -38.205  1.00  0.00    -0.073 SA
HETATM   11  C   UNL     1      -7.316 -12.509 -39.996  1.00  0.00     0.075 A 
HETATM   12  C   UNL     1      -9.417 -13.120 -39.677  1.00  0.00     0.072 A 
HETATM   13  C   UNL     1     -10.871 -13.307 -39.938  1.00  0.00     0.079 C 
HETATM   14  N   UNL     1      -8.590 -12.551 -40.527  1.00  0.00    -0.245 NA
HETATM   15  C   UNL     1      -6.183 -11.947 -40.612  1.00  0.00     0.035 A 
HETATM   16  C   UNL     1      -4.950 -11.967 -39.947  1.00  0.00     0.032 A 
ENDBRANCH   1   7
BRANCH   3  17
HETATM   17  C   UNL     1      -1.391 -15.307 -39.200  1.00  0.00     0.113 C 
HETATM   18  C   UNL     1      -1.919 -16.747 -39.168  1.00  0.00     0.257 C 
HETATM   19  N   UNL     1      -2.322 -16.995 -40.587  1.00  0.00    -0.073 N 
HETATM   20  H   UNL     1      -2.410 -17.985 -40.844  1.00  0.00     0.277 HD
HETATM   21  H   UNL     1      -3.271 -16.571 -40.686  1.00  0.00     0.277 HD
HETATM   22  C   UNL     1      -1.419 -16.199 -41.472  1.00  0.00     0.234 C 
HETATM   23  C   UNL     1      -0.665 -15.256 -40.542  1.00  0.00     0.054 C 
ENDBRANCH   3  17
TORSDOF 2
ENDMDL
