MODEL 1
REMARK VINA RESULT:      -9.0      0.000      0.000
REMARK  8 active torsions:
REMARK  status: ('A' for Active; 'I' for Inactive)
REMARK    1  A    between atoms: C_2  and  C_3 
REMARK    2  A    between atoms: C_3  and  O_4 
REMARK    3  A    between atoms: O_4  and  C_5 
REMARK    4  A    between atoms: C_7  and  C_8 
REMARK    5  A    between atoms: N_9  and  C_10 
REMARK    6  A    between atoms: C_10  and  C_11 
REMARK    7  A    between atoms: C_24  and  C_25 
REMARK    8  A    between atoms: C_26  and  O_27 
ROOT
HETATM    1  C   UNL     1      -5.171   0.947 -33.329  1.00  0.00     0.159 A 
HETATM    2  N   UNL     1      -4.498   2.061 -32.605  1.00  0.00    -0.329 N 
HETATM    3  C   UNL     1      -3.453   1.648 -31.776  1.00  0.00     0.273 A 
HETATM    4  O   UNL     1      -2.703   2.330 -31.101  1.00  0.00    -0.266 OA
HETATM    5  C   UNL     1      -3.451   0.242 -31.922  1.00  0.00     0.129 A 
HETATM    6  C   UNL     1      -4.397  -0.199 -32.801  1.00  0.00     0.034 A 
HETATM    7  N   UNL     1      -2.787  -0.824 -31.454  1.00  0.00    -0.272 N 
HETATM    8  H   UNL     1      -2.023  -0.862 -30.784  1.00  0.00     0.189 HD
HETATM    9  N   UNL     1      -3.266  -1.979 -31.984  1.00  0.00    -0.173 NA
HETATM   10  C   UNL     1      -4.231  -1.594 -32.864  1.00  0.00     0.101 A 
ENDROOT
BRANCH   1  11
HETATM   11  C   UNL     1      -6.613   0.749 -32.922  1.00  0.00    -0.028 A 
HETATM   12  C   UNL     1      -7.635   0.975 -33.861  1.00  0.00     0.046 A 
HETATM   13  C   UNL     1      -8.983   0.785 -33.535  1.00  0.00     0.069 A 
HETATM   14  C   UNL     1      -9.325   0.379 -32.247  1.00  0.00     0.037 A 
HETATM   15  C   UNL     1      -8.327   0.158 -31.296  1.00  0.00     0.003 A 
HETATM   16  C   UNL     1      -6.984   0.340 -31.629  1.00  0.00     0.010 A 
BRANCH  13  17
HETATM   17  O   UNL     1      -9.854   1.033 -34.559  1.00  0.00    -0.348 OA
BRANCH  17  18
HETATM   18  C   UNL     1     -10.875   2.001 -34.319  1.00  0.00     0.202 C 
BRANCH  18  19
HETATM   19  C   UNL     1     -12.192   1.345 -34.607  1.00  0.00    -0.011 C 
HETATM   20  C   UNL     1     -12.844   0.536 -33.762  1.00  0.00     0.009 C 
ENDBRANCH  18  19
ENDBRANCH  17  18
ENDBRANCH  13  17
ENDBRANCH   1  11
BRANCH   2  21
HETATM   21  C   UNL     1      -4.794   3.449 -32.877  1.00  0.00     0.165 C 
BRANCH  21  22
HETATM   22  C   UNL     1      -5.999   3.929 -32.113  1.00  0.00    -0.037 A 
HETATM   23  C   UNL     1      -6.056   3.827 -30.720  1.00  0.00     0.028 A 
HETATM   24  C   UNL     1      -7.193   4.280 -30.068  1.00  0.00     0.116 A 
HETATM   25  N   UNL     1      -8.261   4.811 -30.699  1.00  0.00    -0.273 NA
HETATM   26  C   UNL     1      -8.187   4.903 -32.045  1.00  0.00     0.116 A 
HETATM   27  C   UNL     1      -7.094   4.483 -32.784  1.00  0.00     0.028 A 
ENDBRANCH  21  22
ENDBRANCH   2  21
BRANCH  10  28
HETATM   28  C   UNL     1      -4.941  -2.588 -33.673  1.00  0.00     0.028 A 
HETATM   29  C   UNL     1      -4.421  -3.881 -33.868  1.00  0.00     0.078 A 
HETATM   30  C   UNL     1      -5.111  -4.835 -34.612  1.00  0.00     0.037 A 
HETATM   31  C   UNL     1      -6.330  -4.505 -35.200  1.00  0.00     0.003 A 
HETATM   32  C   UNL     1      -6.851  -3.221 -35.046  1.00  0.00     0.001 A 
HETATM   33  C   UNL     1      -6.159  -2.268 -34.291  1.00  0.00     0.017 A 
BRANCH  29  34
HETATM   34  O   UNL     1      -3.212  -4.272 -33.349  1.00  0.00    -0.360 OA
HETATM   35  H   UNL     1      -3.421  -4.888 -32.611  1.00  0.00     0.217 HD
ENDBRANCH  29  34
ENDBRANCH  10  28
TORSDOF 8
ENDMDL
MODEL 2
REMARK VINA RESULT:      -8.6      2.290      6.387
REMARK  8 active torsions:
REMARK  status: ('A' for Active; 'I' for Inactive)
REMARK    1  A    between atoms: C_2  and  C_3 
REMARK    2  A    between atoms: C_3  and  O_4 
REMARK    3  A    between atoms: O_4  and  C_5 
REMARK    4  A    between atoms: C_7  and  C_8 
REMARK    5  A    between atoms: N_9  and  C_10 
REMARK    6  A    between atoms: C_10  and  C_11 
REMARK    7  A    between atoms: C_24  and  C_25 
REMARK    8  A    between atoms: C_26  and  O_27 
ROOT
HETATM    1  C   UNL     1      -7.127   2.216 -32.807  1.00  0.00     0.159 A 
HETATM    2  N   UNL     1      -8.386   1.951 -32.056  1.00  0.00    -0.329 N 
HETATM    3  C   UNL     1      -8.673   2.904 -31.076  1.00  0.00     0.273 A 
HETATM    4  O   UNL     1      -9.644   2.971 -30.343  1.00  0.00    -0.266 OA
HETATM    5  C   UNL     1      -7.578   3.794 -31.150  1.00  0.00     0.129 A 
HETATM    6  C   UNL     1      -6.685   3.453 -32.123  1.00  0.00     0.034 A 
HETATM    7  N   UNL     1      -7.133   4.904 -30.545  1.00  0.00    -0.272 N 
HETATM    8  H   UNL     1      -7.547   5.428 -29.779  1.00  0.00     0.189 HD
HETATM    9  N   UNL     1      -5.954   5.319 -31.076  1.00  0.00    -0.173 NA
HETATM   10  C   UNL     1      -5.696   4.453 -32.094  1.00  0.00     0.101 A 
ENDROOT
BRANCH   1  11
HETATM   11  C   UNL     1      -6.062   1.168 -32.584  1.00  0.00    -0.028 A 
HETATM   12  C   UNL     1      -5.968   0.078 -33.467  1.00  0.00     0.046 A 
HETATM   13  C   UNL     1      -4.986  -0.907 -33.313  1.00  0.00     0.069 A 
HETATM   14  C   UNL     1      -4.088  -0.818 -32.251  1.00  0.00     0.037 A 
HETATM   15  C   UNL     1      -4.169   0.251 -31.357  1.00  0.00     0.003 A 
HETATM   16  C   UNL     1      -5.145   1.235 -31.521  1.00  0.00     0.010 A 
BRANCH  13  17
HETATM   17  O   UNL     1      -5.018  -1.893 -34.260  1.00  0.00    -0.348 OA
BRANCH  17  18
HETATM   18  C   UNL     1      -6.238  -2.060 -34.979  1.00  0.00     0.202 C 
BRANCH  18  19
HETATM   19  C   UNL     1      -6.758  -3.432 -34.670  1.00  0.00    -0.011 C 
HETATM   20  C   UNL     1      -6.462  -4.537 -35.367  1.00  0.00     0.009 C 
ENDBRANCH  18  19
ENDBRANCH  17  18
ENDBRANCH  13  17
ENDBRANCH   1  11
BRANCH   2  21
HETATM   21  C   UNL     1      -9.304   0.900 -32.435  1.00  0.00     0.165 C 
BRANCH  21  22
HETATM   22  C   UNL     1     -10.382   1.399 -33.360  1.00  0.00    -0.037 A 
HETATM   23  C   UNL     1     -11.582   0.698 -33.510  1.00  0.00     0.028 A 
HETATM   24  C   UNL     1     -12.539   1.199 -34.380  1.00  0.00     0.116 A 
HETATM   25  N   UNL     1     -12.380   2.328 -35.102  1.00  0.00    -0.273 NA
HETATM   26  C   UNL     1     -11.215   2.993 -34.942  1.00  0.00     0.116 A 
HETATM   27  C   UNL     1     -10.202   2.575 -34.095  1.00  0.00     0.028 A 
ENDBRANCH  21  22
ENDBRANCH   2  21
BRANCH  10  28
HETATM   28  C   UNL     1      -4.512   4.627 -32.938  1.00  0.00     0.028 A 
HETATM   29  C   UNL     1      -3.217   4.385 -32.444  1.00  0.00     0.078 A 
HETATM   30  C   UNL     1      -2.094   4.522 -33.256  1.00  0.00     0.037 A 
HETATM   31  C   UNL     1      -2.243   4.930 -34.580  1.00  0.00     0.003 A 
HETATM   32  C   UNL     1      -3.513   5.204 -35.084  1.00  0.00     0.001 A 
HETATM   33  C   UNL     1      -4.640   5.058 -34.267  1.00  0.00     0.017 A 
BRANCH  29  34
HETATM   34  O   UNL     1      -2.986   4.012 -31.144  1.00  0.00    -0.360 OA
HETATM   35  H   UNL     1      -2.632   3.095 -31.184  1.00  0.00     0.217 HD
ENDBRANCH  29  34
ENDBRANCH  10  28
TORSDOF 8
ENDMDL
MODEL 3
REMARK VINA RESULT:      -8.4      2.111      6.649
REMARK  8 active torsions:
REMARK  status: ('A' for Active; 'I' for Inactive)
REMARK    1  A    between atoms: C_2  and  C_3 
REMARK    2  A    between atoms: C_3  and  O_4 
REMARK    3  A    between atoms: O_4  and  C_5 
REMARK    4  A    between atoms: C_7  and  C_8 
REMARK    5  A    between atoms: N_9  and  C_10 
REMARK    6  A    between atoms: C_10  and  C_11 
REMARK    7  A    between atoms: C_24  and  C_25 
REMARK    8  A    between atoms: C_26  and  O_27 
ROOT
HETATM    1  C   UNL     1      -8.504   1.970 -31.259  1.00  0.00     0.159 A 
HETATM    2  N   UNL     1      -7.504   2.622 -30.369  1.00  0.00    -0.329 N 
HETATM    3  C   UNL     1      -7.723   3.986 -30.171  1.00  0.00     0.273 A 
HETATM    4  O   UNL     1      -7.101   4.762 -29.469  1.00  0.00    -0.266 OA
HETATM    5  C   UNL     1      -8.861   4.256 -30.965  1.00  0.00     0.129 A 
HETATM    6  C   UNL     1      -9.346   3.144 -31.589  1.00  0.00     0.034 A 
HETATM    7  N   UNL     1      -9.636   5.296 -31.303  1.00  0.00    -0.272 N 
HETATM    8  H   UNL     1      -9.563   6.269 -31.023  1.00  0.00     0.189 HD
HETATM    9  N   UNL     1     -10.629   4.919 -32.150  1.00  0.00    -0.173 NA
HETATM   10  C   UNL     1     -10.488   3.572 -32.289  1.00  0.00     0.101 A 
ENDROOT
BRANCH   1  11
HETATM   11  C   UNL     1      -7.915   1.456 -32.552  1.00  0.00    -0.028 A 
HETATM   12  C   UNL     1      -7.951   0.078 -32.830  1.00  0.00     0.046 A 
HETATM   13  C   UNL     1      -7.436  -0.442 -34.022  1.00  0.00     0.069 A 
HETATM   14  C   UNL     1      -6.857   0.420 -34.951  1.00  0.00     0.037 A 
HETATM   15  C   UNL     1      -6.801   1.790 -34.692  1.00  0.00     0.003 A 
HETATM   16  C   UNL     1      -7.325   2.304 -33.505  1.00  0.00     0.010 A 
BRANCH  13  17
HETATM   17  O   UNL     1      -7.559  -1.798 -34.150  1.00  0.00    -0.348 OA
BRANCH  17  18
HETATM   18  C   UNL     1      -6.410  -2.511 -34.604  1.00  0.00     0.202 C 
BRANCH  18  19
HETATM   19  C   UNL     1      -6.805  -3.950 -34.755  1.00  0.00    -0.011 C 
HETATM   20  C   UNL     1      -6.109  -4.866 -35.441  1.00  0.00     0.009 C 
ENDBRANCH  18  19
ENDBRANCH  17  18
ENDBRANCH  13  17
ENDBRANCH   1  11
BRANCH   2  21
HETATM   21  C   UNL     1      -6.507   1.865 -29.645  1.00  0.00     0.165 C 
BRANCH  21  22
HETATM   22  C   UNL     1      -5.284   1.597 -30.481  1.00  0.00    -0.037 A 
HETATM   23  C   UNL     1      -4.551   2.647 -31.042  1.00  0.00     0.028 A 
HETATM   24  C   UNL     1      -3.437   2.343 -31.809  1.00  0.00     0.116 A 
HETATM   25  N   UNL     1      -3.014   1.085 -32.056  1.00  0.00    -0.273 NA
HETATM   26  C   UNL     1      -3.734   0.084 -31.504  1.00  0.00     0.116 A 
HETATM   27  C   UNL     1      -4.858   0.287 -30.721  1.00  0.00     0.028 A 
ENDBRANCH  21  22
ENDBRANCH   2  21
BRANCH  10  28
HETATM   28  C   UNL     1     -11.433   2.804 -33.103  1.00  0.00     0.028 A 
HETATM   29  C   UNL     1     -12.788   2.693 -32.743  1.00  0.00     0.078 A 
HETATM   30  C   UNL     1     -13.693   1.987 -33.534  1.00  0.00     0.037 A 
HETATM   31  C   UNL     1     -13.250   1.354 -34.693  1.00  0.00     0.003 A 
HETATM   32  C   UNL     1     -11.906   1.425 -35.055  1.00  0.00     0.001 A 
HETATM   33  C   UNL     1     -11.003   2.142 -34.263  1.00  0.00     0.017 A 
BRANCH  29  34
HETATM   34  O   UNL     1     -13.293   3.259 -31.600  1.00  0.00    -0.360 OA
HETATM   35  H   UNL     1     -14.051   2.693 -31.329  1.00  0.00     0.217 HD
ENDBRANCH  29  34
ENDBRANCH  10  28
TORSDOF 8
ENDMDL
MODEL 4
REMARK VINA RESULT:      -8.2      2.806      5.810
REMARK  8 active torsions:
REMARK  status: ('A' for Active; 'I' for Inactive)
REMARK    1  A    between atoms: C_2  and  C_3 
REMARK    2  A    between atoms: C_3  and  O_4 
REMARK    3  A    between atoms: O_4  and  C_5 
REMARK    4  A    between atoms: C_7  and  C_8 
REMARK    5  A    between atoms: N_9  and  C_10 
REMARK    6  A    between atoms: C_10  and  C_11 
REMARK    7  A    between atoms: C_24  and  C_25 
REMARK    8  A    between atoms: C_26  and  O_27 
ROOT
HETATM    1  C   UNL     1      -6.723   2.434 -30.831  1.00  0.00     0.159 A 
HETATM    2  N   UNL     1      -7.768   3.339 -30.274  1.00  0.00    -0.329 N 
HETATM    3  C   UNL     1      -9.073   2.973 -30.609  1.00  0.00     0.273 A 
HETATM    4  O   UNL     1     -10.120   3.492 -30.267  1.00  0.00    -0.266 OA
HETATM    5  C   UNL     1      -8.896   1.832 -31.425  1.00  0.00     0.129 A 
HETATM    6  C   UNL     1      -7.585   1.482 -31.569  1.00  0.00     0.034 A 
HETATM    7  N   UNL     1      -9.640   0.961 -32.121  1.00  0.00    -0.272 N 
HETATM    8  H   UNL     1     -10.649   0.924 -32.235  1.00  0.00     0.189 HD
HETATM    9  N   UNL     1      -8.865   0.034 -32.742  1.00  0.00    -0.173 NA
HETATM   10  C   UNL     1      -7.590   0.319 -32.359  1.00  0.00     0.101 A 
ENDROOT
BRANCH   1  11
HETATM   11  C   UNL     1      -5.821   3.106 -31.840  1.00  0.00    -0.028 A 
HETATM   12  C   UNL     1      -4.435   3.156 -31.604  1.00  0.00     0.046 A 
HETATM   13  C   UNL     1      -3.558   3.750 -32.518  1.00  0.00     0.069 A 
HETATM   14  C   UNL     1      -4.067   4.320 -33.683  1.00  0.00     0.037 A 
HETATM   15  C   UNL     1      -5.440   4.291 -33.932  1.00  0.00     0.003 A 
HETATM   16  C   UNL     1      -6.309   3.690 -33.021  1.00  0.00     0.010 A 
BRANCH  13  17
HETATM   17  O   UNL     1      -2.241   3.706 -32.152  1.00  0.00    -0.348 OA
BRANCH  17  18
HETATM   18  C   UNL     1      -1.732   4.830 -31.436  1.00  0.00     0.202 C 
BRANCH  18  19
HETATM   19  C   UNL     1      -0.779   5.547 -32.344  1.00  0.00    -0.011 C 
HETATM   20  C   UNL     1      -0.742   6.874 -32.519  1.00  0.00     0.009 C 
ENDBRANCH  18  19
ENDBRANCH  17  18
ENDBRANCH  13  17
ENDBRANCH   1  11
BRANCH   2  21
HETATM   21  C   UNL     1      -7.455   4.391 -29.334  1.00  0.00     0.165 C 
BRANCH  21  22
HETATM   22  C   UNL     1      -6.876   5.603 -30.015  1.00  0.00    -0.037 A 
HETATM   23  C   UNL     1      -5.584   6.046 -29.720  1.00  0.00     0.028 A 
HETATM   24  C   UNL     1      -5.103   7.171 -30.373  1.00  0.00     0.116 A 
HETATM   25  N   UNL     1      -5.814   7.876 -31.279  1.00  0.00    -0.273 NA
HETATM   26  C   UNL     1      -7.060   7.432 -31.552  1.00  0.00     0.116 A 
HETATM   27  C   UNL     1      -7.626   6.317 -30.956  1.00  0.00     0.028 A 
ENDBRANCH  21  22
ENDBRANCH   2  21
BRANCH  10  28
HETATM   28  C   UNL     1      -6.474  -0.520 -32.801  1.00  0.00     0.028 A 
HETATM   29  C   UNL     1      -6.456  -1.100 -34.083  1.00  0.00     0.078 A 
HETATM   30  C   UNL     1      -5.380  -1.873 -34.514  1.00  0.00     0.037 A 
HETATM   31  C   UNL     1      -4.306  -2.102 -33.657  1.00  0.00     0.003 A 
HETATM   32  C   UNL     1      -4.314  -1.562 -32.372  1.00  0.00     0.001 A 
HETATM   33  C   UNL     1      -5.393  -0.779 -31.946  1.00  0.00     0.017 A 
BRANCH  29  34
HETATM   34  O   UNL     1      -7.491  -0.948 -34.972  1.00  0.00    -0.360 OA
HETATM   35  H   UNL     1      -7.124  -1.182 -35.855  1.00  0.00     0.217 HD
ENDBRANCH  29  34
ENDBRANCH  10  28
TORSDOF 8
ENDMDL
MODEL 5
REMARK VINA RESULT:      -8.0      2.556      7.163
REMARK  8 active torsions:
REMARK  status: ('A' for Active; 'I' for Inactive)
REMARK    1  A    between atoms: C_2  and  C_3 
REMARK    2  A    between atoms: C_3  and  O_4 
REMARK    3  A    between atoms: O_4  and  C_5 
REMARK    4  A    between atoms: C_7  and  C_8 
REMARK    5  A    between atoms: N_9  and  C_10 
REMARK    6  A    between atoms: C_10  and  C_11 
REMARK    7  A    between atoms: C_24  and  C_25 
REMARK    8  A    between atoms: C_26  and  O_27 
ROOT
HETATM    1  C   UNL     1      -6.637   2.957 -33.628  1.00  0.00     0.159 A 
HETATM    2  N   UNL     1      -8.118   2.990 -33.786  1.00  0.00    -0.329 N 
HETATM    3  C   UNL     1      -8.672   4.267 -33.676  1.00  0.00     0.273 A 
HETATM    4  O   UNL     1      -9.836   4.603 -33.801  1.00  0.00    -0.266 OA
HETATM    5  C   UNL     1      -7.555   5.090 -33.410  1.00  0.00     0.129 A 
HETATM    6  C   UNL     1      -6.380   4.396 -33.386  1.00  0.00     0.034 A 
HETATM    7  N   UNL     1      -7.283   6.380 -33.168  1.00  0.00    -0.272 N 
HETATM    8  H   UNL     1      -7.918   7.171 -33.112  1.00  0.00     0.189 HD
HETATM    9  N   UNL     1      -5.953   6.577 -32.970  1.00  0.00    -0.173 NA
HETATM   10  C   UNL     1      -5.380   5.357 -33.158  1.00  0.00     0.101 A 
ENDROOT
BRANCH   1  11
HETATM   11  C   UNL     1      -6.178   2.201 -32.404  1.00  0.00    -0.028 A 
HETATM   12  C   UNL     1      -4.983   1.461 -32.454  1.00  0.00     0.046 A 
HETATM   13  C   UNL     1      -4.509   0.761 -31.339  1.00  0.00     0.069 A 
HETATM   14  C   UNL     1      -5.242   0.782 -30.155  1.00  0.00     0.037 A 
HETATM   15  C   UNL     1      -6.436   1.501 -30.086  1.00  0.00     0.003 A 
HETATM   16  C   UNL     1      -6.900   2.205 -31.198  1.00  0.00     0.010 A 
BRANCH  13  17
HETATM   17  O   UNL     1      -3.327   0.103 -31.544  1.00  0.00    -0.348 OA
BRANCH  17  18
HETATM   18  C   UNL     1      -3.281  -0.817 -32.632  1.00  0.00     0.202 C 
BRANCH  18  19
HETATM   19  C   UNL     1      -3.602  -2.176 -32.085  1.00  0.00    -0.011 C 
HETATM   20  C   UNL     1      -3.476  -3.323 -32.765  1.00  0.00     0.009 C 
ENDBRANCH  18  19
ENDBRANCH  17  18
ENDBRANCH  13  17
ENDBRANCH   1  11
BRANCH   2  21
HETATM   21  C   UNL     1      -8.877   1.827 -34.187  1.00  0.00     0.165 C 
BRANCH  21  22
HETATM   22  C   UNL     1      -8.017   0.594 -34.273  1.00  0.00    -0.037 A 
HETATM   23  C   UNL     1      -7.131   0.407 -35.339  1.00  0.00     0.028 A 
HETATM   24  C   UNL     1      -6.367  -0.750 -35.372  1.00  0.00     0.116 A 
HETATM   25  N   UNL     1      -6.430  -1.719 -34.434  1.00  0.00    -0.273 NA
HETATM   26  C   UNL     1      -7.290  -1.520 -33.412  1.00  0.00     0.116 A 
HETATM   27  C   UNL     1      -8.091  -0.397 -33.289  1.00  0.00     0.028 A 
ENDBRANCH  21  22
ENDBRANCH   2  21
BRANCH  10  28
HETATM   28  C   UNL     1      -3.926   5.196 -33.075  1.00  0.00     0.028 A 
HETATM   29  C   UNL     1      -3.097   5.439 -34.186  1.00  0.00     0.078 A 
HETATM   30  C   UNL     1      -1.712   5.315 -34.097  1.00  0.00     0.037 A 
HETATM   31  C   UNL     1      -1.128   4.920 -32.896  1.00  0.00     0.003 A 
HETATM   32  C   UNL     1      -1.931   4.645 -31.790  1.00  0.00     0.001 A 
HETATM   33  C   UNL     1      -3.321   4.779 -31.880  1.00  0.00     0.017 A 
BRANCH  29  34
HETATM   34  O   UNL     1      -3.599   5.799 -35.411  1.00  0.00    -0.360 OA
HETATM   35  H   UNL     1      -3.044   5.333 -36.077  1.00  0.00     0.217 HD
ENDBRANCH  29  34
ENDBRANCH  10  28
TORSDOF 8
ENDMDL
MODEL 6
REMARK VINA RESULT:      -8.0      2.533      5.085
REMARK  8 active torsions:
REMARK  status: ('A' for Active; 'I' for Inactive)
REMARK    1  A    between atoms: C_2  and  C_3 
REMARK    2  A    between atoms: C_3  and  O_4 
REMARK    3  A    between atoms: O_4  and  C_5 
REMARK    4  A    between atoms: C_7  and  C_8 
REMARK    5  A    between atoms: N_9  and  C_10 
REMARK    6  A    between atoms: C_10  and  C_11 
REMARK    7  A    between atoms: C_24  and  C_25 
REMARK    8  A    between atoms: C_26  and  O_27 
ROOT
HETATM    1  C   UNL     1      -7.351   1.326 -31.850  1.00  0.00     0.159 A 
HETATM    2  N   UNL     1      -8.474   2.304 -31.824  1.00  0.00    -0.329 N 
HETATM    3  C   UNL     1      -9.268   2.288 -32.972  1.00  0.00     0.273 A 
HETATM    4  O   UNL     1     -10.269   2.938 -33.213  1.00  0.00    -0.266 OA
HETATM    5  C   UNL     1      -8.650   1.313 -33.787  1.00  0.00     0.129 A 
HETATM    6  C   UNL     1      -7.569   0.732 -33.190  1.00  0.00     0.034 A 
HETATM    7  N   UNL     1      -8.801   0.764 -35.000  1.00  0.00    -0.272 N 
HETATM    8  H   UNL     1      -9.499   0.960 -35.712  1.00  0.00     0.189 HD
HETATM    9  N   UNL     1      -7.843  -0.167 -35.245  1.00  0.00    -0.173 NA
HETATM   10  C   UNL     1      -7.106  -0.232 -34.103  1.00  0.00     0.101 A 
ENDROOT
BRANCH   1  11
HETATM   11  C   UNL     1      -5.987   1.976 -31.857  1.00  0.00    -0.028 A 
HETATM   12  C   UNL     1      -5.675   2.921 -32.850  1.00  0.00     0.046 A 
HETATM   13  C   UNL     1      -4.432   3.563 -32.885  1.00  0.00     0.069 A 
HETATM   14  C   UNL     1      -3.473   3.249 -31.925  1.00  0.00     0.037 A 
HETATM   15  C   UNL     1      -3.757   2.305 -30.937  1.00  0.00     0.003 A 
HETATM   16  C   UNL     1      -5.001   1.675 -30.901  1.00  0.00     0.010 A 
BRANCH  13  17
HETATM   17  O   UNL     1      -4.288   4.466 -33.902  1.00  0.00    -0.348 OA
BRANCH  17  18
HETATM   18  C   UNL     1      -3.879   5.784 -33.543  1.00  0.00     0.202 C 
BRANCH  18  19
HETATM   19  C   UNL     1      -2.475   5.969 -34.037  1.00  0.00    -0.011 C 
HETATM   20  C   UNL     1      -1.870   5.180 -34.934  1.00  0.00     0.009 C 
ENDBRANCH  18  19
ENDBRANCH  17  18
ENDBRANCH  13  17
ENDBRANCH   1  11
BRANCH   2  21
HETATM   21  C   UNL     1      -8.803   3.070 -30.642  1.00  0.00     0.165 C 
BRANCH  21  22
HETATM   22  C   UNL     1      -7.937   4.294 -30.504  1.00  0.00    -0.037 A 
HETATM   23  C   UNL     1      -7.045   4.428 -29.437  1.00  0.00     0.028 A 
HETATM   24  C   UNL     1      -6.276   5.579 -29.355  1.00  0.00     0.116 A 
HETATM   25  N   UNL     1      -6.340   6.591 -30.247  1.00  0.00    -0.273 NA
HETATM   26  C   UNL     1      -7.207   6.443 -31.272  1.00  0.00     0.116 A 
HETATM   27  C   UNL     1      -8.013   5.330 -31.441  1.00  0.00     0.028 A 
ENDBRANCH  21  22
ENDBRANCH   2  21
BRANCH  10  28
HETATM   28  C   UNL     1      -5.999  -1.184 -33.982  1.00  0.00     0.028 A 
HETATM   29  C   UNL     1      -6.119  -2.508 -34.442  1.00  0.00     0.078 A 
HETATM   30  C   UNL     1      -5.056  -3.404 -34.354  1.00  0.00     0.037 A 
HETATM   31  C   UNL     1      -3.854  -2.998 -33.779  1.00  0.00     0.003 A 
HETATM   32  C   UNL     1      -3.722  -1.700 -33.289  1.00  0.00     0.001 A 
HETATM   33  C   UNL     1      -4.789  -0.799 -33.387  1.00  0.00     0.017 A 
BRANCH  29  34
HETATM   34  O   UNL     1      -7.280  -2.993 -34.990  1.00  0.00    -0.360 OA
HETATM   35  H   UNL     1      -7.508  -3.798 -34.472  1.00  0.00     0.217 HD
ENDBRANCH  29  34
ENDBRANCH  10  28
TORSDOF 8
ENDMDL
MODEL 7
REMARK VINA RESULT:      -7.9      2.724      6.563
REMARK  8 active torsions:
REMARK  status: ('A' for Active; 'I' for Inactive)
REMARK    1  A    between atoms: C_2  and  C_3 
REMARK    2  A    between atoms: C_3  and  O_4 
REMARK    3  A    between atoms: O_4  and  C_5 
REMARK    4  A    between atoms: C_7  and  C_8 
REMARK    5  A    between atoms: N_9  and  C_10 
REMARK    6  A    between atoms: C_10  and  C_11 
REMARK    7  A    between atoms: C_24  and  C_25 
REMARK    8  A    between atoms: C_26  and  O_27 
ROOT
HETATM    1  C   UNL     1      -8.001   2.841 -33.129  1.00  0.00     0.159 A 
HETATM    2  N   UNL     1      -9.218   2.594 -32.306  1.00  0.00    -0.329 N 
HETATM    3  C   UNL     1      -9.125   3.075 -30.998  1.00  0.00     0.273 A 
HETATM    4  O   UNL     1      -9.969   3.055 -30.120  1.00  0.00    -0.266 OA
HETATM    5  C   UNL     1      -7.822   3.618 -30.938  1.00  0.00     0.129 A 
HETATM    6  C   UNL     1      -7.153   3.521 -32.123  1.00  0.00     0.034 A 
HETATM    7  N   UNL     1      -7.016   4.219 -30.052  1.00  0.00    -0.272 N 
HETATM    8  H   UNL     1      -7.191   4.449 -29.077  1.00  0.00     0.189 HD
HETATM    9  N   UNL     1      -5.812   4.523 -30.603  1.00  0.00    -0.173 NA
HETATM   10  C   UNL     1      -5.910   4.141 -31.905  1.00  0.00     0.101 A 
ENDROOT
BRANCH   1  11
HETATM   11  C   UNL     1      -7.288   1.576 -33.545  1.00  0.00    -0.028 A 
HETATM   12  C   UNL     1      -6.519   0.872 -32.601  1.00  0.00     0.046 A 
HETATM   13  C   UNL     1      -5.857  -0.315 -32.934  1.00  0.00     0.069 A 
HETATM   14  C   UNL     1      -5.946  -0.806 -34.235  1.00  0.00     0.037 A 
HETATM   15  C   UNL     1      -6.696  -0.118 -35.191  1.00  0.00     0.003 A 
HETATM   16  C   UNL     1      -7.361   1.060 -34.850  1.00  0.00     0.010 A 
BRANCH  13  17
HETATM   17  O   UNL     1      -5.163  -0.886 -31.904  1.00  0.00    -0.348 OA
BRANCH  17  18
HETATM   18  C   UNL     1      -3.756  -1.043 -32.081  1.00  0.00     0.202 C 
BRANCH  18  19
HETATM   19  C   UNL     1      -3.510  -2.467 -32.482  1.00  0.00    -0.011 C 
HETATM   20  C   UNL     1      -2.933  -3.391 -31.703  1.00  0.00     0.009 C 
ENDBRANCH  18  19
ENDBRANCH  17  18
ENDBRANCH  13  17
ENDBRANCH   1  11
BRANCH   2  21
HETATM   21  C   UNL     1     -10.437   2.061 -32.871  1.00  0.00     0.165 C 
BRANCH  21  22
HETATM   22  C   UNL     1     -11.262   3.128 -33.542  1.00  0.00    -0.037 A 
HETATM   23  C   UNL     1     -12.188   3.883 -32.817  1.00  0.00     0.028 A 
HETATM   24  C   UNL     1     -12.925   4.848 -33.486  1.00  0.00     0.116 A 
HETATM   25  N   UNL     1     -12.808   5.103 -34.806  1.00  0.00    -0.273 NA
HETATM   26  C   UNL     1     -11.907   4.364 -35.489  1.00  0.00     0.116 A 
HETATM   27  C   UNL     1     -11.122   3.381 -34.910  1.00  0.00     0.028 A 
ENDBRANCH  21  22
ENDBRANCH   2  21
BRANCH  10  28
HETATM   28  C   UNL     1      -4.799   4.367 -32.834  1.00  0.00     0.028 A 
HETATM   29  C   UNL     1      -3.469   4.101 -32.462  1.00  0.00     0.078 A 
HETATM   30  C   UNL     1      -2.416   4.289 -33.355  1.00  0.00     0.037 A 
HETATM   31  C   UNL     1      -2.673   4.772 -34.636  1.00  0.00     0.003 A 
HETATM   32  C   UNL     1      -3.980   5.071 -35.017  1.00  0.00     0.001 A 
HETATM   33  C   UNL     1      -5.036   4.874 -34.120  1.00  0.00     0.017 A 
BRANCH  29  34
HETATM   34  O   UNL     1      -3.131   3.655 -31.210  1.00  0.00    -0.360 OA
HETATM   35  H   UNL     1      -3.794   4.045 -30.596  1.00  0.00     0.217 HD
ENDBRANCH  29  34
ENDBRANCH  10  28
TORSDOF 8
ENDMDL
MODEL 8
REMARK VINA RESULT:      -7.8      6.158      8.780
REMARK  8 active torsions:
REMARK  status: ('A' for Active; 'I' for Inactive)
REMARK    1  A    between atoms: C_2  and  C_3 
REMARK    2  A    between atoms: C_3  and  O_4 
REMARK    3  A    between atoms: O_4  and  C_5 
REMARK    4  A    between atoms: C_7  and  C_8 
REMARK    5  A    between atoms: N_9  and  C_10 
REMARK    6  A    between atoms: C_10  and  C_11 
REMARK    7  A    between atoms: C_24  and  C_25 
REMARK    8  A    between atoms: C_26  and  O_27 
ROOT
HETATM    1  C   UNL     1      -1.063   7.855 -29.385  1.00  0.00     0.159 A 
HETATM    2  N   UNL     1      -0.377   8.147 -28.095  1.00  0.00    -0.329 N 
HETATM    3  C   UNL     1       0.511   7.150 -27.687  1.00  0.00     0.273 A 
HETATM    4  O   UNL     1       1.236   7.133 -26.708  1.00  0.00    -0.266 OA
HETATM    5  C   UNL     1       0.392   6.168 -28.696  1.00  0.00     0.129 A 
HETATM    6  C   UNL     1      -0.477   6.528 -29.685  1.00  0.00     0.034 A 
HETATM    7  N   UNL     1       0.885   4.958 -28.994  1.00  0.00    -0.272 N 
HETATM    8  H   UNL     1       1.552   4.391 -28.478  1.00  0.00     0.189 HD
HETATM    9  N   UNL     1       0.363   4.482 -30.154  1.00  0.00    -0.173 NA
HETATM   10  C   UNL     1      -0.443   5.476 -30.617  1.00  0.00     0.101 A 
ENDROOT
BRANCH   1  11
HETATM   11  C   UNL     1      -2.556   7.671 -29.245  1.00  0.00    -0.028 A 
HETATM   12  C   UNL     1      -3.407   8.104 -30.277  1.00  0.00     0.046 A 
HETATM   13  C   UNL     1      -4.795   7.937 -30.200  1.00  0.00     0.069 A 
HETATM   14  C   UNL     1      -5.351   7.344 -29.069  1.00  0.00     0.037 A 
HETATM   15  C   UNL     1      -4.526   6.916 -28.028  1.00  0.00     0.003 A 
HETATM   16  C   UNL     1      -3.142   7.076 -28.114  1.00  0.00     0.010 A 
BRANCH  13  17
HETATM   17  O   UNL     1      -5.482   8.397 -31.289  1.00  0.00    -0.348 OA
BRANCH  17  18
HETATM   18  C   UNL     1      -6.447   7.517 -31.863  1.00  0.00     0.202 C 
BRANCH  18  19
HETATM   19  C   UNL     1      -5.697   6.445 -32.596  1.00  0.00    -0.011 C 
HETATM   20  C   UNL     1      -6.263   5.504 -33.362  1.00  0.00     0.009 C 
ENDBRANCH  18  19
ENDBRANCH  17  18
ENDBRANCH  13  17
ENDBRANCH   1  11
BRANCH   2  21
HETATM   21  C   UNL     1      -0.499   9.424 -27.429  1.00  0.00     0.165 C 
BRANCH  21  22
HETATM   22  C   UNL     1      -1.633   9.438 -26.438  1.00  0.00    -0.037 A 
HETATM   23  C   UNL     1      -2.749  10.257 -26.632  1.00  0.00     0.028 A 
HETATM   24  C   UNL     1      -3.761  10.234 -25.686  1.00  0.00     0.116 A 
HETATM   25  N   UNL     1      -3.735   9.468 -24.574  1.00  0.00    -0.273 NA
HETATM   26  C   UNL     1      -2.650   8.682 -24.405  1.00  0.00     0.116 A 
HETATM   27  C   UNL     1      -1.590   8.632 -25.295  1.00  0.00     0.028 A 
ENDBRANCH  21  22
ENDBRANCH   2  21
BRANCH  10  28
HETATM   28  C   UNL     1      -1.142   5.334 -31.897  1.00  0.00     0.028 A 
HETATM   29  C   UNL     1      -2.074   4.302 -32.111  1.00  0.00     0.078 A 
HETATM   30  C   UNL     1      -2.761   4.184 -33.317  1.00  0.00     0.037 A 
HETATM   31  C   UNL     1      -2.509   5.088 -34.347  1.00  0.00     0.003 A 
HETATM   32  C   UNL     1      -1.569   6.101 -34.169  1.00  0.00     0.001 A 
HETATM   33  C   UNL     1      -0.887   6.221 -32.953  1.00  0.00     0.017 A 
BRANCH  29  34
HETATM   34  O   UNL     1      -2.352   3.354 -31.158  1.00  0.00    -0.360 OA
HETATM   35  H   UNL     1      -3.333   3.325 -31.084  1.00  0.00     0.217 HD
ENDBRANCH  29  34
ENDBRANCH  10  28
TORSDOF 8
ENDMDL
MODEL 9
REMARK VINA RESULT:      -7.8      4.610      9.044
REMARK  8 active torsions:
REMARK  status: ('A' for Active; 'I' for Inactive)
REMARK    1  A    between atoms: C_2  and  C_3 
REMARK    2  A    between atoms: C_3  and  O_4 
REMARK    3  A    between atoms: O_4  and  C_5 
REMARK    4  A    between atoms: C_7  and  C_8 
REMARK    5  A    between atoms: N_9  and  C_10 
REMARK    6  A    between atoms: C_10  and  C_11 
REMARK    7  A    between atoms: C_24  and  C_25 
REMARK    8  A    between atoms: C_26  and  O_27 
ROOT
HETATM    1  C   UNL     1      -3.808   5.328 -31.886  1.00  0.00     0.159 A 
HETATM    2  N   UNL     1      -4.479   4.837 -33.121  1.00  0.00    -0.329 N 
HETATM    3  C   UNL     1      -3.957   5.370 -34.301  1.00  0.00     0.273 A 
HETATM    4  O   UNL     1      -4.273   5.124 -35.451  1.00  0.00    -0.266 OA
HETATM    5  C   UNL     1      -2.950   6.252 -33.848  1.00  0.00     0.129 A 
HETATM    6  C   UNL     1      -2.820   6.252 -32.490  1.00  0.00     0.034 A 
HETATM    7  N   UNL     1      -2.055   7.112 -34.353  1.00  0.00    -0.272 N 
HETATM    8  H   UNL     1      -1.879   7.360 -35.323  1.00  0.00     0.189 HD
HETATM    9  N   UNL     1      -1.328   7.705 -33.371  1.00  0.00    -0.173 NA
HETATM   10  C   UNL     1      -1.760   7.135 -32.213  1.00  0.00     0.101 A 
ENDROOT
BRANCH   1  11
HETATM   11  C   UNL     1      -4.712   6.148 -30.995  1.00  0.00    -0.028 A 
HETATM   12  C   UNL     1      -4.706   5.922 -29.607  1.00  0.00     0.046 A 
HETATM   13  C   UNL     1      -5.511   6.669 -28.740  1.00  0.00     0.069 A 
HETATM   14  C   UNL     1      -6.352   7.650 -29.262  1.00  0.00     0.037 A 
HETATM   15  C   UNL     1      -6.381   7.884 -30.638  1.00  0.00     0.003 A 
HETATM   16  C   UNL     1      -5.569   7.142 -31.496  1.00  0.00     0.010 A 
BRANCH  13  17
HETATM   17  O   UNL     1      -5.381   6.339 -27.419  1.00  0.00    -0.348 OA
BRANCH  17  18
HETATM   18  C   UNL     1      -4.700   7.274 -26.584  1.00  0.00     0.202 C 
BRANCH  18  19
HETATM   19  C   UNL     1      -3.229   7.039 -26.754  1.00  0.00    -0.011 C 
HETATM   20  C   UNL     1      -2.414   6.569 -25.801  1.00  0.00     0.009 C 
ENDBRANCH  18  19
ENDBRANCH  17  18
ENDBRANCH  13  17
ENDBRANCH   1  11
BRANCH   2  21
HETATM   21  C   UNL     1      -5.460   3.776 -33.096  1.00  0.00     0.165 C 
BRANCH  21  22
HETATM   22  C   UNL     1      -5.011   2.611 -32.253  1.00  0.00    -0.037 A 
HETATM   23  C   UNL     1      -3.822   1.933 -32.537  1.00  0.00     0.028 A 
HETATM   24  C   UNL     1      -3.459   0.865 -31.732  1.00  0.00     0.116 A 
HETATM   25  N   UNL     1      -4.191   0.429 -30.686  1.00  0.00    -0.273 NA
HETATM   26  C   UNL     1      -5.336   1.097 -30.426  1.00  0.00     0.116 A 
HETATM   27  C   UNL     1      -5.781   2.178 -31.168  1.00  0.00     0.028 A 
ENDBRANCH  21  22
ENDBRANCH   2  21
BRANCH  10  28
HETATM   28  C   UNL     1      -1.152   7.498 -30.931  1.00  0.00     0.028 A 
HETATM   29  C   UNL     1       0.052   6.913 -30.499  1.00  0.00     0.078 A 
HETATM   30  C   UNL     1       0.645   7.281 -29.294  1.00  0.00     0.037 A 
HETATM   31  C   UNL     1       0.029   8.229 -28.480  1.00  0.00     0.003 A 
HETATM   32  C   UNL     1      -1.180   8.801 -28.873  1.00  0.00     0.001 A 
HETATM   33  C   UNL     1      -1.769   8.435 -30.088  1.00  0.00     0.017 A 
BRANCH  29  34
HETATM   34  O   UNL     1       0.702   5.949 -31.228  1.00  0.00    -0.360 OA
HETATM   35  H   UNL     1       1.458   5.653 -30.671  1.00  0.00     0.217 HD
ENDBRANCH  29  34
ENDBRANCH  10  28
TORSDOF 8
ENDMDL
MODEL 10
REMARK VINA RESULT:      -7.8      2.395      3.412
REMARK  8 active torsions:
REMARK  status: ('A' for Active; 'I' for Inactive)
REMARK    1  A    between atoms: C_2  and  C_3 
REMARK    2  A    between atoms: C_3  and  O_4 
REMARK    3  A    between atoms: O_4  and  C_5 
REMARK    4  A    between atoms: C_7  and  C_8 
REMARK    5  A    between atoms: N_9  and  C_10 
REMARK    6  A    between atoms: C_10  and  C_11 
REMARK    7  A    between atoms: C_24  and  C_25 
REMARK    8  A    between atoms: C_26  and  O_27 
ROOT
HETATM    1  C   UNL     1      -5.101   2.626 -33.149  1.00  0.00     0.159 A 
HETATM    2  N   UNL     1      -4.342   3.714 -32.472  1.00  0.00    -0.329 N 
HETATM    3  C   UNL     1      -3.378   3.257 -31.572  1.00  0.00     0.273 A 
HETATM    4  O   UNL     1      -2.586   3.906 -30.912  1.00  0.00    -0.266 OA
HETATM    5  C   UNL     1      -3.518   1.852 -31.623  1.00  0.00     0.129 A 
HETATM    6  C   UNL     1      -4.472   1.447 -32.511  1.00  0.00     0.034 A 
HETATM    7  N   UNL     1      -2.987   0.760 -31.054  1.00  0.00    -0.272 N 
HETATM    8  H   UNL     1      -2.258   0.692 -30.351  1.00  0.00     0.189 HD
HETATM    9  N   UNL     1      -3.565  -0.375 -31.527  1.00  0.00    -0.173 NA
HETATM   10  C   UNL     1      -4.450   0.042 -32.472  1.00  0.00     0.101 A 
ENDROOT
BRANCH   1  11
HETATM   11  C   UNL     1      -6.570   2.606 -32.794  1.00  0.00    -0.028 A 
HETATM   12  C   UNL     1      -7.525   2.406 -33.807  1.00  0.00     0.046 A 
HETATM   13  C   UNL     1      -8.894   2.359 -33.523  1.00  0.00     0.069 A 
HETATM   14  C   UNL     1      -9.327   2.532 -32.210  1.00  0.00     0.037 A 
HETATM   15  C   UNL     1      -8.397   2.742 -31.190  1.00  0.00     0.003 A 
HETATM   16  C   UNL     1      -7.032   2.778 -31.478  1.00  0.00     0.010 A 
BRANCH  13  17
HETATM   17  O   UNL     1      -9.692   2.144 -34.612  1.00  0.00    -0.348 OA
BRANCH  17  18
HETATM   18  C   UNL     1     -11.045   1.769 -34.357  1.00  0.00     0.202 C 
BRANCH  18  19
HETATM   19  C   UNL     1     -11.914   2.923 -34.759  1.00  0.00    -0.011 C 
HETATM   20  C   UNL     1     -12.357   3.150 -36.002  1.00  0.00     0.009 C 
ENDBRANCH  18  19
ENDBRANCH  17  18
ENDBRANCH  13  17
ENDBRANCH   1  11
BRANCH   2  21
HETATM   21  C   UNL     1      -4.480   5.103 -32.850  1.00  0.00     0.165 C 
BRANCH  21  22
HETATM   22  C   UNL     1      -3.188   5.679 -33.366  1.00  0.00    -0.037 A 
HETATM   23  C   UNL     1      -2.682   6.880 -32.859  1.00  0.00     0.028 A 
HETATM   24  C   UNL     1      -1.491   7.367 -33.375  1.00  0.00     0.116 A 
HETATM   25  N   UNL     1      -0.785   6.753 -34.348  1.00  0.00    -0.273 NA
HETATM   26  C   UNL     1      -1.289   5.594 -34.823  1.00  0.00     0.116 A 
HETATM   27  C   UNL     1      -2.467   5.024 -34.370  1.00  0.00     0.028 A 
ENDBRANCH  21  22
ENDBRANCH   2  21
BRANCH  10  28
HETATM   28  C   UNL     1      -5.230  -0.930 -33.243  1.00  0.00     0.028 A 
HETATM   29  C   UNL     1      -6.605  -1.117 -33.009  1.00  0.00     0.078 A 
HETATM   30  C   UNL     1      -7.352  -2.020 -33.762  1.00  0.00     0.037 A 
HETATM   31  C   UNL     1      -6.730  -2.774 -34.754  1.00  0.00     0.003 A 
HETATM   32  C   UNL     1      -5.364  -2.628 -34.985  1.00  0.00     0.001 A 
HETATM   33  C   UNL     1      -4.618  -1.714 -34.232  1.00  0.00     0.017 A 
BRANCH  29  34
HETATM   34  O   UNL     1      -7.282  -0.436 -32.028  1.00  0.00    -0.360 OA
HETATM   35  H   UNL     1      -6.633  -0.293 -31.302  1.00  0.00     0.217 HD
ENDBRANCH  29  34
ENDBRANCH  10  28
TORSDOF 8
ENDMDL
