MODEL 1
REMARK VINA RESULT:      -8.6      0.000      0.000
REMARK  4 active torsions:
REMARK  status: ('A' for Active; 'I' for Inactive)
REMARK    1  A    between atoms: C_3  and  O_4 
REMARK    2  A    between atoms: O_4  and  C_5 
REMARK    3  A    between atoms: C_11  and  C_12 
REMARK    4  A    between atoms: C_23  and  N_24 
ROOT
HETATM    1  C   UNL     1      -4.576   2.436 -30.785  1.00  0.00     0.244 A 
HETATM    2  N   UNL     1      -5.484   1.544 -31.468  1.00  0.00    -0.151 N 
HETATM    3  C   UNL     1      -6.835   1.614 -31.245  1.00  0.00     0.734 A 
HETATM    4  N   UNL     1      -7.444   0.666 -31.922  1.00  0.00    -0.060 NA
HETATM    5  C   UNL     1      -6.460  -0.045 -32.564  1.00  0.00     0.103 A 
HETATM    6  C   UNL     1      -5.202   0.485 -32.289  1.00  0.00     0.083 A 
HETATM    7  C   UNL     1      -6.569  -1.168 -33.395  1.00  0.00     0.034 A 
HETATM    8  C   UNL     1      -5.401  -1.726 -33.926  1.00  0.00     0.002 A 
HETATM    9  C   UNL     1      -4.151  -1.176 -33.636  1.00  0.00     0.002 A 
HETATM   10  C   UNL     1      -4.021  -0.055 -32.807  1.00  0.00     0.033 A 
HETATM   11  N   UNL     1      -7.397   2.538 -30.434  1.00  0.00    -0.033 NA
HETATM   12  C   UNL     1      -6.637   3.339 -29.780  1.00  0.00     0.193 A 
HETATM   13  N   UNL     1      -5.239   3.350 -29.856  1.00  0.00    -0.339 N 
HETATM   14  H   UNL     1      -4.708   4.080 -29.408  1.00  0.00     0.164 HD
ENDROOT
BRANCH   1  15
HETATM   15  C   UNL     1      -3.762   3.299 -31.734  1.00  0.00    -0.014 A 
HETATM   16  C   UNL     1      -4.285   3.729 -32.967  1.00  0.00     0.020 A 
HETATM   17  C   UNL     1      -3.553   4.580 -33.809  1.00  0.00    -0.027 A 
HETATM   18  C   UNL     1      -2.285   5.015 -33.397  1.00  0.00     0.086 A 
HETATM   19  C   UNL     1      -4.164   5.060 -35.097  1.00  0.00     0.051 C 
HETATM   20  C   UNL     1      -1.756   4.639 -32.152  1.00  0.00    -0.027 A 
HETATM   21  C   UNL     1      -0.418   5.136 -31.679  1.00  0.00     0.051 C 
HETATM   22  C   UNL     1      -2.494   3.762 -31.342  1.00  0.00     0.020 A 
BRANCH  18  23
HETATM   23  O   UNL     1      -1.607   5.905 -34.189  1.00  0.00    -0.289 OA
BRANCH  23  24
HETATM   24  C   UNL     1      -1.932   7.244 -33.836  1.00  0.00     0.505 C 
HETATM   25  F   UNL     1      -2.932   7.189 -32.921  1.00  0.00    -0.184 F 
HETATM   26  F   UNL     1      -0.856   7.783 -33.210  1.00  0.00    -0.184 F 
ENDBRANCH  23  24
ENDBRANCH  18  23
ENDBRANCH   1  15
BRANCH  12  27
HETATM   27  N   UNL     1      -7.114   4.285 -28.947  1.00  0.00    -0.272 NA
HETATM   28  H   UNL     1      -8.033   4.027 -28.591  1.00  0.00     0.127 HD
HETATM   29  H   UNL     1      -6.505   4.578 -28.195  1.00  0.00     0.127 HD
ENDBRANCH  12  27
TORSDOF 4
ENDMDL
MODEL 2
REMARK VINA RESULT:      -8.5      4.248      6.956
REMARK  4 active torsions:
REMARK  status: ('A' for Active; 'I' for Inactive)
REMARK    1  A    between atoms: C_3  and  O_4 
REMARK    2  A    between atoms: O_4  and  C_5 
REMARK    3  A    between atoms: C_11  and  C_12 
REMARK    4  A    between atoms: C_23  and  N_24 
ROOT
HETATM    1  C   UNL     1      -7.365   0.818 -33.636  1.00  0.00     0.244 A 
HETATM    2  N   UNL     1      -7.191   1.685 -32.493  1.00  0.00    -0.151 N 
HETATM    3  C   UNL     1      -8.175   1.798 -31.544  1.00  0.00     0.734 A 
HETATM    4  N   UNL     1      -7.818   2.688 -30.645  1.00  0.00    -0.060 NA
HETATM    5  C   UNL     1      -6.599   3.177 -31.043  1.00  0.00     0.103 A 
HETATM    6  C   UNL     1      -6.177   2.563 -32.220  1.00  0.00     0.083 A 
HETATM    7  C   UNL     1      -5.794   4.159 -30.450  1.00  0.00     0.034 A 
HETATM    8  C   UNL     1      -4.583   4.495 -31.064  1.00  0.00     0.002 A 
HETATM    9  C   UNL     1      -4.181   3.864 -32.244  1.00  0.00     0.002 A 
HETATM   10  C   UNL     1      -4.971   2.881 -32.851  1.00  0.00     0.033 A 
HETATM   11  N   UNL     1      -9.320   1.082 -31.587  1.00  0.00    -0.033 NA
HETATM   12  C   UNL     1      -9.540   0.316 -32.593  1.00  0.00     0.193 A 
HETATM   13  N   UNL     1      -8.660   0.141 -33.667  1.00  0.00    -0.339 N 
HETATM   14  H   UNL     1      -8.840  -0.562 -34.366  1.00  0.00     0.164 HD
ENDROOT
BRANCH   1  15
HETATM   15  C   UNL     1      -6.306  -0.268 -33.727  1.00  0.00    -0.014 A 
HETATM   16  C   UNL     1      -5.088  -0.165 -33.031  1.00  0.00     0.020 A 
HETATM   17  C   UNL     1      -4.142  -1.201 -33.066  1.00  0.00    -0.027 A 
HETATM   18  C   UNL     1      -4.435  -2.362 -33.797  1.00  0.00     0.086 A 
HETATM   19  C   UNL     1      -2.872  -1.078 -32.271  1.00  0.00     0.051 C 
HETATM   20  C   UNL     1      -5.661  -2.512 -34.463  1.00  0.00    -0.027 A 
HETATM   21  C   UNL     1      -6.005  -3.770 -35.212  1.00  0.00     0.051 C 
HETATM   22  C   UNL     1      -6.577  -1.449 -34.440  1.00  0.00     0.020 A 
BRANCH  18  23
HETATM   23  O   UNL     1      -3.540  -3.400 -33.766  1.00  0.00    -0.289 OA
BRANCH  23  24
HETATM   24  C   UNL     1      -3.852  -4.304 -32.713  1.00  0.00     0.505 C 
HETATM   25  F   UNL     1      -3.747  -5.559 -33.215  1.00  0.00    -0.184 F 
HETATM   26  F   UNL     1      -2.894  -4.180 -31.761  1.00  0.00    -0.184 F 
ENDBRANCH  23  24
ENDBRANCH  18  23
ENDBRANCH   1  15
BRANCH  12  27
HETATM   27  N   UNL     1     -10.658  -0.428 -32.716  1.00  0.00    -0.272 NA
HETATM   28  H   UNL     1     -11.334   0.029 -33.324  1.00  0.00     0.127 HD
HETATM   29  H   UNL     1     -10.532  -1.396 -32.979  1.00  0.00     0.127 HD
ENDBRANCH  12  27
TORSDOF 4
ENDMDL
MODEL 3
REMARK VINA RESULT:      -8.5      1.633      2.139
REMARK  4 active torsions:
REMARK  status: ('A' for Active; 'I' for Inactive)
REMARK    1  A    between atoms: C_3  and  O_4 
REMARK    2  A    between atoms: O_4  and  C_5 
REMARK    3  A    between atoms: C_11  and  C_12 
REMARK    4  A    between atoms: C_23  and  N_24 
ROOT
HETATM    1  C   UNL     1      -6.353   1.226 -31.301  1.00  0.00     0.244 A 
HETATM    2  N   UNL     1      -6.819   0.284 -32.292  1.00  0.00    -0.151 N 
HETATM    3  C   UNL     1      -8.159   0.148 -32.553  1.00  0.00     0.734 A 
HETATM    4  N   UNL     1      -8.341  -0.808 -33.436  1.00  0.00    -0.060 NA
HETATM    5  C   UNL     1      -7.098  -1.317 -33.720  1.00  0.00     0.103 A 
HETATM    6  C   UNL     1      -6.110  -0.647 -33.003  1.00  0.00     0.083 A 
HETATM    7  C   UNL     1      -6.737  -2.363 -34.580  1.00  0.00     0.034 A 
HETATM    8  C   UNL     1      -5.385  -2.705 -34.690  1.00  0.00     0.002 A 
HETATM    9  C   UNL     1      -4.413  -2.018 -33.961  1.00  0.00     0.002 A 
HETATM   10  C   UNL     1      -4.753  -0.971 -33.097  1.00  0.00     0.033 A 
HETATM   11  N   UNL     1      -9.102   0.908 -31.954  1.00  0.00    -0.033 NA
HETATM   12  C   UNL     1      -8.748   1.743 -31.046  1.00  0.00     0.193 A 
HETATM   13  N   UNL     1      -7.428   1.952 -30.628  1.00  0.00    -0.339 N 
HETATM   14  H   UNL     1      -7.205   2.703 -29.996  1.00  0.00     0.164 HD
ENDROOT
BRANCH   1  15
HETATM   15  C   UNL     1      -5.413   2.275 -31.873  1.00  0.00    -0.014 A 
HETATM   16  C   UNL     1      -5.801   3.103 -32.942  1.00  0.00     0.020 A 
HETATM   17  C   UNL     1      -4.955   4.114 -33.421  1.00  0.00    -0.027 A 
HETATM   18  C   UNL     1      -3.708   4.304 -32.805  1.00  0.00     0.086 A 
HETATM   19  C   UNL     1      -5.422   5.013 -34.533  1.00  0.00     0.051 C 
HETATM   20  C   UNL     1      -3.314   3.523 -31.707  1.00  0.00    -0.027 A 
HETATM   21  C   UNL     1      -2.000   3.747 -31.010  1.00  0.00     0.051 C 
HETATM   22  C   UNL     1      -4.164   2.498 -31.267  1.00  0.00     0.020 A 
BRANCH  18  23
HETATM   23  O   UNL     1      -2.918   5.340 -33.229  1.00  0.00    -0.289 OA
BRANCH  23  24
HETATM   24  C   UNL     1      -1.895   4.871 -34.099  1.00  0.00     0.505 C 
HETATM   25  F   UNL     1      -2.277   5.167 -35.367  1.00  0.00    -0.184 F 
HETATM   26  F   UNL     1      -0.773   5.591 -33.850  1.00  0.00    -0.184 F 
ENDBRANCH  23  24
ENDBRANCH  18  23
ENDBRANCH   1  15
BRANCH  12  27
HETATM   27  N   UNL     1      -9.625   2.535 -30.396  1.00  0.00    -0.272 NA
HETATM   28  H   UNL     1      -9.274   3.488 -30.330  1.00  0.00     0.127 HD
HETATM   29  H   UNL     1     -10.580   2.524 -30.729  1.00  0.00     0.127 HD
ENDBRANCH  12  27
TORSDOF 4
ENDMDL
MODEL 4
REMARK VINA RESULT:      -8.5     17.598     19.858
REMARK  4 active torsions:
REMARK  status: ('A' for Active; 'I' for Inactive)
REMARK    1  A    between atoms: C_3  and  O_4 
REMARK    2  A    between atoms: O_4  and  C_5 
REMARK    3  A    between atoms: C_11  and  C_12 
REMARK    4  A    between atoms: C_23  and  N_24 
ROOT
HETATM    1  C   UNL     1      -5.463 -12.670 -39.631  1.00  0.00     0.244 A 
HETATM    2  N   UNL     1      -4.467 -13.635 -40.036  1.00  0.00    -0.151 N 
HETATM    3  C   UNL     1      -3.522 -14.080 -39.147  1.00  0.00     0.734 A 
HETATM    4  N   UNL     1      -2.692 -14.896 -39.759  1.00  0.00    -0.060 NA
HETATM    5  C   UNL     1      -3.093 -14.947 -41.070  1.00  0.00     0.103 A 
HETATM    6  C   UNL     1      -4.216 -14.150 -41.279  1.00  0.00     0.083 A 
HETATM    7  C   UNL     1      -2.537 -15.651 -42.147  1.00  0.00     0.034 A 
HETATM    8  C   UNL     1      -3.131 -15.529 -43.408  1.00  0.00     0.002 A 
HETATM    9  C   UNL     1      -4.257 -14.724 -43.592  1.00  0.00     0.002 A 
HETATM   10  C   UNL     1      -4.827 -14.013 -42.530  1.00  0.00     0.033 A 
HETATM   11  N   UNL     1      -3.495 -13.696 -37.852  1.00  0.00    -0.033 NA
HETATM   12  C   UNL     1      -4.339 -12.819 -37.444  1.00  0.00     0.193 A 
HETATM   13  N   UNL     1      -5.324 -12.229 -38.244  1.00  0.00    -0.339 N 
HETATM   14  H   UNL     1      -6.028 -11.636 -37.835  1.00  0.00     0.164 HD
ENDROOT
BRANCH   1  15
HETATM   15  C   UNL     1      -6.885 -13.182 -39.783  1.00  0.00    -0.014 A 
HETATM   16  C   UNL     1      -7.216 -14.522 -39.510  1.00  0.00     0.020 A 
HETATM   17  C   UNL     1      -8.542 -14.972 -39.588  1.00  0.00    -0.027 A 
HETATM   18  C   UNL     1      -9.550 -14.058 -39.929  1.00  0.00     0.086 A 
HETATM   19  C   UNL     1      -8.866 -16.400 -39.242  1.00  0.00     0.051 C 
HETATM   20  C   UNL     1      -9.256 -12.706 -40.161  1.00  0.00    -0.027 A 
HETATM   21  C   UNL     1     -10.334 -11.707 -40.482  1.00  0.00     0.051 C 
HETATM   22  C   UNL     1      -7.919 -12.286 -40.109  1.00  0.00     0.020 A 
BRANCH  18  23
HETATM   23  O   UNL     1     -10.852 -14.487 -39.930  1.00  0.00    -0.289 OA
BRANCH  23  24
HETATM   24  C   UNL     1     -11.245 -14.901 -41.233  1.00  0.00     0.505 C 
HETATM   25  F   UNL     1     -11.448 -16.241 -41.187  1.00  0.00    -0.184 F 
HETATM   26  F   UNL     1     -12.446 -14.332 -41.507  1.00  0.00    -0.184 F 
ENDBRANCH  23  24
ENDBRANCH  18  23
ENDBRANCH   1  15
BRANCH  12  27
HETATM   27  N   UNL     1      -4.378 -12.377 -36.170  1.00  0.00    -0.272 NA
HETATM   28  H   UNL     1      -4.838 -13.054 -35.564  1.00  0.00     0.127 HD
HETATM   29  H   UNL     1      -3.502 -12.070 -35.769  1.00  0.00     0.127 HD
ENDBRANCH  12  27
TORSDOF 4
ENDMDL
MODEL 5
REMARK VINA RESULT:      -8.4      4.799      6.418
REMARK  4 active torsions:
REMARK  status: ('A' for Active; 'I' for Inactive)
REMARK    1  A    between atoms: C_3  and  O_4 
REMARK    2  A    between atoms: O_4  and  C_5 
REMARK    3  A    between atoms: C_11  and  C_12 
REMARK    4  A    between atoms: C_23  and  N_24 
ROOT
HETATM    1  C   UNL     1      -6.934   0.960 -30.974  1.00  0.00     0.244 A 
HETATM    2  N   UNL     1      -7.888   1.742 -31.726  1.00  0.00    -0.151 N 
HETATM    3  C   UNL     1      -7.758   3.104 -31.819  1.00  0.00     0.734 A 
HETATM    4  N   UNL     1      -8.773   3.599 -32.492  1.00  0.00    -0.060 NA
HETATM    5  C   UNL     1      -9.584   2.537 -32.806  1.00  0.00     0.103 A 
HETATM    6  C   UNL     1      -9.052   1.344 -32.327  1.00  0.00     0.083 A 
HETATM    7  C   UNL     1     -10.804   2.521 -33.496  1.00  0.00     0.034 A 
HETATM    8  C   UNL     1     -11.454   1.296 -33.682  1.00  0.00     0.002 A 
HETATM    9  C   UNL     1     -10.899   0.111 -33.192  1.00  0.00     0.002 A 
HETATM   10  C   UNL     1      -9.682   0.107 -32.500  1.00  0.00     0.033 A 
HETATM   11  N   UNL     1      -6.723   3.780 -31.272  1.00  0.00    -0.033 NA
HETATM   12  C   UNL     1      -5.860   3.140 -30.570  1.00  0.00     0.193 A 
HETATM   13  N   UNL     1      -5.891   1.760 -30.335  1.00  0.00    -0.339 N 
HETATM   14  H   UNL     1      -5.121   1.303 -29.874  1.00  0.00     0.164 HD
ENDROOT
BRANCH   1  15
HETATM   15  C   UNL     1      -6.223  -0.085 -31.818  1.00  0.00    -0.014 A 
HETATM   16  C   UNL     1      -6.804  -0.601 -32.991  1.00  0.00     0.020 A 
HETATM   17  C   UNL     1      -6.114  -1.514 -33.801  1.00  0.00    -0.027 A 
HETATM   18  C   UNL     1      -4.816  -1.901 -33.435  1.00  0.00     0.086 A 
HETATM   19  C   UNL     1      -6.746  -2.008 -35.074  1.00  0.00     0.051 C 
HETATM   20  C   UNL     1      -4.193  -1.368 -32.295  1.00  0.00    -0.027 A 
HETATM   21  C   UNL     1      -2.786  -1.739 -31.917  1.00  0.00     0.051 C 
HETATM   22  C   UNL     1      -4.916  -0.480 -31.484  1.00  0.00     0.020 A 
BRANCH  18  23
HETATM   23  O   UNL     1      -4.120  -2.736 -34.269  1.00  0.00    -0.289 OA
BRANCH  23  24
HETATM   24  C   UNL     1      -4.259  -4.091 -33.858  1.00  0.00     0.505 C 
HETATM   25  F   UNL     1      -4.969  -4.733 -34.819  1.00  0.00    -0.184 F 
HETATM   26  F   UNL     1      -3.024  -4.651 -33.843  1.00  0.00    -0.184 F 
ENDBRANCH  23  24
ENDBRANCH  18  23
ENDBRANCH   1  15
BRANCH  12  27
HETATM   27  N   UNL     1      -4.802   3.738 -29.987  1.00  0.00    -0.272 NA
HETATM   28  H   UNL     1      -5.083   4.231 -29.141  1.00  0.00     0.127 HD
HETATM   29  H   UNL     1      -3.991   3.158 -29.815  1.00  0.00     0.127 HD
ENDBRANCH  12  27
TORSDOF 4
ENDMDL
MODEL 6
REMARK VINA RESULT:      -8.3      4.391      6.676
REMARK  4 active torsions:
REMARK  status: ('A' for Active; 'I' for Inactive)
REMARK    1  A    between atoms: C_3  and  O_4 
REMARK    2  A    between atoms: O_4  and  C_5 
REMARK    3  A    between atoms: C_11  and  C_12 
REMARK    4  A    between atoms: C_23  and  N_24 
ROOT
HETATM    1  C   UNL     1      -5.228   3.383 -32.557  1.00  0.00     0.244 A 
HETATM    2  N   UNL     1      -6.536   3.990 -32.651  1.00  0.00    -0.151 N 
HETATM    3  C   UNL     1      -6.761   5.037 -33.508  1.00  0.00     0.734 A 
HETATM    4  N   UNL     1      -7.998   5.460 -33.370  1.00  0.00    -0.060 NA
HETATM    5  C   UNL     1      -8.564   4.692 -32.383  1.00  0.00     0.103 A 
HETATM    6  C   UNL     1      -7.656   3.753 -31.901  1.00  0.00     0.083 A 
HETATM    7  C   UNL     1      -9.853   4.749 -31.837  1.00  0.00     0.034 A 
HETATM    8  C   UNL     1     -10.191   3.852 -30.817  1.00  0.00     0.002 A 
HETATM    9  C   UNL     1      -9.263   2.918 -30.352  1.00  0.00     0.002 A 
HETATM   10  C   UNL     1      -7.970   2.846 -30.883  1.00  0.00     0.033 A 
HETATM   11  N   UNL     1      -5.812   5.520 -34.339  1.00  0.00    -0.033 NA
HETATM   12  C   UNL     1      -4.625   5.038 -34.279  1.00  0.00     0.193 A 
HETATM   13  N   UNL     1      -4.226   4.010 -33.416  1.00  0.00    -0.339 N 
HETATM   14  H   UNL     1      -3.311   3.598 -33.501  1.00  0.00     0.164 HD
ENDROOT
BRANCH   1  15
HETATM   15  C   UNL     1      -5.232   1.903 -32.903  1.00  0.00    -0.014 A 
HETATM   16  C   UNL     1      -4.383   0.994 -32.246  1.00  0.00     0.020 A 
HETATM   17  C   UNL     1      -4.439  -0.380 -32.523  1.00  0.00    -0.027 A 
HETATM   18  C   UNL     1      -5.371  -0.846 -33.463  1.00  0.00     0.086 A 
HETATM   19  C   UNL     1      -3.551  -1.330 -31.767  1.00  0.00     0.051 C 
HETATM   20  C   UNL     1      -6.261   0.032 -34.100  1.00  0.00    -0.027 A 
HETATM   21  C   UNL     1      -7.295  -0.460 -35.074  1.00  0.00     0.051 C 
HETATM   22  C   UNL     1      -6.165   1.406 -33.830  1.00  0.00     0.020 A 
BRANCH  18  23
HETATM   23  O   UNL     1      -5.470  -2.196 -33.675  1.00  0.00    -0.289 OA
BRANCH  23  24
HETATM   24  C   UNL     1      -4.555  -2.618 -34.679  1.00  0.00     0.505 C 
HETATM   25  F   UNL     1      -3.873  -3.680 -34.182  1.00  0.00    -0.184 F 
HETATM   26  F   UNL     1      -5.275  -3.074 -35.734  1.00  0.00    -0.184 F 
ENDBRANCH  23  24
ENDBRANCH  18  23
ENDBRANCH   1  15
BRANCH  12  27
HETATM   27  N   UNL     1      -3.619   5.466 -35.069  1.00  0.00    -0.272 NA
HETATM   28  H   UNL     1      -3.210   6.324 -34.704  1.00  0.00     0.127 HD
HETATM   29  H   UNL     1      -2.900   4.792 -35.295  1.00  0.00     0.127 HD
ENDBRANCH  12  27
TORSDOF 4
ENDMDL
MODEL 7
REMARK VINA RESULT:      -8.3      2.300      2.771
REMARK  4 active torsions:
REMARK  status: ('A' for Active; 'I' for Inactive)
REMARK    1  A    between atoms: C_3  and  O_4 
REMARK    2  A    between atoms: O_4  and  C_5 
REMARK    3  A    between atoms: C_11  and  C_12 
REMARK    4  A    between atoms: C_23  and  N_24 
ROOT
HETATM    1  C   UNL     1      -5.661   3.898 -31.991  1.00  0.00     0.244 A 
HETATM    2  N   UNL     1      -5.610   2.591 -32.604  1.00  0.00    -0.151 N 
HETATM    3  C   UNL     1      -6.408   2.290 -33.679  1.00  0.00     0.734 A 
HETATM    4  N   UNL     1      -6.236   1.032 -34.017  1.00  0.00    -0.060 NA
HETATM    5  C   UNL     1      -5.336   0.509 -33.122  1.00  0.00     0.103 A 
HETATM    6  C   UNL     1      -4.925   1.474 -32.207  1.00  0.00     0.083 A 
HETATM    7  C   UNL     1      -4.828  -0.794 -33.025  1.00  0.00     0.034 A 
HETATM    8  C   UNL     1      -3.918  -1.086 -32.003  1.00  0.00     0.002 A 
HETATM    9  C   UNL     1      -3.521  -0.100 -31.097  1.00  0.00     0.002 A 
HETATM   10  C   UNL     1      -4.017   1.206 -31.177  1.00  0.00     0.033 A 
HETATM   11  N   UNL     1      -7.233   3.193 -34.254  1.00  0.00    -0.033 NA
HETATM   12  C   UNL     1      -7.339   4.362 -33.735  1.00  0.00     0.193 A 
HETATM   13  N   UNL     1      -6.636   4.797 -32.605  1.00  0.00    -0.339 N 
HETATM   14  H   UNL     1      -6.676   5.762 -32.318  1.00  0.00     0.164 HD
ENDROOT
BRANCH   1  15
HETATM   15  C   UNL     1      -4.325   4.622 -32.021  1.00  0.00    -0.014 A 
HETATM   16  C   UNL     1      -3.498   4.589 -33.158  1.00  0.00     0.020 A 
HETATM   17  C   UNL     1      -2.297   5.314 -33.203  1.00  0.00    -0.027 A 
HETATM   18  C   UNL     1      -1.934   6.094 -32.095  1.00  0.00     0.086 A 
HETATM   19  C   UNL     1      -1.462   5.295 -34.453  1.00  0.00     0.051 C 
HETATM   20  C   UNL     1      -2.762   6.182 -30.965  1.00  0.00    -0.027 A 
HETATM   21  C   UNL     1      -2.406   7.050 -29.790  1.00  0.00     0.051 C 
HETATM   22  C   UNL     1      -3.941   5.423 -30.931  1.00  0.00     0.020 A 
BRANCH  18  23
HETATM   23  O   UNL     1      -0.798   6.857 -32.174  1.00  0.00    -0.289 OA
BRANCH  23  24
HETATM   24  C   UNL     1       0.190   6.387 -31.265  1.00  0.00     0.505 C 
HETATM   25  F   UNL     1       0.462   5.099 -31.596  1.00  0.00    -0.184 F 
HETATM   26  F   UNL     1       1.326   7.095 -31.481  1.00  0.00    -0.184 F 
ENDBRANCH  23  24
ENDBRANCH  18  23
ENDBRANCH   1  15
BRANCH  12  27
HETATM   27  N   UNL     1      -8.141   5.319 -34.243  1.00  0.00    -0.272 NA
HETATM   28  H   UNL     1      -8.694   4.957 -35.017  1.00  0.00     0.127 HD
HETATM   29  H   UNL     1      -8.724   5.818 -33.584  1.00  0.00     0.127 HD
ENDBRANCH  12  27
TORSDOF 4
ENDMDL
MODEL 8
REMARK VINA RESULT:      -8.2      3.695      6.363
REMARK  4 active torsions:
REMARK  status: ('A' for Active; 'I' for Inactive)
REMARK    1  A    between atoms: C_3  and  O_4 
REMARK    2  A    between atoms: O_4  and  C_5 
REMARK    3  A    between atoms: C_11  and  C_12 
REMARK    4  A    between atoms: C_23  and  N_24 
ROOT
HETATM    1  C   UNL     1      -5.731   4.200 -32.123  1.00  0.00     0.244 A 
HETATM    2  N   UNL     1      -4.450   4.857 -32.000  1.00  0.00    -0.151 N 
HETATM    3  C   UNL     1      -4.089   5.472 -30.828  1.00  0.00     0.734 A 
HETATM    4  N   UNL     1      -2.919   6.052 -30.977  1.00  0.00    -0.060 NA
HETATM    5  C   UNL     1      -2.541   5.834 -32.279  1.00  0.00     0.103 A 
HETATM    6  C   UNL     1      -3.497   5.083 -32.956  1.00  0.00     0.083 A 
HETATM    7  C   UNL     1      -1.390   6.259 -32.956  1.00  0.00     0.034 A 
HETATM    8  C   UNL     1      -1.238   5.913 -34.303  1.00  0.00     0.002 A 
HETATM    9  C   UNL     1      -2.211   5.158 -34.961  1.00  0.00     0.002 A 
HETATM   10  C   UNL     1      -3.368   4.725 -34.302  1.00  0.00     0.033 A 
HETATM   11  N   UNL     1      -4.865   5.454 -29.722  1.00  0.00    -0.033 NA
HETATM   12  C   UNL     1      -6.025   4.908 -29.782  1.00  0.00     0.193 A 
HETATM   13  N   UNL     1      -6.558   4.294 -30.921  1.00  0.00    -0.339 N 
HETATM   14  H   UNL     1      -7.424   3.783 -30.869  1.00  0.00     0.164 HD
ENDROOT
BRANCH   1  15
HETATM   15  C   UNL     1      -5.612   2.721 -32.453  1.00  0.00    -0.014 A 
HETATM   16  C   UNL     1      -4.863   1.847 -31.644  1.00  0.00     0.020 A 
HETATM   17  C   UNL     1      -4.812   0.472 -31.916  1.00  0.00    -0.027 A 
HETATM   18  C   UNL     1      -5.537  -0.031 -33.007  1.00  0.00     0.086 A 
HETATM   19  C   UNL     1      -4.041  -0.440 -31.002  1.00  0.00     0.051 C 
HETATM   20  C   UNL     1      -6.330   0.810 -33.803  1.00  0.00    -0.027 A 
HETATM   21  C   UNL     1      -7.148   0.275 -34.946  1.00  0.00     0.051 C 
HETATM   22  C   UNL     1      -6.339   2.186 -33.530  1.00  0.00     0.020 A 
BRANCH  18  23
HETATM   23  O   UNL     1      -5.543  -1.385 -33.222  1.00  0.00    -0.289 OA
BRANCH  23  24
HETATM   24  C   UNL     1      -4.466  -1.765 -34.072  1.00  0.00     0.505 C 
HETATM   25  F   UNL     1      -3.723  -2.677 -33.397  1.00  0.00    -0.184 F 
HETATM   26  F   UNL     1      -4.989  -2.403 -35.147  1.00  0.00    -0.184 F 
ENDBRANCH  23  24
ENDBRANCH  18  23
ENDBRANCH   1  15
BRANCH  12  27
HETATM   27  N   UNL     1      -6.864   4.852 -28.727  1.00  0.00    -0.272 NA
HETATM   28  H   UNL     1      -7.333   3.950 -28.683  1.00  0.00     0.127 HD
HETATM   29  H   UNL     1      -6.478   5.103 -27.827  1.00  0.00     0.127 HD
ENDBRANCH  12  27
TORSDOF 4
ENDMDL
MODEL 9
REMARK VINA RESULT:      -8.1      4.942      6.605
REMARK  4 active torsions:
REMARK  status: ('A' for Active; 'I' for Inactive)
REMARK    1  A    between atoms: C_3  and  O_4 
REMARK    2  A    between atoms: O_4  and  C_5 
REMARK    3  A    between atoms: C_11  and  C_12 
REMARK    4  A    between atoms: C_23  and  N_24 
ROOT
HETATM    1  C   UNL     1      -8.857   3.267 -32.467  1.00  0.00     0.244 A 
HETATM    2  N   UNL     1      -9.758   3.381 -33.590  1.00  0.00    -0.151 N 
HETATM    3  C   UNL     1      -9.657   4.432 -34.465  1.00  0.00     0.734 A 
HETATM    4  N   UNL     1     -10.619   4.356 -35.358  1.00  0.00    -0.060 NA
HETATM    5  C   UNL     1     -11.370   3.255 -35.028  1.00  0.00     0.103 A 
HETATM    6  C   UNL     1     -10.851   2.618 -33.904  1.00  0.00     0.083 A 
HETATM    7  C   UNL     1     -12.520   2.742 -35.642  1.00  0.00     0.034 A 
HETATM    8  C   UNL     1     -13.116   1.598 -35.102  1.00  0.00     0.002 A 
HETATM    9  C   UNL     1     -12.577   0.976 -33.974  1.00  0.00     0.002 A 
HETATM   10  C   UNL     1     -11.429   1.473 -33.346  1.00  0.00     0.033 A 
HETATM   11  N   UNL     1      -8.696   5.376 -34.368  1.00  0.00    -0.033 NA
HETATM   12  C   UNL     1      -7.884   5.341 -33.375  1.00  0.00     0.193 A 
HETATM   13  N   UNL     1      -7.899   4.367 -32.369  1.00  0.00    -0.339 N 
HETATM   14  H   UNL     1      -7.162   4.329 -31.683  1.00  0.00     0.164 HD
ENDROOT
BRANCH   1  15
HETATM   15  C   UNL     1      -8.043   1.984 -32.485  1.00  0.00    -0.014 A 
HETATM   16  C   UNL     1      -7.792   1.290 -33.682  1.00  0.00     0.020 A 
HETATM   17  C   UNL     1      -6.984   0.143 -33.701  1.00  0.00    -0.027 A 
HETATM   18  C   UNL     1      -6.409  -0.301 -32.501  1.00  0.00     0.086 A 
HETATM   19  C   UNL     1      -6.698  -0.546 -35.007  1.00  0.00     0.051 C 
HETATM   20  C   UNL     1      -6.604   0.397 -31.299  1.00  0.00    -0.027 A 
HETATM   21  C   UNL     1      -5.955  -0.042 -30.016  1.00  0.00     0.051 C 
HETATM   22  C   UNL     1      -7.441   1.523 -31.300  1.00  0.00     0.020 A 
BRANCH  18  23
HETATM   23  O   UNL     1      -5.562  -1.378 -32.539  1.00  0.00    -0.289 OA
BRANCH  23  24
HETATM   24  C   UNL     1      -4.207  -0.951 -32.617  1.00  0.00     0.505 C 
HETATM   25  F   UNL     1      -3.501  -1.686 -31.722  1.00  0.00    -0.184 F 
HETATM   26  F   UNL     1      -3.738  -1.276 -33.847  1.00  0.00    -0.184 F 
ENDBRANCH  23  24
ENDBRANCH  18  23
ENDBRANCH   1  15
BRANCH  12  27
HETATM   27  N   UNL     1      -6.900   6.246 -33.200  1.00  0.00    -0.272 NA
HETATM   28  H   UNL     1      -7.276   7.131 -32.864  1.00  0.00     0.127 HD
HETATM   29  H   UNL     1      -6.109   5.955 -32.642  1.00  0.00     0.127 HD
ENDBRANCH  12  27
TORSDOF 4
ENDMDL
MODEL 10
REMARK VINA RESULT:      -8.1      4.182      6.537
REMARK  4 active torsions:
REMARK  status: ('A' for Active; 'I' for Inactive)
REMARK    1  A    between atoms: C_3  and  O_4 
REMARK    2  A    between atoms: O_4  and  C_5 
REMARK    3  A    between atoms: C_11  and  C_12 
REMARK    4  A    between atoms: C_23  and  N_24 
ROOT
HETATM    1  C   UNL     1      -4.748   2.486 -31.544  1.00  0.00     0.244 A 
HETATM    2  N   UNL     1      -5.726   3.544 -31.647  1.00  0.00    -0.151 N 
HETATM    3  C   UNL     1      -5.362   4.793 -32.083  1.00  0.00     0.734 A 
HETATM    4  N   UNL     1      -6.400   5.598 -32.029  1.00  0.00    -0.060 NA
HETATM    5  C   UNL     1      -7.438   4.860 -31.517  1.00  0.00     0.103 A 
HETATM    6  C   UNL     1      -7.038   3.552 -31.258  1.00  0.00     0.083 A 
HETATM    7  C   UNL     1      -8.755   5.247 -31.236  1.00  0.00     0.034 A 
HETATM    8  C   UNL     1      -9.634   4.300 -30.700  1.00  0.00     0.002 A 
HETATM    9  C   UNL     1      -9.209   2.993 -30.449  1.00  0.00     0.002 A 
HETATM   10  C   UNL     1      -7.898   2.587 -30.722  1.00  0.00     0.033 A 
HETATM   11  N   UNL     1      -4.108   5.091 -32.488  1.00  0.00    -0.033 NA
HETATM   12  C   UNL     1      -3.192   4.198 -32.393  1.00  0.00     0.193 A 
HETATM   13  N   UNL     1      -3.395   2.898 -31.912  1.00  0.00    -0.339 N 
HETATM   14  H   UNL     1      -2.662   2.210 -31.973  1.00  0.00     0.164 HD
ENDROOT
BRANCH   1  15
HETATM   15  C   UNL     1      -5.083   1.280 -32.406  1.00  0.00    -0.014 A 
HETATM   16  C   UNL     1      -6.000   1.370 -33.469  1.00  0.00     0.020 A 
HETATM   17  C   UNL     1      -6.255   0.270 -34.303  1.00  0.00    -0.027 A 
HETATM   18  C   UNL     1      -5.565  -0.930 -34.073  1.00  0.00     0.086 A 
HETATM   19  C   UNL     1      -7.205   0.416 -35.459  1.00  0.00     0.051 C 
HETATM   20  C   UNL     1      -4.611  -1.034 -33.049  1.00  0.00    -0.027 A 
HETATM   21  C   UNL     1      -3.831  -2.301 -32.822  1.00  0.00     0.051 C 
HETATM   22  C   UNL     1      -4.397   0.069 -32.209  1.00  0.00     0.020 A 
BRANCH  18  23
HETATM   23  O   UNL     1      -5.763  -1.976 -34.935  1.00  0.00    -0.289 OA
BRANCH  23  24
HETATM   24  C   UNL     1      -6.572  -2.980 -34.333  1.00  0.00     0.505 C 
HETATM   25  F   UNL     1      -7.646  -2.358 -33.786  1.00  0.00    -0.184 F 
HETATM   26  F   UNL     1      -7.043  -3.782 -35.319  1.00  0.00    -0.184 F 
ENDBRANCH  23  24
ENDBRANCH  18  23
ENDBRANCH   1  15
BRANCH  12  27
HETATM   27  N   UNL     1      -1.915   4.414 -32.769  1.00  0.00    -0.272 NA
HETATM   28  H   UNL     1      -1.672   3.842 -33.575  1.00  0.00     0.127 HD
HETATM   29  H   UNL     1      -1.641   5.377 -32.913  1.00  0.00     0.127 HD
ENDBRANCH  12  27
TORSDOF 4
ENDMDL
