MODEL 1
REMARK VINA RESULT:      -9.4      0.000      0.000
REMARK  4 active torsions:
REMARK  status: ('A' for Active; 'I' for Inactive)
REMARK    1  A    between atoms: C_8  and  C_9 
REMARK       I    between atoms: C_9  and  N_10 
REMARK    2  A    between atoms: N_10  and  C_11 
REMARK    3  A    between atoms: C_12  and  N_13 
REMARK    4  A    between atoms: C_16  and  O_17 
ROOT
HETATM    1  C   UNL     1      -4.975   3.600 -30.455  1.00  0.00     0.256 C 
HETATM    2  N   UNL     1      -4.202   4.628 -30.952  1.00  0.00    -0.321 N 
HETATM    3  O   UNL     1      -5.556   3.741 -29.379  1.00  0.00    -0.267 OA
HETATM    4  H   UNL     1      -3.892   5.302 -30.264  1.00  0.00     0.169 HD
ENDROOT
BRANCH   2   5
HETATM    5  C   UNL     1      -3.749   4.838 -32.265  1.00  0.00     0.061 A 
HETATM    6  C   UNL     1      -4.649   5.255 -33.281  1.00  0.00     0.057 A 
HETATM    7  C   UNL     1      -4.102   5.342 -34.577  1.00  0.00     0.031 A 
HETATM    8  C   UNL     1      -2.773   5.003 -34.863  1.00  0.00     0.002 A 
HETATM    9  C   UNL     1      -1.927   4.582 -33.848  1.00  0.00     0.002 A 
HETATM   10  C   UNL     1      -2.409   4.514 -32.548  1.00  0.00     0.032 A 
BRANCH   6  11
HETATM   11  N   UNL     1      -5.984   5.581 -33.045  1.00  0.00    -0.379 N 
HETATM   12  C   UNL     1      -7.080   4.895 -33.738  1.00  0.00     0.125 C 
HETATM   13  C   UNL     1      -8.127   4.491 -32.701  1.00  0.00     0.051 C 
HETATM   14  C   UNL     1      -8.563   5.656 -31.811  1.00  0.00     0.121 C 
HETATM   15  C   UNL     1      -7.389   6.486 -31.287  1.00  0.00     0.051 C 
HETATM   16  C   UNL     1      -6.402   6.832 -32.401  1.00  0.00     0.125 C 
BRANCH  14  17
HETATM   17  O   UNL     1      -9.492   6.489 -32.505  1.00  0.00    -0.395 OA
HETATM   18  H   UNL     1     -10.378   6.361 -32.130  1.00  0.00     0.210 HD
ENDBRANCH  14  17
ENDBRANCH   6  11
ENDBRANCH   2   5
BRANCH   1  19
HETATM   19  C   UNL     1      -4.983   2.254 -31.113  1.00  0.00     0.033 A 
HETATM   20  C   UNL     1      -6.126   1.748 -31.749  1.00  0.00     0.025 A 
HETATM   21  C   UNL     1      -6.030   0.548 -32.439  1.00  0.00    -0.042 A 
HETATM   22  C   UNL     1      -4.811  -0.148 -32.546  1.00  0.00    -0.019 A 
HETATM   23  C   UNL     1      -7.129  -0.179 -33.182  1.00  0.00     0.078 A 
HETATM   24  C   UNL     1      -5.022  -1.316 -33.375  1.00  0.00    -0.019 A 
HETATM   25  C   UNL     1      -3.671   0.347 -31.934  1.00  0.00     0.014 A 
HETATM   26  C   UNL     1      -6.382  -1.358 -33.763  1.00  0.00    -0.043 A 
HETATM   27  C   UNL     1      -4.142  -2.289 -33.815  1.00  0.00     0.013 A 
HETATM   28  C   UNL     1      -6.877  -2.363 -34.576  1.00  0.00     0.008 A 
HETATM   29  C   UNL     1      -5.989  -3.344 -35.017  1.00  0.00     0.001 A 
HETATM   30  C   UNL     1      -4.634  -3.306 -34.642  1.00  0.00     0.001 A 
HETATM   31  C   UNL     1      -3.764   1.552 -31.216  1.00  0.00     0.018 A 
ENDBRANCH   1  19
TORSDOF 4
ENDMDL
MODEL 2
REMARK VINA RESULT:      -9.4      2.099      4.194
REMARK  4 active torsions:
REMARK  status: ('A' for Active; 'I' for Inactive)
REMARK    1  A    between atoms: C_8  and  C_9 
REMARK       I    between atoms: C_9  and  N_10 
REMARK    2  A    between atoms: N_10  and  C_11 
REMARK    3  A    between atoms: C_12  and  N_13 
REMARK    4  A    between atoms: C_16  and  O_17 
ROOT
HETATM    1  C   UNL     1      -5.529   3.863 -31.325  1.00  0.00     0.256 C 
HETATM    2  N   UNL     1      -4.500   4.760 -31.511  1.00  0.00    -0.321 N 
HETATM    3  O   UNL     1      -6.331   4.039 -30.409  1.00  0.00    -0.267 OA
HETATM    4  H   UNL     1      -4.267   5.321 -30.702  1.00  0.00     0.169 HD
ENDROOT
BRANCH   2   5
HETATM    5  C   UNL     1      -3.702   4.967 -32.650  1.00  0.00     0.061 A 
HETATM    6  C   UNL     1      -2.348   5.374 -32.517  1.00  0.00     0.057 A 
HETATM    7  C   UNL     1      -1.675   5.642 -33.726  1.00  0.00     0.031 A 
HETATM    8  C   UNL     1      -2.301   5.556 -34.977  1.00  0.00     0.002 A 
HETATM    9  C   UNL     1      -3.631   5.174 -35.067  1.00  0.00     0.002 A 
HETATM   10  C   UNL     1      -4.327   4.864 -33.906  1.00  0.00     0.032 A 
BRANCH   6  11
HETATM   11  N   UNL     1      -1.692   5.493 -31.293  1.00  0.00    -0.379 N 
HETATM   12  C   UNL     1      -0.826   4.429 -30.775  1.00  0.00     0.125 C 
HETATM   13  C   UNL     1       0.484   5.060 -30.306  1.00  0.00     0.051 C 
HETATM   14  C   UNL     1       0.270   6.233 -29.347  1.00  0.00     0.121 C 
HETATM   15  C   UNL     1      -0.810   7.208 -29.821  1.00  0.00     0.051 C 
HETATM   16  C   UNL     1      -2.073   6.475 -30.270  1.00  0.00     0.125 C 
BRANCH  14  17
HETATM   17  O   UNL     1      -0.033   5.753 -28.037  1.00  0.00    -0.395 OA
HETATM   18  H   UNL     1      -0.138   4.788 -28.067  1.00  0.00     0.210 HD
ENDBRANCH  14  17
ENDBRANCH   6  11
ENDBRANCH   2   5
BRANCH   1  19
HETATM   19  C   UNL     1      -5.590   2.586 -32.108  1.00  0.00     0.033 A 
HETATM   20  C   UNL     1      -4.576   1.621 -32.031  1.00  0.00     0.025 A 
HETATM   21  C   UNL     1      -4.752   0.414 -32.690  1.00  0.00    -0.042 A 
HETATM   22  C   UNL     1      -5.934   0.123 -33.397  1.00  0.00    -0.019 A 
HETATM   23  C   UNL     1      -3.791  -0.753 -32.750  1.00  0.00     0.078 A 
HETATM   24  C   UNL     1      -5.839  -1.227 -33.912  1.00  0.00    -0.019 A 
HETATM   25  C   UNL     1      -6.950   1.061 -33.470  1.00  0.00     0.014 A 
HETATM   26  C   UNL     1      -4.585  -1.766 -33.545  1.00  0.00    -0.043 A 
HETATM   27  C   UNL     1      -6.744  -1.993 -34.627  1.00  0.00     0.013 A 
HETATM   28  C   UNL     1      -4.216  -3.055 -33.889  1.00  0.00     0.008 A 
HETATM   29  C   UNL     1      -5.129  -3.825 -34.611  1.00  0.00     0.001 A 
HETATM   30  C   UNL     1      -6.381  -3.299 -34.975  1.00  0.00     0.001 A 
HETATM   31  C   UNL     1      -6.772   2.296 -32.822  1.00  0.00     0.018 A 
ENDBRANCH   1  19
TORSDOF 4
ENDMDL
MODEL 3
REMARK VINA RESULT:      -9.2      2.363      4.184
REMARK  4 active torsions:
REMARK  status: ('A' for Active; 'I' for Inactive)
REMARK    1  A    between atoms: C_8  and  C_9 
REMARK       I    between atoms: C_9  and  N_10 
REMARK    2  A    between atoms: N_10  and  C_11 
REMARK    3  A    between atoms: C_12  and  N_13 
REMARK    4  A    between atoms: C_16  and  O_17 
ROOT
HETATM    1  C   UNL     1      -5.801   3.135 -33.533  1.00  0.00     0.256 C 
HETATM    2  N   UNL     1      -7.078   3.623 -33.708  1.00  0.00    -0.321 N 
HETATM    3  O   UNL     1      -4.843   3.905 -33.589  1.00  0.00    -0.267 OA
HETATM    4  H   UNL     1      -7.136   4.510 -34.192  1.00  0.00     0.169 HD
ENDROOT
BRANCH   2   5
HETATM    5  C   UNL     1      -8.305   3.038 -33.351  1.00  0.00     0.061 A 
HETATM    6  C   UNL     1      -8.682   2.928 -31.987  1.00  0.00     0.057 A 
HETATM    7  C   UNL     1      -9.888   2.239 -31.745  1.00  0.00     0.031 A 
HETATM    8  C   UNL     1     -10.650   1.663 -32.771  1.00  0.00     0.002 A 
HETATM    9  C   UNL     1     -10.241   1.774 -34.091  1.00  0.00     0.002 A 
HETATM   10  C   UNL     1      -9.078   2.474 -34.383  1.00  0.00     0.032 A 
BRANCH   6  11
HETATM   11  N   UNL     1      -7.944   3.467 -30.934  1.00  0.00    -0.379 N 
HETATM   12  C   UNL     1      -7.111   2.628 -30.067  1.00  0.00     0.125 C 
HETATM   13  C   UNL     1      -5.739   3.287 -29.932  1.00  0.00     0.051 C 
HETATM   14  C   UNL     1      -5.824   4.756 -29.511  1.00  0.00     0.121 C 
HETATM   15  C   UNL     1      -6.872   5.547 -30.296  1.00  0.00     0.051 C 
HETATM   16  C   UNL     1      -8.202   4.798 -30.373  1.00  0.00     0.125 C 
BRANCH  14  17
HETATM   17  O   UNL     1      -6.071   4.855 -28.108  1.00  0.00    -0.395 OA
HETATM   18  H   UNL     1      -6.186   5.789 -27.870  1.00  0.00     0.210 HD
ENDBRANCH  14  17
ENDBRANCH   6  11
ENDBRANCH   2   5
BRANCH   1  19
HETATM   19  C   UNL     1      -5.544   1.661 -33.446  1.00  0.00     0.033 A 
HETATM   20  C   UNL     1      -6.278   0.735 -34.201  1.00  0.00     0.025 A 
HETATM   21  C   UNL     1      -5.910  -0.601 -34.161  1.00  0.00    -0.042 A 
HETATM   22  C   UNL     1      -4.800  -1.040 -33.415  1.00  0.00    -0.019 A 
HETATM   23  C   UNL     1      -6.563  -1.760 -34.882  1.00  0.00     0.078 A 
HETATM   24  C   UNL     1      -4.639  -2.463 -33.627  1.00  0.00    -0.019 A 
HETATM   25  C   UNL     1      -4.057  -0.135 -32.675  1.00  0.00     0.014 A 
HETATM   26  C   UNL     1      -5.667  -2.913 -34.489  1.00  0.00    -0.043 A 
HETATM   27  C   UNL     1      -3.684  -3.350 -33.161  1.00  0.00     0.013 A 
HETATM   28  C   UNL     1      -5.760  -4.236 -34.884  1.00  0.00     0.008 A 
HETATM   29  C   UNL     1      -4.797  -5.128 -34.411  1.00  0.00     0.001 A 
HETATM   30  C   UNL     1      -3.768  -4.689 -33.560  1.00  0.00     0.001 A 
HETATM   31  C   UNL     1      -4.436   1.219 -32.693  1.00  0.00     0.018 A 
ENDBRANCH   1  19
TORSDOF 4
ENDMDL
MODEL 4
REMARK VINA RESULT:      -8.7      3.032      5.252
REMARK  4 active torsions:
REMARK  status: ('A' for Active; 'I' for Inactive)
REMARK    1  A    between atoms: C_8  and  C_9 
REMARK       I    between atoms: C_9  and  N_10 
REMARK    2  A    between atoms: N_10  and  C_11 
REMARK    3  A    between atoms: C_12  and  N_13 
REMARK    4  A    between atoms: C_16  and  O_17 
ROOT
HETATM    1  C   UNL     1      -7.109   2.950 -34.118  1.00  0.00     0.256 C 
HETATM    2  N   UNL     1      -8.410   3.404 -34.174  1.00  0.00    -0.321 N 
HETATM    3  O   UNL     1      -6.189   3.756 -33.987  1.00  0.00    -0.267 OA
HETATM    4  H   UNL     1      -8.514   4.376 -34.433  1.00  0.00     0.169 HD
ENDROOT
BRANCH   2   5
HETATM    5  C   UNL     1      -9.604   2.692 -33.970  1.00  0.00     0.061 A 
HETATM    6  C   UNL     1      -9.794   1.924 -32.791  1.00  0.00     0.057 A 
HETATM    7  C   UNL     1     -10.989   1.178 -32.739  1.00  0.00     0.031 A 
HETATM    8  C   UNL     1     -11.915   1.157 -33.791  1.00  0.00     0.002 A 
HETATM    9  C   UNL     1     -11.688   1.905 -34.936  1.00  0.00     0.002 A 
HETATM   10  C   UNL     1     -10.542   2.684 -35.020  1.00  0.00     0.032 A 
BRANCH   6  11
HETATM   11  N   UNL     1      -8.890   1.899 -31.730  1.00  0.00    -0.379 N 
HETATM   12  C   UNL     1      -8.358   0.640 -31.198  1.00  0.00     0.125 C 
HETATM   13  C   UNL     1      -6.842   0.776 -31.064  1.00  0.00     0.051 C 
HETATM   14  C   UNL     1      -6.424   2.026 -30.287  1.00  0.00     0.121 C 
HETATM   15  C   UNL     1      -7.172   3.286 -30.725  1.00  0.00     0.051 C 
HETATM   16  C   UNL     1      -8.676   3.040 -30.832  1.00  0.00     0.125 C 
BRANCH  14  17
HETATM   17  O   UNL     1      -6.585   1.813 -28.884  1.00  0.00    -0.395 OA
HETATM   18  H   UNL     1      -5.878   2.277 -28.407  1.00  0.00     0.210 HD
ENDBRANCH  14  17
ENDBRANCH   6  11
ENDBRANCH   2   5
BRANCH   1  19
HETATM   19  C   UNL     1      -6.783   1.512 -34.386  1.00  0.00     0.033 A 
HETATM   20  C   UNL     1      -5.633   0.904 -33.862  1.00  0.00     0.025 A 
HETATM   21  C   UNL     1      -5.453  -0.459 -34.051  1.00  0.00    -0.042 A 
HETATM   22  C   UNL     1      -6.410  -1.245 -34.719  1.00  0.00    -0.019 A 
HETATM   23  C   UNL     1      -4.292  -1.309 -33.584  1.00  0.00     0.078 A 
HETATM   24  C   UNL     1      -5.967  -2.624 -34.696  1.00  0.00    -0.019 A 
HETATM   25  C   UNL     1      -7.557  -0.661 -35.230  1.00  0.00     0.014 A 
HETATM   26  C   UNL     1      -4.720  -2.688 -34.032  1.00  0.00    -0.043 A 
HETATM   27  C   UNL     1      -6.564  -3.778 -35.171  1.00  0.00     0.013 A 
HETATM   28  C   UNL     1      -4.055  -3.888 -33.845  1.00  0.00     0.008 A 
HETATM   29  C   UNL     1      -4.657  -5.051 -34.326  1.00  0.00     0.001 A 
HETATM   30  C   UNL     1      -5.901  -4.996 -34.981  1.00  0.00     0.001 A 
HETATM   31  C   UNL     1      -7.738   0.723 -35.061  1.00  0.00     0.018 A 
ENDBRANCH   1  19
TORSDOF 4
ENDMDL
MODEL 5
REMARK VINA RESULT:      -8.5      2.664      6.765
REMARK  4 active torsions:
REMARK  status: ('A' for Active; 'I' for Inactive)
REMARK    1  A    between atoms: C_8  and  C_9 
REMARK       I    between atoms: C_9  and  N_10 
REMARK    2  A    between atoms: N_10  and  C_11 
REMARK    3  A    between atoms: C_12  and  N_13 
REMARK    4  A    between atoms: C_16  and  O_17 
ROOT
HETATM    1  C   UNL     1      -6.205   3.979 -33.611  1.00  0.00     0.256 C 
HETATM    2  N   UNL     1      -6.428   2.629 -33.773  1.00  0.00    -0.321 N 
HETATM    3  O   UNL     1      -6.831   4.785 -34.299  1.00  0.00    -0.267 OA
HETATM    4  H   UNL     1      -6.842   2.365 -34.658  1.00  0.00     0.169 HD
ENDROOT
BRANCH   2   5
HETATM    5  C   UNL     1      -6.118   1.571 -32.901  1.00  0.00     0.061 A 
HETATM    6  C   UNL     1      -6.958   1.277 -31.795  1.00  0.00     0.057 A 
HETATM    7  C   UNL     1      -6.496   0.257 -30.938  1.00  0.00     0.031 A 
HETATM    8  C   UNL     1      -5.274  -0.400 -31.132  1.00  0.00     0.002 A 
HETATM    9  C   UNL     1      -4.470  -0.074 -32.213  1.00  0.00     0.002 A 
HETATM   10  C   UNL     1      -4.898   0.899 -33.106  1.00  0.00     0.032 A 
BRANCH   6  11
HETATM   11  N   UNL     1      -8.170   1.920 -31.552  1.00  0.00    -0.379 N 
HETATM   12  C   UNL     1      -8.317   2.911 -30.481  1.00  0.00     0.125 C 
HETATM   13  C   UNL     1      -9.026   4.138 -31.053  1.00  0.00     0.051 C 
HETATM   14  C   UNL     1     -10.325   3.788 -31.783  1.00  0.00     0.121 C 
HETATM   15  C   UNL     1     -10.180   2.595 -32.731  1.00  0.00     0.051 C 
HETATM   16  C   UNL     1      -9.456   1.428 -32.062  1.00  0.00     0.125 C 
BRANCH  14  17
HETATM   17  O   UNL     1     -11.373   3.552 -30.842  1.00  0.00    -0.395 OA
HETATM   18  H   UNL     1     -11.896   2.788 -31.133  1.00  0.00     0.210 HD
ENDBRANCH  14  17
ENDBRANCH   6  11
ENDBRANCH   2   5
BRANCH   1  19
HETATM   19  C   UNL     1      -5.094   4.478 -32.738  1.00  0.00     0.033 A 
HETATM   20  C   UNL     1      -3.759   4.482 -33.168  1.00  0.00     0.025 A 
HETATM   21  C   UNL     1      -2.798   5.066 -32.355  1.00  0.00    -0.042 A 
HETATM   22  C   UNL     1      -3.136   5.682 -31.136  1.00  0.00    -0.019 A 
HETATM   23  C   UNL     1      -1.312   5.171 -32.616  1.00  0.00     0.078 A 
HETATM   24  C   UNL     1      -1.933   6.249 -30.561  1.00  0.00    -0.019 A 
HETATM   25  C   UNL     1      -4.452   5.698 -30.705  1.00  0.00     0.014 A 
HETATM   26  C   UNL     1      -0.843   5.960 -31.414  1.00  0.00    -0.043 A 
HETATM   27  C   UNL     1      -1.739   6.987 -29.407  1.00  0.00     0.013 A 
HETATM   28  C   UNL     1       0.441   6.391 -31.126  1.00  0.00     0.008 A 
HETATM   29  C   UNL     1       0.635   7.134 -29.961  1.00  0.00     0.001 A 
HETATM   30  C   UNL     1      -0.445   7.431 -29.111  1.00  0.00     0.001 A 
HETATM   31  C   UNL     1      -5.430   5.091 -31.512  1.00  0.00     0.018 A 
ENDBRANCH   1  19
TORSDOF 4
ENDMDL
MODEL 6
REMARK VINA RESULT:      -8.3     16.369     18.951
REMARK  4 active torsions:
REMARK  status: ('A' for Active; 'I' for Inactive)
REMARK    1  A    between atoms: C_8  and  C_9 
REMARK       I    between atoms: C_9  and  N_10 
REMARK    2  A    between atoms: N_10  and  C_11 
REMARK    3  A    between atoms: C_12  and  N_13 
REMARK    4  A    between atoms: C_16  and  O_17 
ROOT
HETATM    1  C   UNL     1      -4.640 -12.455 -38.515  1.00  0.00     0.256 C 
HETATM    2  N   UNL     1      -5.947 -12.079 -38.289  1.00  0.00    -0.321 N 
HETATM    3  O   UNL     1      -3.729 -11.869 -37.931  1.00  0.00    -0.267 OA
HETATM    4  H   UNL     1      -6.067 -11.145 -37.918  1.00  0.00     0.169 HD
ENDROOT
BRANCH   2   5
HETATM    5  C   UNL     1      -7.129 -12.793 -38.547  1.00  0.00     0.061 A 
HETATM    6  C   UNL     1      -7.482 -13.915 -37.751  1.00  0.00     0.057 A 
HETATM    7  C   UNL     1      -8.639 -14.609 -38.162  1.00  0.00     0.031 A 
HETATM    8  C   UNL     1      -9.375 -14.249 -39.299  1.00  0.00     0.002 A 
HETATM    9  C   UNL     1      -8.990 -13.158 -40.062  1.00  0.00     0.002 A 
HETATM   10  C   UNL     1      -7.878 -12.421 -39.679  1.00  0.00     0.032 A 
BRANCH   6  11
HETATM   11  N   UNL     1      -6.768 -14.321 -36.626  1.00  0.00    -0.379 N 
HETATM   12  C   UNL     1      -6.033 -15.590 -36.594  1.00  0.00     0.125 C 
HETATM   13  C   UNL     1      -4.632 -15.323 -36.046  1.00  0.00     0.051 C 
HETATM   14  C   UNL     1      -4.648 -14.560 -34.720  1.00  0.00     0.121 C 
HETATM   15  C   UNL     1      -5.604 -13.365 -34.724  1.00  0.00     0.051 C 
HETATM   16  C   UNL     1      -6.971 -13.740 -35.293  1.00  0.00     0.125 C 
BRANCH  14  17
HETATM   17  O   UNL     1      -4.960 -15.445 -33.644  1.00  0.00    -0.395 OA
HETATM   18  H   UNL     1      -5.290 -16.283 -34.006  1.00  0.00     0.210 HD
ENDBRANCH  14  17
ENDBRANCH   6  11
ENDBRANCH   2   5
BRANCH   1  19
HETATM   19  C   UNL     1      -4.297 -13.447 -39.584  1.00  0.00     0.033 A 
HETATM   20  C   UNL     1      -4.731 -13.289 -40.908  1.00  0.00     0.025 A 
HETATM   21  C   UNL     1      -4.279 -14.180 -41.870  1.00  0.00    -0.042 A 
HETATM   22  C   UNL     1      -3.373 -15.209 -41.556  1.00  0.00    -0.019 A 
HETATM   23  C   UNL     1      -4.626 -14.201 -43.342  1.00  0.00     0.078 A 
HETATM   24  C   UNL     1      -3.047 -15.921 -42.775  1.00  0.00    -0.019 A 
HETATM   25  C   UNL     1      -2.924 -15.370 -40.255  1.00  0.00     0.014 A 
HETATM   26  C   UNL     1      -3.774 -15.346 -43.843  1.00  0.00    -0.043 A 
HETATM   27  C   UNL     1      -2.179 -16.973 -43.009  1.00  0.00     0.013 A 
HETATM   28  C   UNL     1      -3.654 -15.812 -45.141  1.00  0.00     0.008 A 
HETATM   29  C   UNL     1      -2.780 -16.875 -45.375  1.00  0.00     0.001 A 
HETATM   30  C   UNL     1      -2.048 -17.447 -44.320  1.00  0.00     0.001 A 
HETATM   31  C   UNL     1      -3.392 -14.483 -39.270  1.00  0.00     0.018 A 
ENDBRANCH   1  19
TORSDOF 4
ENDMDL
MODEL 7
REMARK VINA RESULT:      -8.3      1.882      3.860
REMARK  4 active torsions:
REMARK  status: ('A' for Active; 'I' for Inactive)
REMARK    1  A    between atoms: C_8  and  C_9 
REMARK       I    between atoms: C_9  and  N_10 
REMARK    2  A    between atoms: N_10  and  C_11 
REMARK    3  A    between atoms: C_12  and  N_13 
REMARK    4  A    between atoms: C_16  and  O_17 
ROOT
HETATM    1  C   UNL     1      -7.735   3.169 -30.125  1.00  0.00     0.256 C 
HETATM    2  N   UNL     1      -8.356   4.171 -30.840  1.00  0.00    -0.321 N 
HETATM    3  O   UNL     1      -7.500   3.332 -28.928  1.00  0.00    -0.267 OA
HETATM    4  H   UNL     1      -8.287   5.095 -30.433  1.00  0.00     0.169 HD
ENDROOT
BRANCH   2   5
HETATM    5  C   UNL     1      -9.024   4.093 -32.074  1.00  0.00     0.061 A 
HETATM    6  C   UNL     1      -8.367   4.470 -33.275  1.00  0.00     0.057 A 
HETATM    7  C   UNL     1      -9.165   4.441 -34.437  1.00  0.00     0.031 A 
HETATM    8  C   UNL     1     -10.525   4.103 -34.414  1.00  0.00     0.002 A 
HETATM    9  C   UNL     1     -11.138   3.758 -33.219  1.00  0.00     0.002 A 
HETATM   10  C   UNL     1     -10.385   3.737 -32.053  1.00  0.00     0.032 A 
BRANCH   6  11
HETATM   11  N   UNL     1      -7.023   4.833 -33.341  1.00  0.00    -0.379 N 
HETATM   12  C   UNL     1      -6.567   6.176 -32.967  1.00  0.00     0.125 C 
HETATM   13  C   UNL     1      -5.361   6.035 -32.040  1.00  0.00     0.051 C 
HETATM   14  C   UNL     1      -4.271   5.127 -32.615  1.00  0.00     0.121 C 
HETATM   15  C   UNL     1      -4.821   3.824 -33.201  1.00  0.00     0.051 C 
HETATM   16  C   UNL     1      -6.024   4.078 -34.108  1.00  0.00     0.125 C 
BRANCH  14  17
HETATM   17  O   UNL     1      -3.507   5.831 -33.594  1.00  0.00    -0.395 OA
HETATM   18  H   UNL     1      -3.042   5.190 -34.157  1.00  0.00     0.210 HD
ENDBRANCH  14  17
ENDBRANCH   6  11
ENDBRANCH   2   5
BRANCH   1  19
HETATM   19  C   UNL     1      -7.188   1.956 -30.813  1.00  0.00     0.033 A 
HETATM   20  C   UNL     1      -7.928   1.251 -31.773  1.00  0.00     0.025 A 
HETATM   21  C   UNL     1      -7.318   0.209 -32.455  1.00  0.00    -0.042 A 
HETATM   22  C   UNL     1      -5.971  -0.130 -32.234  1.00  0.00    -0.019 A 
HETATM   23  C   UNL     1      -7.928  -0.682 -33.514  1.00  0.00     0.078 A 
HETATM   24  C   UNL     1      -5.614  -1.206 -33.136  1.00  0.00    -0.019 A 
HETATM   25  C   UNL     1      -5.222   0.565 -31.298  1.00  0.00     0.014 A 
HETATM   26  C   UNL     1      -6.752  -1.550 -33.902  1.00  0.00    -0.043 A 
HETATM   27  C   UNL     1      -4.412  -1.858 -33.342  1.00  0.00     0.013 A 
HETATM   28  C   UNL     1      -6.709  -2.544 -34.865  1.00  0.00     0.008 A 
HETATM   29  C   UNL     1      -5.495  -3.202 -35.070  1.00  0.00     0.001 A 
HETATM   30  C   UNL     1      -4.358  -2.861 -34.318  1.00  0.00     0.001 A 
HETATM   31  C   UNL     1      -5.839   1.610 -30.587  1.00  0.00     0.018 A 
ENDBRANCH   1  19
TORSDOF 4
ENDMDL
MODEL 8
REMARK VINA RESULT:      -8.3      3.241      6.397
REMARK  4 active torsions:
REMARK  status: ('A' for Active; 'I' for Inactive)
REMARK    1  A    between atoms: C_8  and  C_9 
REMARK       I    between atoms: C_9  and  N_10 
REMARK    2  A    between atoms: N_10  and  C_11 
REMARK    3  A    between atoms: C_12  and  N_13 
REMARK    4  A    between atoms: C_16  and  O_17 
ROOT
HETATM    1  C   UNL     1      -6.849   1.043 -33.473  1.00  0.00     0.256 C 
HETATM    2  N   UNL     1      -7.908   1.088 -32.590  1.00  0.00    -0.321 N 
HETATM    3  O   UNL     1      -6.803   0.153 -34.321  1.00  0.00    -0.267 OA
HETATM    4  H   UNL     1      -8.407   0.216 -32.474  1.00  0.00     0.169 HD
ENDROOT
BRANCH   2   5
HETATM    5  C   UNL     1      -8.354   2.161 -31.799  1.00  0.00     0.061 A 
HETATM    6  C   UNL     1      -9.468   2.941 -32.205  1.00  0.00     0.057 A 
HETATM    7  C   UNL     1      -9.766   4.047 -31.383  1.00  0.00     0.031 A 
HETATM    8  C   UNL     1      -8.996   4.386 -30.261  1.00  0.00     0.002 A 
HETATM    9  C   UNL     1      -7.903   3.611 -29.906  1.00  0.00     0.002 A 
HETATM   10  C   UNL     1      -7.591   2.491 -30.664  1.00  0.00     0.032 A 
BRANCH   6  11
HETATM   11  N   UNL     1     -10.248   2.653 -33.324  1.00  0.00    -0.379 N 
HETATM   12  C   UNL     1     -11.103   1.463 -33.383  1.00  0.00     0.125 C 
HETATM   13  C   UNL     1     -12.486   1.886 -33.877  1.00  0.00     0.051 C 
HETATM   14  C   UNL     1     -12.431   2.699 -35.172  1.00  0.00     0.121 C 
HETATM   15  C   UNL     1     -11.364   3.795 -35.151  1.00  0.00     0.051 C 
HETATM   16  C   UNL     1     -10.024   3.268 -34.638  1.00  0.00     0.125 C 
BRANCH  14  17
HETATM   17  O   UNL     1     -12.235   1.834 -36.291  1.00  0.00    -0.395 OA
HETATM   18  H   UNL     1     -13.069   1.380 -36.494  1.00  0.00     0.210 HD
ENDBRANCH  14  17
ENDBRANCH   6  11
ENDBRANCH   2   5
BRANCH   1  19
HETATM   19  C   UNL     1      -5.670   1.953 -33.310  1.00  0.00     0.033 A 
HETATM   20  C   UNL     1      -5.686   3.276 -33.771  1.00  0.00     0.025 A 
HETATM   21  C   UNL     1      -4.606   4.097 -33.483  1.00  0.00    -0.042 A 
HETATM   22  C   UNL     1      -3.519   3.646 -32.712  1.00  0.00    -0.019 A 
HETATM   23  C   UNL     1      -4.412   5.542 -33.888  1.00  0.00     0.078 A 
HETATM   24  C   UNL     1      -2.594   4.746 -32.535  1.00  0.00    -0.019 A 
HETATM   25  C   UNL     1      -3.495   2.345 -32.237  1.00  0.00     0.014 A 
HETATM   26  C   UNL     1      -3.098   5.876 -33.219  1.00  0.00    -0.043 A 
HETATM   27  C   UNL     1      -1.408   4.832 -31.827  1.00  0.00     0.013 A 
HETATM   28  C   UNL     1      -2.429   7.088 -33.216  1.00  0.00     0.008 A 
HETATM   29  C   UNL     1      -1.232   7.172 -32.503  1.00  0.00     0.001 A 
HETATM   30  C   UNL     1      -0.728   6.055 -31.813  1.00  0.00     0.001 A 
HETATM   31  C   UNL     1      -4.576   1.499 -32.542  1.00  0.00     0.018 A 
ENDBRANCH   1  19
TORSDOF 4
ENDMDL
MODEL 9
REMARK VINA RESULT:      -8.2      3.544      7.934
REMARK  4 active torsions:
REMARK  status: ('A' for Active; 'I' for Inactive)
REMARK    1  A    between atoms: C_8  and  C_9 
REMARK       I    between atoms: C_9  and  N_10 
REMARK    2  A    between atoms: N_10  and  C_11 
REMARK    3  A    between atoms: C_12  and  N_13 
REMARK    4  A    between atoms: C_16  and  O_17 
ROOT
HETATM    1  C   UNL     1      -4.042   5.286 -33.733  1.00  0.00     0.256 C 
HETATM    2  N   UNL     1      -5.117   4.488 -33.403  1.00  0.00    -0.321 N 
HETATM    3  O   UNL     1      -3.838   5.575 -34.911  1.00  0.00    -0.267 OA
HETATM    4  H   UNL     1      -5.479   3.923 -34.160  1.00  0.00     0.169 HD
ENDROOT
BRANCH   2   5
HETATM    5  C   UNL     1      -5.742   4.318 -32.156  1.00  0.00     0.061 A 
HETATM    6  C   UNL     1      -5.862   3.025 -31.580  1.00  0.00     0.057 A 
HETATM    7  C   UNL     1      -6.590   2.965 -30.375  1.00  0.00     0.031 A 
HETATM    8  C   UNL     1      -7.194   4.090 -29.796  1.00  0.00     0.002 A 
HETATM    9  C   UNL     1      -7.072   5.333 -30.397  1.00  0.00     0.002 A 
HETATM   10  C   UNL     1      -6.334   5.451 -31.567  1.00  0.00     0.032 A 
BRANCH   6  11
HETATM   11  N   UNL     1      -5.296   1.877 -32.132  1.00  0.00    -0.379 N 
HETATM   12  C   UNL     1      -3.879   1.550 -31.948  1.00  0.00     0.125 C 
HETATM   13  C   UNL     1      -3.772   0.086 -31.525  1.00  0.00     0.051 C 
HETATM   14  C   UNL     1      -4.530  -0.859 -32.460  1.00  0.00     0.121 C 
HETATM   15  C   UNL     1      -5.935  -0.363 -32.808  1.00  0.00     0.051 C 
HETATM   16  C   UNL     1      -5.929   1.110 -33.212  1.00  0.00     0.125 C 
BRANCH  14  17
HETATM   17  O   UNL     1      -3.774  -1.090 -33.649  1.00  0.00    -0.395 OA
HETATM   18  H   UNL     1      -2.939  -0.597 -33.597  1.00  0.00     0.210 HD
ENDBRANCH  14  17
ENDBRANCH   6  11
ENDBRANCH   2   5
BRANCH   1  19
HETATM   19  C   UNL     1      -3.021   5.667 -32.704  1.00  0.00     0.033 A 
HETATM   20  C   UNL     1      -3.035   6.920 -32.074  1.00  0.00     0.025 A 
HETATM   21  C   UNL     1      -2.133   7.162 -31.049  1.00  0.00    -0.042 A 
HETATM   22  C   UNL     1      -1.236   6.174 -30.605  1.00  0.00    -0.019 A 
HETATM   23  C   UNL     1      -1.969   8.434 -30.247  1.00  0.00     0.078 A 
HETATM   24  C   UNL     1      -0.480   6.708 -29.491  1.00  0.00    -0.019 A 
HETATM   25  C   UNL     1      -1.219   4.927 -31.209  1.00  0.00     0.014 A 
HETATM   26  C   UNL     1      -0.893   8.040 -29.260  1.00  0.00    -0.043 A 
HETATM   27  C   UNL     1       0.484   6.127 -28.685  1.00  0.00     0.013 A 
HETATM   28  C   UNL     1      -0.351   8.805 -28.242  1.00  0.00     0.008 A 
HETATM   29  C   UNL     1       0.621   8.219 -27.431  1.00  0.00     0.001 A 
HETATM   30  C   UNL     1       1.033   6.892 -27.649  1.00  0.00     0.001 A 
HETATM   31  C   UNL     1      -2.116   4.679 -32.263  1.00  0.00     0.018 A 
ENDBRANCH   1  19
TORSDOF 4
ENDMDL
MODEL 10
REMARK VINA RESULT:      -8.1      3.771      5.664
REMARK  4 active torsions:
REMARK  status: ('A' for Active; 'I' for Inactive)
REMARK    1  A    between atoms: C_8  and  C_9 
REMARK       I    between atoms: C_9  and  N_10 
REMARK    2  A    between atoms: N_10  and  C_11 
REMARK    3  A    between atoms: C_12  and  N_13 
REMARK    4  A    between atoms: C_16  and  O_17 
ROOT
HETATM    1  C   UNL     1      -1.746   7.023 -33.168  1.00  0.00     0.256 C 
HETATM    2  N   UNL     1      -1.009   7.533 -32.120  1.00  0.00    -0.321 N 
HETATM    3  O   UNL     1      -1.672   7.550 -34.277  1.00  0.00    -0.267 OA
HETATM    4  H   UNL     1      -0.711   8.493 -32.234  1.00  0.00     0.169 HD
ENDROOT
BRANCH   2   5
HETATM    5  C   UNL     1      -0.661   6.922 -30.903  1.00  0.00     0.061 A 
HETATM    6  C   UNL     1      -1.195   7.401 -29.678  1.00  0.00     0.057 A 
HETATM    7  C   UNL     1      -0.702   6.773 -28.516  1.00  0.00     0.031 A 
HETATM    8  C   UNL     1       0.278   5.771 -28.554  1.00  0.00     0.002 A 
HETATM    9  C   UNL     1       0.789   5.342 -29.768  1.00  0.00     0.002 A 
HETATM   10  C   UNL     1       0.310   5.905 -30.943  1.00  0.00     0.032 A 
BRANCH   6  11
HETATM   11  N   UNL     1      -2.154   8.409 -29.592  1.00  0.00    -0.379 N 
HETATM   12  C   UNL     1      -1.835   9.735 -29.055  1.00  0.00     0.125 C 
HETATM   13  C   UNL     1      -2.386  10.789 -30.014  1.00  0.00     0.051 C 
HETATM   14  C   UNL     1      -3.864  10.574 -30.349  1.00  0.00     0.121 C 
HETATM   15  C   UNL     1      -4.199   9.120 -30.688  1.00  0.00     0.051 C 
HETATM   16  C   UNL     1      -3.598   8.151 -29.671  1.00  0.00     0.125 C 
BRANCH  14  17
HETATM   17  O   UNL     1      -4.686  11.038 -29.277  1.00  0.00    -0.395 OA
HETATM   18  H   UNL     1      -5.333  10.350 -29.051  1.00  0.00     0.210 HD
ENDBRANCH  14  17
ENDBRANCH   6  11
ENDBRANCH   2   5
BRANCH   1  19
HETATM   19  C   UNL     1      -2.763   5.946 -32.942  1.00  0.00     0.033 A 
HETATM   20  C   UNL     1      -2.394   4.606 -32.757  1.00  0.00     0.025 A 
HETATM   21  C   UNL     1      -3.377   3.681 -32.437  1.00  0.00    -0.042 A 
HETATM   22  C   UNL     1      -4.720   4.061 -32.258  1.00  0.00    -0.019 A 
HETATM   23  C   UNL     1      -3.205   2.195 -32.206  1.00  0.00     0.078 A 
HETATM   24  C   UNL     1      -5.480   2.891 -31.870  1.00  0.00    -0.019 A 
HETATM   25  C   UNL     1      -5.097   5.384 -32.424  1.00  0.00     0.014 A 
HETATM   26  C   UNL     1      -4.610   1.777 -31.832  1.00  0.00    -0.043 A 
HETATM   27  C   UNL     1      -6.815   2.743 -31.537  1.00  0.00     0.013 A 
HETATM   28  C   UNL     1      -5.055   0.515 -31.477  1.00  0.00     0.008 A 
HETATM   29  C   UNL     1      -6.402   0.368 -31.144  1.00  0.00     0.001 A 
HETATM   30  C   UNL     1      -7.273   1.472 -31.171  1.00  0.00     0.001 A 
HETATM   31  C   UNL     1      -4.111   6.325 -32.769  1.00  0.00     0.018 A 
ENDBRANCH   1  19
TORSDOF 4
ENDMDL
