MODEL 1
REMARK VINA RESULT:      -7.6      0.000      0.000
REMARK  11 active torsions:
REMARK  status: ('A' for Active; 'I' for Inactive)
REMARK    1  A    between atoms: C_2  and  O_3 
REMARK    2  A    between atoms: O_3  and  C_4 
REMARK    3  A    between atoms: C_5  and  C_6 
REMARK       I    between atoms: C_6  and  N_7 
REMARK    4  A    between atoms: N_7  and  C_8 
REMARK    5  A    between atoms: C_8  and  N_9 
REMARK    6  A    between atoms: N_9  and  C_10 
REMARK    7  A    between atoms: C_11  and  C_12 
REMARK       I    between atoms: C_12  and  N_13 
REMARK    8  A    between atoms: N_13  and  C_14 
REMARK    9  A    between atoms: C_14  and  C_15 
REMARK   10  A    between atoms: C_15  and  C_16 
REMARK   11  A    between atoms: C_16  and  O_17 
ROOT
HETATM    1  N   UNL     1      -3.598   3.097 -31.431  1.00  0.00    -0.332 N 
HETATM    2  H   UNL     1      -2.690   2.914 -30.994  1.00  0.00     0.168 HD
ENDROOT
BRANCH   1   3
HETATM    3  C   UNL     1      -4.648   2.383 -30.916  1.00  0.00     0.179 C 
HETATM    4  S   UNL     1      -5.919   3.000 -30.021  1.00  0.00    -0.040 SA
BRANCH   3   5
HETATM    5  N   UNL     1      -4.627   1.026 -31.143  1.00  0.00    -0.299 N 
HETATM    6  C   UNL     1      -3.508   0.238 -31.408  1.00  0.00     0.260 C 
HETATM    7  O   UNL     1      -2.394   0.497 -30.967  1.00  0.00    -0.267 OA
HETATM    8  H   UNL     1      -5.535   0.654 -31.381  1.00  0.00     0.171 HD
BRANCH   6   9
HETATM    9  C   UNL     1      -3.775  -0.975 -32.247  1.00  0.00     0.065 A 
HETATM   10  C   UNL     1      -4.645  -0.939 -33.345  1.00  0.00     0.084 A 
HETATM   11  C   UNL     1      -4.847  -2.084 -34.126  1.00  0.00     0.038 A 
HETATM   12  C   UNL     1      -4.229  -3.286 -33.789  1.00  0.00     0.003 A 
HETATM   13  C   UNL     1      -3.404  -3.349 -32.670  1.00  0.00     0.001 A 
HETATM   14  C   UNL     1      -3.181  -2.203 -31.900  1.00  0.00     0.020 A 
BRANCH  10  15
HETATM   15  O   UNL     1      -5.272   0.212 -33.741  1.00  0.00    -0.350 OA
BRANCH  15  16
HETATM   16  C   UNL     1      -6.681  -0.003 -33.910  1.00  0.00     0.171 C 
HETATM   17  C   UNL     1      -7.097   0.512 -35.277  1.00  0.00     0.034 C 
ENDBRANCH  15  16
ENDBRANCH  10  15
ENDBRANCH   6   9
ENDBRANCH   3   5
ENDBRANCH   1   3
BRANCH   1  18
HETATM   18  C   UNL     1      -3.579   3.973 -32.542  1.00  0.00     0.050 A 
HETATM   19  C   UNL     1      -2.459   4.785 -32.796  1.00  0.00     0.058 A 
HETATM   20  C   UNL     1      -2.360   5.505 -33.996  1.00  0.00     0.019 A 
HETATM   21  C   UNL     1      -3.384   5.443 -34.937  1.00  0.00     0.001 A 
HETATM   22  C   UNL     1      -4.513   4.670 -34.678  1.00  0.00     0.002 A 
HETATM   23  C   UNL     1      -4.609   3.936 -33.493  1.00  0.00     0.030 A 
BRANCH  19  24
HETATM   24  C   UNL     1      -1.416   5.070 -31.774  1.00  0.00     0.253 C 
HETATM   25  N   UNL     1      -0.856   6.330 -31.850  1.00  0.00    -0.357 N 
HETATM   26  H   UNL     1      -1.178   6.949 -32.586  1.00  0.00     0.162 HD
HETATM   27  O   UNL     1      -1.033   4.191 -31.014  1.00  0.00    -0.268 OA
BRANCH  25  28
HETATM   28  C   UNL     1       0.388   6.650 -31.182  1.00  0.00     0.125 C 
BRANCH  28  29
HETATM   29  C   UNL     1       0.196   7.379 -29.861  1.00  0.00     0.046 C 
BRANCH  29  30
HETATM   30  C   UNL     1       0.644   6.544 -28.671  1.00  0.00     0.165 C 
BRANCH  30  31
HETATM   31  O   UNL     1      -0.303   5.514 -28.420  1.00  0.00    -0.401 OA
HETATM   32  H   UNL     1      -1.180   5.934 -28.374  1.00  0.00     0.209 HD
ENDBRANCH  30  31
ENDBRANCH  29  30
ENDBRANCH  28  29
ENDBRANCH  25  28
ENDBRANCH  19  24
ENDBRANCH   1  18
TORSDOF 11
ENDMDL
MODEL 2
REMARK VINA RESULT:      -7.6      3.004      4.536
REMARK  11 active torsions:
REMARK  status: ('A' for Active; 'I' for Inactive)
REMARK    1  A    between atoms: C_2  and  O_3 
REMARK    2  A    between atoms: O_3  and  C_4 
REMARK    3  A    between atoms: C_5  and  C_6 
REMARK       I    between atoms: C_6  and  N_7 
REMARK    4  A    between atoms: N_7  and  C_8 
REMARK    5  A    between atoms: C_8  and  N_9 
REMARK    6  A    between atoms: N_9  and  C_10 
REMARK    7  A    between atoms: C_11  and  C_12 
REMARK       I    between atoms: C_12  and  N_13 
REMARK    8  A    between atoms: N_13  and  C_14 
REMARK    9  A    between atoms: C_14  and  C_15 
REMARK   10  A    between atoms: C_15  and  C_16 
REMARK   11  A    between atoms: C_16  and  O_17 
ROOT
HETATM    1  N   UNL     1      -7.566   1.604 -31.915  1.00  0.00    -0.332 N 
HETATM    2  H   UNL     1      -7.063   1.478 -31.032  1.00  0.00     0.168 HD
ENDROOT
BRANCH   1   3
HETATM    3  C   UNL     1      -7.976   0.447 -32.523  1.00  0.00     0.179 C 
HETATM    4  S   UNL     1      -9.560  -0.015 -32.803  1.00  0.00    -0.040 SA
BRANCH   3   5
HETATM    5  N   UNL     1      -6.981  -0.420 -32.911  1.00  0.00    -0.299 N 
HETATM    6  C   UNL     1      -6.693  -0.838 -34.209  1.00  0.00     0.260 C 
HETATM    7  O   UNL     1      -6.893  -0.134 -35.193  1.00  0.00    -0.267 OA
HETATM    8  H   UNL     1      -6.621  -0.972 -32.146  1.00  0.00     0.171 HD
BRANCH   6   9
HETATM    9  C   UNL     1      -6.084  -2.203 -34.313  1.00  0.00     0.065 A 
HETATM   10  C   UNL     1      -4.747  -2.444 -33.973  1.00  0.00     0.084 A 
HETATM   11  C   UNL     1      -4.219  -3.739 -34.052  1.00  0.00     0.038 A 
HETATM   12  C   UNL     1      -5.001  -4.793 -34.522  1.00  0.00     0.003 A 
HETATM   13  C   UNL     1      -6.315  -4.557 -34.914  1.00  0.00     0.001 A 
HETATM   14  C   UNL     1      -6.854  -3.270 -34.815  1.00  0.00     0.020 A 
BRANCH  10  15
HETATM   15  O   UNL     1      -3.929  -1.459 -33.489  1.00  0.00    -0.350 OA
BRANCH  15  16
HETATM   16  C   UNL     1      -3.585  -1.707 -32.117  1.00  0.00     0.171 C 
HETATM   17  C   UNL     1      -2.676  -0.592 -31.629  1.00  0.00     0.034 C 
ENDBRANCH  15  16
ENDBRANCH  10  15
ENDBRANCH   6   9
ENDBRANCH   3   5
ENDBRANCH   1   3
BRANCH   1  18
HETATM   18  C   UNL     1      -7.656   2.935 -32.385  1.00  0.00     0.050 A 
HETATM   19  C   UNL     1      -6.543   3.566 -32.970  1.00  0.00     0.058 A 
HETATM   20  C   UNL     1      -6.682   4.807 -33.608  1.00  0.00     0.019 A 
HETATM   21  C   UNL     1      -7.922   5.439 -33.647  1.00  0.00     0.001 A 
HETATM   22  C   UNL     1      -9.022   4.839 -33.040  1.00  0.00     0.002 A 
HETATM   23  C   UNL     1      -8.893   3.595 -32.419  1.00  0.00     0.030 A 
BRANCH  19  24
HETATM   24  C   UNL     1      -5.151   3.067 -32.806  1.00  0.00     0.253 C 
HETATM   25  N   UNL     1      -4.181   4.050 -32.772  1.00  0.00    -0.357 N 
HETATM   26  H   UNL     1      -4.479   5.014 -32.871  1.00  0.00     0.162 HD
HETATM   27  O   UNL     1      -4.914   1.867 -32.818  1.00  0.00    -0.268 OA
BRANCH  25  28
HETATM   28  C   UNL     1      -2.780   3.743 -32.969  1.00  0.00     0.125 C 
BRANCH  28  29
HETATM   29  C   UNL     1      -1.957   4.934 -33.434  1.00  0.00     0.046 C 
BRANCH  29  30
HETATM   30  C   UNL     1      -2.112   5.196 -34.925  1.00  0.00     0.165 C 
BRANCH  30  31
HETATM   31  O   UNL     1      -3.402   5.733 -35.189  1.00  0.00    -0.401 OA
HETATM   32  H   UNL     1      -4.022   5.313 -34.567  1.00  0.00     0.209 HD
ENDBRANCH  30  31
ENDBRANCH  29  30
ENDBRANCH  28  29
ENDBRANCH  25  28
ENDBRANCH  19  24
ENDBRANCH   1  18
TORSDOF 11
ENDMDL
MODEL 3
REMARK VINA RESULT:      -7.4      2.553      7.969
REMARK  11 active torsions:
REMARK  status: ('A' for Active; 'I' for Inactive)
REMARK    1  A    between atoms: C_2  and  O_3 
REMARK    2  A    between atoms: O_3  and  C_4 
REMARK    3  A    between atoms: C_5  and  C_6 
REMARK       I    between atoms: C_6  and  N_7 
REMARK    4  A    between atoms: N_7  and  C_8 
REMARK    5  A    between atoms: C_8  and  N_9 
REMARK    6  A    between atoms: N_9  and  C_10 
REMARK    7  A    between atoms: C_11  and  C_12 
REMARK       I    between atoms: C_12  and  N_13 
REMARK    8  A    between atoms: N_13  and  C_14 
REMARK    9  A    between atoms: C_14  and  C_15 
REMARK   10  A    between atoms: C_15  and  C_16 
REMARK   11  A    between atoms: C_16  and  O_17 
ROOT
HETATM    1  N   UNL     1      -3.889  -1.123 -34.020  1.00  0.00    -0.332 N 
HETATM    2  H   UNL     1      -3.515  -0.752 -34.898  1.00  0.00     0.168 HD
ENDROOT
BRANCH   1   3
HETATM    3  C   UNL     1      -3.365  -0.569 -32.882  1.00  0.00     0.179 C 
HETATM    4  S   UNL     1      -2.624  -1.396 -31.631  1.00  0.00    -0.040 SA
BRANCH   3   5
HETATM    5  N   UNL     1      -3.493   0.795 -32.758  1.00  0.00    -0.299 N 
HETATM    6  C   UNL     1      -4.564   1.489 -32.199  1.00  0.00     0.260 C 
HETATM    7  O   UNL     1      -5.254   1.029 -31.296  1.00  0.00    -0.267 OA
HETATM    8  H   UNL     1      -2.862   1.305 -33.360  1.00  0.00     0.171 HD
BRANCH   6   9
HETATM    9  C   UNL     1      -4.791   2.860 -32.759  1.00  0.00     0.065 A 
HETATM   10  C   UNL     1      -3.777   3.827 -32.782  1.00  0.00     0.084 A 
HETATM   11  C   UNL     1      -4.014   5.088 -33.343  1.00  0.00     0.038 A 
HETATM   12  C   UNL     1      -5.276   5.417 -33.833  1.00  0.00     0.003 A 
HETATM   13  C   UNL     1      -6.307   4.484 -33.767  1.00  0.00     0.001 A 
HETATM   14  C   UNL     1      -6.069   3.216 -33.231  1.00  0.00     0.020 A 
BRANCH  10  15
HETATM   15  O   UNL     1      -2.510   3.566 -32.333  1.00  0.00    -0.350 OA
BRANCH  15  16
HETATM   16  C   UNL     1      -2.061   4.596 -31.439  1.00  0.00     0.171 C 
HETATM   17  C   UNL     1      -0.726   5.127 -31.932  1.00  0.00     0.034 C 
ENDBRANCH  15  16
ENDBRANCH  10  15
ENDBRANCH   6   9
ENDBRANCH   3   5
ENDBRANCH   1   3
BRANCH   1  18
HETATM   18  C   UNL     1      -4.799  -2.198 -34.147  1.00  0.00     0.050 A 
HETATM   19  C   UNL     1      -6.170  -1.958 -34.349  1.00  0.00     0.058 A 
HETATM   20  C   UNL     1      -7.038  -3.013 -34.667  1.00  0.00     0.019 A 
HETATM   21  C   UNL     1      -6.553  -4.315 -34.762  1.00  0.00     0.001 A 
HETATM   22  C   UNL     1      -5.204  -4.567 -34.529  1.00  0.00     0.002 A 
HETATM   23  C   UNL     1      -4.332  -3.518 -34.229  1.00  0.00     0.030 A 
BRANCH  19  24
HETATM   24  C   UNL     1      -6.811  -0.644 -34.075  1.00  0.00     0.253 C 
HETATM   25  N   UNL     1      -7.478  -0.562 -32.868  1.00  0.00    -0.357 N 
HETATM   26  H   UNL     1      -7.494  -1.386 -32.278  1.00  0.00     0.162 HD
HETATM   27  O   UNL     1      -6.820   0.234 -34.927  1.00  0.00    -0.268 OA
BRANCH  25  28
HETATM   28  C   UNL     1      -8.433   0.491 -32.598  1.00  0.00     0.125 C 
BRANCH  28  29
HETATM   29  C   UNL     1      -9.855   0.141 -33.009  1.00  0.00     0.046 C 
BRANCH  29  30
HETATM   30  C   UNL     1     -10.428   1.132 -34.010  1.00  0.00     0.165 C 
BRANCH  30  31
HETATM   31  O   UNL     1      -9.375   1.725 -34.759  1.00  0.00    -0.401 OA
HETATM   32  H   UNL     1      -9.206   1.148 -35.525  1.00  0.00     0.209 HD
ENDBRANCH  30  31
ENDBRANCH  29  30
ENDBRANCH  28  29
ENDBRANCH  25  28
ENDBRANCH  19  24
ENDBRANCH   1  18
TORSDOF 11
ENDMDL
MODEL 4
REMARK VINA RESULT:      -7.4      2.898      4.413
REMARK  11 active torsions:
REMARK  status: ('A' for Active; 'I' for Inactive)
REMARK    1  A    between atoms: C_2  and  O_3 
REMARK    2  A    between atoms: O_3  and  C_4 
REMARK    3  A    between atoms: C_5  and  C_6 
REMARK       I    between atoms: C_6  and  N_7 
REMARK    4  A    between atoms: N_7  and  C_8 
REMARK    5  A    between atoms: C_8  and  N_9 
REMARK    6  A    between atoms: N_9  and  C_10 
REMARK    7  A    between atoms: C_11  and  C_12 
REMARK       I    between atoms: C_12  and  N_13 
REMARK    8  A    between atoms: N_13  and  C_14 
REMARK    9  A    between atoms: C_14  and  C_15 
REMARK   10  A    between atoms: C_15  and  C_16 
REMARK   11  A    between atoms: C_16  and  O_17 
ROOT
HETATM    1  N   UNL     1      -7.418   3.274 -33.583  1.00  0.00    -0.332 N 
HETATM    2  H   UNL     1      -7.150   4.025 -34.225  1.00  0.00     0.168 HD
ENDROOT
BRANCH   1   3
HETATM    3  C   UNL     1      -8.324   2.374 -34.081  1.00  0.00     0.179 C 
HETATM    4  S   UNL     1      -9.968   2.624 -34.262  1.00  0.00    -0.040 SA
BRANCH   3   5
HETATM    5  N   UNL     1      -7.822   1.144 -34.438  1.00  0.00    -0.299 N 
HETATM    6  C   UNL     1      -7.859  -0.026 -33.682  1.00  0.00     0.260 C 
HETATM    7  O   UNL     1      -8.760  -0.276 -32.889  1.00  0.00    -0.267 OA
HETATM    8  H   UNL     1      -7.159   1.196 -35.197  1.00  0.00     0.171 HD
BRANCH   6   9
HETATM    9  C   UNL     1      -6.732  -0.979 -33.938  1.00  0.00     0.065 A 
HETATM   10  C   UNL     1      -5.398  -0.635 -33.682  1.00  0.00     0.084 A 
HETATM   11  C   UNL     1      -4.372  -1.561 -33.903  1.00  0.00     0.038 A 
HETATM   12  C   UNL     1      -4.658  -2.818 -34.434  1.00  0.00     0.003 A 
HETATM   13  C   UNL     1      -5.972  -3.154 -34.744  1.00  0.00     0.001 A 
HETATM   14  C   UNL     1      -7.003  -2.241 -34.503  1.00  0.00     0.020 A 
BRANCH  10  15
HETATM   15  O   UNL     1      -5.049   0.575 -33.145  1.00  0.00    -0.350 OA
BRANCH  15  16
HETATM   16  C   UNL     1      -4.228   0.401 -31.979  1.00  0.00     0.171 C 
HETATM   17  C   UNL     1      -5.125   0.301 -30.757  1.00  0.00     0.034 C 
ENDBRANCH  15  16
ENDBRANCH  10  15
ENDBRANCH   6   9
ENDBRANCH   3   5
ENDBRANCH   1   3
BRANCH   1  18
HETATM   18  C   UNL     1      -6.881   3.362 -32.277  1.00  0.00     0.050 A 
HETATM   19  C   UNL     1      -5.606   3.916 -32.062  1.00  0.00     0.058 A 
HETATM   20  C   UNL     1      -5.155   4.181 -30.761  1.00  0.00     0.019 A 
HETATM   21  C   UNL     1      -5.959   3.875 -29.665  1.00  0.00     0.001 A 
HETATM   22  C   UNL     1      -7.208   3.294 -29.867  1.00  0.00     0.002 A 
HETATM   23  C   UNL     1      -7.669   3.044 -31.162  1.00  0.00     0.030 A 
BRANCH  19  24
HETATM   24  C   UNL     1      -4.605   4.091 -33.149  1.00  0.00     0.253 C 
HETATM   25  N   UNL     1      -3.291   3.905 -32.765  1.00  0.00    -0.357 N 
HETATM   26  H   UNL     1      -3.108   3.683 -31.793  1.00  0.00     0.162 HD
HETATM   27  O   UNL     1      -4.950   4.479 -34.256  1.00  0.00    -0.268 OA
BRANCH  25  28
HETATM   28  C   UNL     1      -2.189   4.368 -33.581  1.00  0.00     0.125 C 
BRANCH  28  29
HETATM   29  C   UNL     1      -1.567   5.663 -33.081  1.00  0.00     0.046 C 
BRANCH  29  30
HETATM   30  C   UNL     1      -2.020   6.871 -33.888  1.00  0.00     0.165 C 
BRANCH  30  31
HETATM   31  O   UNL     1      -2.951   6.464 -34.883  1.00  0.00    -0.401 OA
HETATM   32  H   UNL     1      -3.396   5.664 -34.552  1.00  0.00     0.209 HD
ENDBRANCH  30  31
ENDBRANCH  29  30
ENDBRANCH  28  29
ENDBRANCH  25  28
ENDBRANCH  19  24
ENDBRANCH   1  18
TORSDOF 11
ENDMDL
MODEL 5
REMARK VINA RESULT:      -7.3      1.211      2.539
REMARK  11 active torsions:
REMARK  status: ('A' for Active; 'I' for Inactive)
REMARK    1  A    between atoms: C_2  and  O_3 
REMARK    2  A    between atoms: O_3  and  C_4 
REMARK    3  A    between atoms: C_5  and  C_6 
REMARK       I    between atoms: C_6  and  N_7 
REMARK    4  A    between atoms: N_7  and  C_8 
REMARK    5  A    between atoms: C_8  and  N_9 
REMARK    6  A    between atoms: N_9  and  C_10 
REMARK    7  A    between atoms: C_11  and  C_12 
REMARK       I    between atoms: C_12  and  N_13 
REMARK    8  A    between atoms: N_13  and  C_14 
REMARK    9  A    between atoms: C_14  and  C_15 
REMARK   10  A    between atoms: C_15  and  C_16 
REMARK   11  A    between atoms: C_16  and  O_17 
ROOT
HETATM    1  N   UNL     1      -3.277   3.720 -31.323  1.00  0.00    -0.332 N 
HETATM    2  H   UNL     1      -2.547   3.200 -30.828  1.00  0.00     0.168 HD
ENDROOT
BRANCH   1   3
HETATM    3  C   UNL     1      -4.558   3.472 -30.901  1.00  0.00     0.179 C 
HETATM    4  S   UNL     1      -5.440   4.398 -29.822  1.00  0.00    -0.040 SA
BRANCH   3   5
HETATM    5  N   UNL     1      -5.151   2.337 -31.401  1.00  0.00    -0.299 N 
HETATM    6  C   UNL     1      -4.542   1.338 -32.159  1.00  0.00     0.260 C 
HETATM    7  O   UNL     1      -3.358   1.043 -32.040  1.00  0.00    -0.267 OA
HETATM    8  H   UNL     1      -6.159   2.396 -31.419  1.00  0.00     0.171 HD
BRANCH   6   9
HETATM    9  C   UNL     1      -5.454   0.621 -33.107  1.00  0.00     0.065 A 
HETATM   10  C   UNL     1      -5.573  -0.776 -33.108  1.00  0.00     0.084 A 
HETATM   11  C   UNL     1      -6.458  -1.411 -33.987  1.00  0.00     0.038 A 
HETATM   12  C   UNL     1      -7.191  -0.667 -34.911  1.00  0.00     0.003 A 
HETATM   13  C   UNL     1      -7.043   0.716 -34.957  1.00  0.00     0.001 A 
HETATM   14  C   UNL     1      -6.178   1.357 -34.065  1.00  0.00     0.020 A 
BRANCH  10  15
HETATM   15  O   UNL     1      -4.896  -1.564 -32.218  1.00  0.00    -0.350 OA
BRANCH  15  16
HETATM   16  C   UNL     1      -3.912  -2.367 -32.889  1.00  0.00     0.171 C 
HETATM   17  C   UNL     1      -2.988  -2.982 -31.852  1.00  0.00     0.034 C 
ENDBRANCH  15  16
ENDBRANCH  10  15
ENDBRANCH   6   9
ENDBRANCH   3   5
ENDBRANCH   1   3
BRANCH   1  18
HETATM   18  C   UNL     1      -2.837   4.516 -32.405  1.00  0.00     0.050 A 
HETATM   19  C   UNL     1      -1.581   5.150 -32.366  1.00  0.00     0.058 A 
HETATM   20  C   UNL     1      -1.064   5.775 -33.510  1.00  0.00     0.019 A 
HETATM   21  C   UNL     1      -1.801   5.797 -34.691  1.00  0.00     0.001 A 
HETATM   22  C   UNL     1      -3.061   5.203 -34.729  1.00  0.00     0.002 A 
HETATM   23  C   UNL     1      -3.573   4.563 -33.598  1.00  0.00     0.030 A 
BRANCH  19  24
HETATM   24  C   UNL     1      -0.815   5.351 -31.107  1.00  0.00     0.253 C 
HETATM   25  N   UNL     1      -0.549   6.669 -30.792  1.00  0.00    -0.357 N 
HETATM   26  H   UNL     1      -0.876   7.385 -31.431  1.00  0.00     0.162 HD
HETATM   27  O   UNL     1      -0.375   4.392 -30.487  1.00  0.00    -0.268 OA
BRANCH  25  28
HETATM   28  C   UNL     1       0.461   7.029 -29.820  1.00  0.00     0.125 C 
BRANCH  28  29
HETATM   29  C   UNL     1      -0.092   7.786 -28.622  1.00  0.00     0.046 C 
BRANCH  29  30
HETATM   30  C   UNL     1      -0.088   6.944 -27.355  1.00  0.00     0.165 C 
BRANCH  30  31
HETATM   31  O   UNL     1      -0.163   5.565 -27.692  1.00  0.00    -0.401 OA
HETATM   32  H   UNL     1      -0.726   5.492 -28.483  1.00  0.00     0.209 HD
ENDBRANCH  30  31
ENDBRANCH  29  30
ENDBRANCH  28  29
ENDBRANCH  25  28
ENDBRANCH  19  24
ENDBRANCH   1  18
TORSDOF 11
ENDMDL
MODEL 6
REMARK VINA RESULT:      -7.2      2.843      8.382
REMARK  11 active torsions:
REMARK  status: ('A' for Active; 'I' for Inactive)
REMARK    1  A    between atoms: C_2  and  O_3 
REMARK    2  A    between atoms: O_3  and  C_4 
REMARK    3  A    between atoms: C_5  and  C_6 
REMARK       I    between atoms: C_6  and  N_7 
REMARK    4  A    between atoms: N_7  and  C_8 
REMARK    5  A    between atoms: C_8  and  N_9 
REMARK    6  A    between atoms: N_9  and  C_10 
REMARK    7  A    between atoms: C_11  and  C_12 
REMARK       I    between atoms: C_12  and  N_13 
REMARK    8  A    between atoms: N_13  and  C_14 
REMARK    9  A    between atoms: C_14  and  C_15 
REMARK   10  A    between atoms: C_15  and  C_16 
REMARK   11  A    between atoms: C_16  and  O_17 
ROOT
HETATM    1  N   UNL     1      -5.890   1.040 -31.539  1.00  0.00    -0.332 N 
HETATM    2  H   UNL     1      -5.930   0.765 -30.554  1.00  0.00     0.168 HD
ENDROOT
BRANCH   1   3
HETATM    3  C   UNL     1      -5.860   2.391 -31.767  1.00  0.00     0.179 C 
HETATM    4  S   UNL     1      -6.973   3.512 -31.216  1.00  0.00    -0.040 SA
BRANCH   3   5
HETATM    5  N   UNL     1      -4.825   2.851 -32.548  1.00  0.00    -0.299 N 
HETATM    6  C   UNL     1      -3.482   2.945 -32.188  1.00  0.00     0.260 C 
HETATM    7  O   UNL     1      -2.953   2.179 -31.390  1.00  0.00    -0.267 OA
HETATM    8  H   UNL     1      -5.141   3.391 -33.340  1.00  0.00     0.171 HD
BRANCH   6   9
HETATM    9  C   UNL     1      -2.718   4.035 -32.877  1.00  0.00     0.065 A 
HETATM   10  C   UNL     1      -1.644   4.691 -32.260  1.00  0.00     0.084 A 
HETATM   11  C   UNL     1      -0.933   5.683 -32.946  1.00  0.00     0.038 A 
HETATM   12  C   UNL     1      -1.319   6.070 -34.228  1.00  0.00     0.003 A 
HETATM   13  C   UNL     1      -2.417   5.465 -34.831  1.00  0.00     0.001 A 
HETATM   14  C   UNL     1      -3.116   4.457 -34.160  1.00  0.00     0.020 A 
BRANCH  10  15
HETATM   15  O   UNL     1      -1.203   4.349 -31.011  1.00  0.00    -0.350 OA
BRANCH  15  16
HETATM   16  C   UNL     1      -0.438   5.415 -30.428  1.00  0.00     0.171 C 
HETATM   17  C   UNL     1       0.807   4.832 -29.782  1.00  0.00     0.034 C 
ENDBRANCH  15  16
ENDBRANCH  10  15
ENDBRANCH   6   9
ENDBRANCH   3   5
ENDBRANCH   1   3
BRANCH   1  18
HETATM   18  C   UNL     1      -5.971  -0.017 -32.475  1.00  0.00     0.050 A 
HETATM   19  C   UNL     1      -7.159  -0.253 -33.190  1.00  0.00     0.058 A 
HETATM   20  C   UNL     1      -7.181  -1.170 -34.251  1.00  0.00     0.019 A 
HETATM   21  C   UNL     1      -6.029  -1.876 -34.591  1.00  0.00     0.001 A 
HETATM   22  C   UNL     1      -4.857  -1.675 -33.866  1.00  0.00     0.002 A 
HETATM   23  C   UNL     1      -4.826  -0.750 -32.820  1.00  0.00     0.030 A 
BRANCH  19  24
HETATM   24  C   UNL     1      -8.476   0.300 -32.776  1.00  0.00     0.253 C 
HETATM   25  N   UNL     1      -9.225   0.847 -33.800  1.00  0.00    -0.357 N 
HETATM   26  H   UNL     1      -8.827   0.844 -34.733  1.00  0.00     0.162 HD
HETATM   27  O   UNL     1      -8.787   0.348 -31.594  1.00  0.00    -0.268 OA
BRANCH  25  28
HETATM   28  C   UNL     1     -10.345   1.725 -33.537  1.00  0.00     0.125 C 
BRANCH  28  29
HETATM   29  C   UNL     1     -11.696   1.092 -33.836  1.00  0.00     0.046 C 
BRANCH  29  30
HETATM   30  C   UNL     1     -12.272   1.561 -35.163  1.00  0.00     0.165 C 
BRANCH  30  31
HETATM   31  O   UNL     1     -13.692   1.591 -35.088  1.00  0.00    -0.401 OA
HETATM   32  H   UNL     1     -13.955   0.995 -34.365  1.00  0.00     0.209 HD
ENDBRANCH  30  31
ENDBRANCH  29  30
ENDBRANCH  28  29
ENDBRANCH  25  28
ENDBRANCH  19  24
ENDBRANCH   1  18
TORSDOF 11
ENDMDL
MODEL 7
REMARK VINA RESULT:      -7.1      4.318      7.056
REMARK  11 active torsions:
REMARK  status: ('A' for Active; 'I' for Inactive)
REMARK    1  A    between atoms: C_2  and  O_3 
REMARK    2  A    between atoms: O_3  and  C_4 
REMARK    3  A    between atoms: C_5  and  C_6 
REMARK       I    between atoms: C_6  and  N_7 
REMARK    4  A    between atoms: N_7  and  C_8 
REMARK    5  A    between atoms: C_8  and  N_9 
REMARK    6  A    between atoms: N_9  and  C_10 
REMARK    7  A    between atoms: C_11  and  C_12 
REMARK       I    between atoms: C_12  and  N_13 
REMARK    8  A    between atoms: N_13  and  C_14 
REMARK    9  A    between atoms: C_14  and  C_15 
REMARK   10  A    between atoms: C_15  and  C_16 
REMARK   11  A    between atoms: C_16  and  O_17 
ROOT
HETATM    1  N   UNL     1      -7.699   1.564 -32.061  1.00  0.00    -0.332 N 
HETATM    2  H   UNL     1      -7.681   1.638 -31.040  1.00  0.00     0.168 HD
ENDROOT
BRANCH   1   3
HETATM    3  C   UNL     1      -8.060   0.336 -32.551  1.00  0.00     0.179 C 
HETATM    4  S   UNL     1      -9.621  -0.241 -32.721  1.00  0.00    -0.040 SA
BRANCH   3   5
HETATM    5  N   UNL     1      -7.028  -0.501 -32.907  1.00  0.00    -0.299 N 
HETATM    6  C   UNL     1      -6.638  -0.847 -34.200  1.00  0.00     0.260 C 
HETATM    7  O   UNL     1      -6.771  -0.093 -35.157  1.00  0.00    -0.267 OA
HETATM    8  H   UNL     1      -6.721  -1.090 -32.147  1.00  0.00     0.171 HD
BRANCH   6   9
HETATM    9  C   UNL     1      -6.008  -2.200 -34.328  1.00  0.00     0.065 A 
HETATM   10  C   UNL     1      -4.667  -2.428 -33.989  1.00  0.00     0.084 A 
HETATM   11  C   UNL     1      -4.119  -3.712 -34.091  1.00  0.00     0.038 A 
HETATM   12  C   UNL     1      -4.882  -4.768 -34.586  1.00  0.00     0.003 A 
HETATM   13  C   UNL     1      -6.199  -4.545 -34.977  1.00  0.00     0.001 A 
HETATM   14  C   UNL     1      -6.758  -3.269 -34.854  1.00  0.00     0.020 A 
BRANCH  10  15
HETATM   15  O   UNL     1      -3.867  -1.440 -33.482  1.00  0.00    -0.350 OA
BRANCH  15  16
HETATM   16  C   UNL     1      -3.648  -1.629 -32.075  1.00  0.00     0.171 C 
HETATM   17  C   UNL     1      -2.990  -0.382 -31.508  1.00  0.00     0.034 C 
ENDBRANCH  15  16
ENDBRANCH  10  15
ENDBRANCH   6   9
ENDBRANCH   3   5
ENDBRANCH   1   3
BRANCH   1  18
HETATM   18  C   UNL     1      -7.257   2.707 -32.768  1.00  0.00     0.050 A 
HETATM   19  C   UNL     1      -8.164   3.716 -33.140  1.00  0.00     0.058 A 
HETATM   20  C   UNL     1      -7.701   4.931 -33.664  1.00  0.00     0.019 A 
HETATM   21  C   UNL     1      -6.337   5.142 -33.845  1.00  0.00     0.001 A 
HETATM   22  C   UNL     1      -5.433   4.135 -33.512  1.00  0.00     0.002 A 
HETATM   23  C   UNL     1      -5.888   2.929 -32.973  1.00  0.00     0.030 A 
BRANCH  19  24
HETATM   24  C   UNL     1      -9.637   3.509 -33.170  1.00  0.00     0.253 C 
HETATM   25  N   UNL     1     -10.213   3.611 -34.422  1.00  0.00    -0.357 N 
HETATM   26  H   UNL     1      -9.608   3.828 -35.206  1.00  0.00     0.162 HD
HETATM   27  O   UNL     1     -10.268   3.373 -32.131  1.00  0.00    -0.268 OA
BRANCH  25  28
HETATM   28  C   UNL     1     -11.640   3.787 -34.589  1.00  0.00     0.125 C 
BRANCH  28  29
HETATM   29  C   UNL     1     -12.307   2.647 -35.344  1.00  0.00     0.046 C 
BRANCH  29  30
HETATM   30  C   UNL     1     -12.570   1.442 -34.454  1.00  0.00     0.165 C 
BRANCH  30  31
HETATM   31  O   UNL     1     -12.614   1.848 -33.092  1.00  0.00    -0.401 OA
HETATM   32  H   UNL     1     -12.638   2.821 -33.082  1.00  0.00     0.209 HD
ENDBRANCH  30  31
ENDBRANCH  29  30
ENDBRANCH  28  29
ENDBRANCH  25  28
ENDBRANCH  19  24
ENDBRANCH   1  18
TORSDOF 11
ENDMDL
MODEL 8
REMARK VINA RESULT:      -7.1      2.130      7.637
REMARK  11 active torsions:
REMARK  status: ('A' for Active; 'I' for Inactive)
REMARK    1  A    between atoms: C_2  and  O_3 
REMARK    2  A    between atoms: O_3  and  C_4 
REMARK    3  A    between atoms: C_5  and  C_6 
REMARK       I    between atoms: C_6  and  N_7 
REMARK    4  A    between atoms: N_7  and  C_8 
REMARK    5  A    between atoms: C_8  and  N_9 
REMARK    6  A    between atoms: N_9  and  C_10 
REMARK    7  A    between atoms: C_11  and  C_12 
REMARK       I    between atoms: C_12  and  N_13 
REMARK    8  A    between atoms: N_13  and  C_14 
REMARK    9  A    between atoms: C_14  and  C_15 
REMARK   10  A    between atoms: C_15  and  C_16 
REMARK   11  A    between atoms: C_16  and  O_17 
ROOT
HETATM    1  N   UNL     1      -5.054   0.661 -33.178  1.00  0.00    -0.332 N 
HETATM    2  H   UNL     1      -5.222   1.408 -33.858  1.00  0.00     0.168 HD
ENDROOT
BRANCH   1   3
HETATM    3  C   UNL     1      -4.453   1.057 -32.012  1.00  0.00     0.179 C 
HETATM    4  S   UNL     1      -4.735   0.423 -30.490  1.00  0.00    -0.040 SA
BRANCH   3   5
HETATM    5  N   UNL     1      -3.555   2.093 -32.115  1.00  0.00    -0.299 N 
HETATM    6  C   UNL     1      -3.821   3.451 -31.950  1.00  0.00     0.260 C 
HETATM    7  O   UNL     1      -4.694   3.870 -31.198  1.00  0.00    -0.267 OA
HETATM    8  H   UNL     1      -2.709   1.833 -32.601  1.00  0.00     0.171 HD
BRANCH   6   9
HETATM    9  C   UNL     1      -2.933   4.369 -32.735  1.00  0.00     0.065 A 
HETATM   10  C   UNL     1      -1.677   4.769 -32.259  1.00  0.00     0.084 A 
HETATM   11  C   UNL     1      -0.859   5.602 -33.033  1.00  0.00     0.038 A 
HETATM   12  C   UNL     1      -1.307   6.089 -34.260  1.00  0.00     0.003 A 
HETATM   13  C   UNL     1      -2.574   5.743 -34.719  1.00  0.00     0.001 A 
HETATM   14  C   UNL     1      -3.385   4.892 -33.962  1.00  0.00     0.020 A 
BRANCH  10  15
HETATM   15  O   UNL     1      -1.169   4.316 -31.072  1.00  0.00    -0.350 OA
BRANCH  15  16
HETATM   16  C   UNL     1      -0.481   5.366 -30.374  1.00  0.00     0.171 C 
HETATM   17  C   UNL     1       0.772   4.793 -29.734  1.00  0.00     0.034 C 
ENDBRANCH  15  16
ENDBRANCH  10  15
ENDBRANCH   6   9
ENDBRANCH   3   5
ENDBRANCH   1   3
BRANCH   1  18
HETATM   18  C   UNL     1      -5.383  -0.646 -33.609  1.00  0.00     0.050 A 
HETATM   19  C   UNL     1      -6.693  -0.959 -34.016  1.00  0.00     0.058 A 
HETATM   20  C   UNL     1      -6.974  -2.191 -34.623  1.00  0.00     0.019 A 
HETATM   21  C   UNL     1      -5.962  -3.130 -34.806  1.00  0.00     0.001 A 
HETATM   22  C   UNL     1      -4.669  -2.843 -34.373  1.00  0.00     0.002 A 
HETATM   23  C   UNL     1      -4.380  -1.610 -33.785  1.00  0.00     0.030 A 
BRANCH  19  24
HETATM   24  C   UNL     1      -7.868  -0.109 -33.685  1.00  0.00     0.253 C 
HETATM   25  N   UNL     1      -8.114   0.917 -34.577  1.00  0.00    -0.357 N 
HETATM   26  H   UNL     1      -7.484   1.022 -35.364  1.00  0.00     0.162 HD
HETATM   27  O   UNL     1      -8.477  -0.270 -32.636  1.00  0.00    -0.268 OA
BRANCH  25  28
HETATM   28  C   UNL     1      -8.976   2.029 -34.236  1.00  0.00     0.125 C 
BRANCH  28  29
HETATM   29  C   UNL     1      -8.372   2.973 -33.208  1.00  0.00     0.046 C 
BRANCH  29  30
HETATM   30  C   UNL     1      -7.287   3.857 -33.804  1.00  0.00     0.165 C 
BRANCH  30  31
HETATM   31  O   UNL     1      -6.242   3.049 -34.331  1.00  0.00    -0.401 OA
HETATM   32  H   UNL     1      -5.766   3.588 -34.989  1.00  0.00     0.209 HD
ENDBRANCH  30  31
ENDBRANCH  29  30
ENDBRANCH  28  29
ENDBRANCH  25  28
ENDBRANCH  19  24
ENDBRANCH   1  18
TORSDOF 11
ENDMDL
MODEL 9
REMARK VINA RESULT:      -7.0     16.348     18.160
REMARK  11 active torsions:
REMARK  status: ('A' for Active; 'I' for Inactive)
REMARK    1  A    between atoms: C_2  and  O_3 
REMARK    2  A    between atoms: O_3  and  C_4 
REMARK    3  A    between atoms: C_5  and  C_6 
REMARK       I    between atoms: C_6  and  N_7 
REMARK    4  A    between atoms: N_7  and  C_8 
REMARK    5  A    between atoms: C_8  and  N_9 
REMARK    6  A    between atoms: N_9  and  C_10 
REMARK    7  A    between atoms: C_11  and  C_12 
REMARK       I    between atoms: C_12  and  N_13 
REMARK    8  A    between atoms: N_13  and  C_14 
REMARK    9  A    between atoms: C_14  and  C_15 
REMARK   10  A    between atoms: C_15  and  C_16 
REMARK   11  A    between atoms: C_16  and  O_17 
ROOT
HETATM    1  N   UNL     1      -5.944 -12.543 -39.322  1.00  0.00    -0.332 N 
HETATM    2  H   UNL     1      -5.684 -11.633 -38.932  1.00  0.00     0.168 HD
ENDROOT
BRANCH   1   3
HETATM    3  C   UNL     1      -4.901 -13.296 -39.793  1.00  0.00     0.179 C 
HETATM    4  S   UNL     1      -4.517 -13.557 -41.401  1.00  0.00    -0.040 SA
BRANCH   3   5
HETATM    5  N   UNL     1      -4.120 -13.911 -38.843  1.00  0.00    -0.299 N 
HETATM    6  C   UNL     1      -3.404 -13.294 -37.819  1.00  0.00     0.260 C 
HETATM    7  O   UNL     1      -3.766 -12.247 -37.294  1.00  0.00    -0.267 OA
HETATM    8  H   UNL     1      -3.865 -14.855 -39.096  1.00  0.00     0.171 HD
BRANCH   6   9
HETATM    9  C   UNL     1      -2.172 -14.025 -37.380  1.00  0.00     0.065 A 
HETATM   10  C   UNL     1      -1.101 -14.263 -38.253  1.00  0.00     0.084 A 
HETATM   11  C   UNL     1       0.048 -14.922 -37.800  1.00  0.00     0.038 A 
HETATM   12  C   UNL     1       0.119 -15.400 -36.493  1.00  0.00     0.003 A 
HETATM   13  C   UNL     1      -0.958 -15.219 -35.632  1.00  0.00     0.001 A 
HETATM   14  C   UNL     1      -2.099 -14.540 -36.072  1.00  0.00     0.020 A 
BRANCH  10  15
HETATM   15  O   UNL     1      -1.099 -13.806 -39.543  1.00  0.00    -0.350 OA
BRANCH  15  16
HETATM   16  C   UNL     1      -0.348 -14.685 -40.396  1.00  0.00     0.171 C 
HETATM   17  C   UNL     1      -1.313 -15.602 -41.128  1.00  0.00     0.034 C 
ENDBRANCH  15  16
ENDBRANCH  10  15
ENDBRANCH   6   9
ENDBRANCH   3   5
ENDBRANCH   1   3
BRANCH   1  18
HETATM   18  C   UNL     1      -7.332 -12.807 -39.390  1.00  0.00     0.050 A 
HETATM   19  C   UNL     1      -7.959 -13.606 -38.416  1.00  0.00     0.058 A 
HETATM   20  C   UNL     1      -9.357 -13.708 -38.372  1.00  0.00     0.019 A 
HETATM   21  C   UNL     1     -10.139 -13.038 -39.310  1.00  0.00     0.001 A 
HETATM   22  C   UNL     1      -9.526 -12.273 -40.299  1.00  0.00     0.002 A 
HETATM   23  C   UNL     1      -8.134 -12.154 -40.337  1.00  0.00     0.030 A 
BRANCH  19  24
HETATM   24  C   UNL     1      -7.208 -14.510 -37.505  1.00  0.00     0.253 C 
HETATM   25  N   UNL     1      -7.008 -14.016 -36.230  1.00  0.00    -0.357 N 
HETATM   26  H   UNL     1      -7.366 -13.092 -36.018  1.00  0.00     0.162 HD
HETATM   27  O   UNL     1      -6.724 -15.553 -37.922  1.00  0.00    -0.268 OA
BRANCH  25  28
HETATM   28  C   UNL     1      -6.019 -14.588 -35.341  1.00  0.00     0.125 C 
BRANCH  28  29
HETATM   29  C   UNL     1      -6.240 -14.230 -33.879  1.00  0.00     0.046 C 
BRANCH  29  30
HETATM   30  C   UNL     1      -5.693 -12.853 -33.533  1.00  0.00     0.165 C 
BRANCH  30  31
HETATM   31  O   UNL     1      -4.787 -12.426 -34.543  1.00  0.00    -0.401 OA
HETATM   32  H   UNL     1      -4.721 -11.457 -34.480  1.00  0.00     0.209 HD
ENDBRANCH  30  31
ENDBRANCH  29  30
ENDBRANCH  28  29
ENDBRANCH  25  28
ENDBRANCH  19  24
ENDBRANCH   1  18
TORSDOF 11
ENDMDL
MODEL 10
REMARK VINA RESULT:      -6.9      3.117      7.709
REMARK  11 active torsions:
REMARK  status: ('A' for Active; 'I' for Inactive)
REMARK    1  A    between atoms: C_2  and  O_3 
REMARK    2  A    between atoms: O_3  and  C_4 
REMARK    3  A    between atoms: C_5  and  C_6 
REMARK       I    between atoms: C_6  and  N_7 
REMARK    4  A    between atoms: N_7  and  C_8 
REMARK    5  A    between atoms: C_8  and  N_9 
REMARK    6  A    between atoms: N_9  and  C_10 
REMARK    7  A    between atoms: C_11  and  C_12 
REMARK       I    between atoms: C_12  and  N_13 
REMARK    8  A    between atoms: N_13  and  C_14 
REMARK    9  A    between atoms: C_14  and  C_15 
REMARK   10  A    between atoms: C_15  and  C_16 
REMARK   11  A    between atoms: C_16  and  O_17 
ROOT
HETATM    1  N   UNL     1      -4.153  -1.069 -33.945  1.00  0.00    -0.332 N 
HETATM    2  H   UNL     1      -4.043  -0.474 -34.771  1.00  0.00     0.168 HD
ENDROOT
BRANCH   1   3
HETATM    3  C   UNL     1      -3.431  -0.682 -32.847  1.00  0.00     0.179 C 
HETATM    4  S   UNL     1      -2.780  -1.694 -31.684  1.00  0.00    -0.040 SA
BRANCH   3   5
HETATM    5  N   UNL     1      -3.256   0.673 -32.683  1.00  0.00    -0.299 N 
HETATM    6  C   UNL     1      -4.038   1.532 -31.914  1.00  0.00     0.260 C 
HETATM    7  O   UNL     1      -4.620   1.169 -30.898  1.00  0.00    -0.267 OA
HETATM    8  H   UNL     1      -2.664   1.080 -33.393  1.00  0.00     0.171 HD
BRANCH   6   9
HETATM    9  C   UNL     1      -4.089   2.948 -32.402  1.00  0.00     0.065 A 
HETATM   10  C   UNL     1      -5.302   3.621 -32.598  1.00  0.00     0.084 A 
HETATM   11  C   UNL     1      -5.311   4.955 -33.025  1.00  0.00     0.038 A 
HETATM   12  C   UNL     1      -4.116   5.611 -33.315  1.00  0.00     0.003 A 
HETATM   13  C   UNL     1      -2.906   4.937 -33.177  1.00  0.00     0.001 A 
HETATM   14  C   UNL     1      -2.891   3.613 -32.728  1.00  0.00     0.020 A 
BRANCH  10  15
HETATM   15  O   UNL     1      -6.510   3.042 -32.317  1.00  0.00    -0.350 OA
BRANCH  15  16
HETATM   16  C   UNL     1      -7.259   3.842 -31.389  1.00  0.00     0.171 C 
HETATM   17  C   UNL     1      -7.518   3.027 -30.134  1.00  0.00     0.034 C 
ENDBRANCH  15  16
ENDBRANCH  10  15
ENDBRANCH   6   9
ENDBRANCH   3   5
ENDBRANCH   1   3
BRANCH   1  18
HETATM   18  C   UNL     1      -4.948  -2.225 -34.123  1.00  0.00     0.050 A 
HETATM   19  C   UNL     1      -6.348  -2.126 -34.216  1.00  0.00     0.058 A 
HETATM   20  C   UNL     1      -7.118  -3.239 -34.584  1.00  0.00     0.019 A 
HETATM   21  C   UNL     1      -6.503  -4.462 -34.837  1.00  0.00     0.001 A 
HETATM   22  C   UNL     1      -5.121  -4.580 -34.713  1.00  0.00     0.002 A 
HETATM   23  C   UNL     1      -4.348  -3.470 -34.364  1.00  0.00     0.030 A 
BRANCH  19  24
HETATM   24  C   UNL     1      -7.106  -0.924 -33.775  1.00  0.00     0.253 C 
HETATM   25  N   UNL     1      -7.832  -0.296 -34.769  1.00  0.00    -0.357 N 
HETATM   26  H   UNL     1      -7.786  -0.682 -35.705  1.00  0.00     0.162 HD
HETATM   27  O   UNL     1      -6.980  -0.492 -32.637  1.00  0.00    -0.268 OA
BRANCH  25  28
HETATM   28  C   UNL     1      -8.331   1.053 -34.608  1.00  0.00     0.125 C 
BRANCH  28  29
HETATM   29  C   UNL     1      -9.776   1.113 -34.138  1.00  0.00     0.046 C 
BRANCH  29  30
HETATM   30  C   UNL     1      -9.897   1.609 -32.705  1.00  0.00     0.165 C 
BRANCH  30  31
HETATM   31  O   UNL     1      -9.665   0.535 -31.802  1.00  0.00    -0.401 OA
HETATM   32  H   UNL     1      -9.443  -0.247 -32.336  1.00  0.00     0.209 HD
ENDBRANCH  30  31
ENDBRANCH  29  30
ENDBRANCH  28  29
ENDBRANCH  25  28
ENDBRANCH  19  24
ENDBRANCH   1  18
TORSDOF 11
ENDMDL
