MODEL 1
REMARK VINA RESULT:      -8.2      0.000      0.000
REMARK  3 active torsions:
REMARK  status: ('A' for Active; 'I' for Inactive)
REMARK    1  A    between atoms: C_2  and  C_3 
REMARK    2  A    between atoms: C_9  and  C_10 
REMARK    3  A    between atoms: C_21  and  N_22 
ROOT
HETATM    1  C   UNL     1      -3.719   1.075 -32.319  1.00  0.00     0.066 A 
HETATM    2  N   UNL     1      -2.974   1.132 -31.203  1.00  0.00    -0.177 NA
HETATM    3  N   UNL     1      -2.656  -0.149 -30.942  1.00  0.00    -0.256 N 
HETATM    4  H   UNL     1      -2.079  -0.357 -30.134  1.00  0.00     0.191 HD
HETATM    5  C   UNL     1      -3.182  -1.012 -31.847  1.00  0.00     0.175 A 
HETATM    6  C   UNL     1      -3.884  -0.265 -32.759  1.00  0.00     0.035 A 
HETATM    7  C   UNL     1      -4.551  -0.943 -33.908  1.00  0.00     0.104 A 
HETATM    8  C   UNL     1      -4.403  -2.460 -33.785  1.00  0.00     0.067 A 
HETATM    9  C   UNL     1      -5.170  -3.305 -34.789  1.00  0.00     0.020 C 
HETATM   10  N   UNL     1      -5.807  -4.007 -35.621  1.00  0.00    -0.096 N 
HETATM   11  C   UNL     1      -3.679  -3.068 -32.807  1.00  0.00     0.139 A 
HETATM   12  O   UNL     1      -3.016  -2.330 -31.812  1.00  0.00    -0.279 OA
ENDROOT
BRANCH   7  13
HETATM   13  C   UNL     1      -6.001  -0.479 -33.917  1.00  0.00    -0.043 A 
HETATM   14  C   UNL     1      -6.690  -0.354 -32.696  1.00  0.00     0.033 A 
HETATM   15  C   UNL     1      -8.018   0.090 -32.658  1.00  0.00     0.056 A 
HETATM   16 CL   UNL     1      -8.783   0.195 -31.113  1.00  0.00    -0.083 Cl
HETATM   17  C   UNL     1      -8.673   0.426 -33.845  1.00  0.00     0.055 A 
HETATM   18 CL   UNL     1     -10.309   0.979 -33.878  1.00  0.00    -0.083 Cl
HETATM   19  C   UNL     1      -7.998   0.317 -35.063  1.00  0.00     0.026 A 
HETATM   20  C   UNL     1      -6.674  -0.130 -35.100  1.00  0.00     0.010 A 
ENDBRANCH   7  13
BRANCH  11  21
HETATM   21  N   UNL     1      -3.522  -4.426 -32.655  1.00  0.00    -0.282 NA
HETATM   22  H   UNL     1      -3.432  -4.764 -31.700  1.00  0.00     0.126 HD
HETATM   23  H   UNL     1      -2.819  -4.808 -33.282  1.00  0.00     0.126 HD
ENDBRANCH  11  21
BRANCH   1  24
HETATM   24  C   UNL     1      -4.244   2.341 -32.913  1.00  0.00     0.057 C 
HETATM   25  C   UNL     1      -5.365   2.949 -32.087  1.00  0.00     0.011 C 
ENDBRANCH   1  24
TORSDOF 3
ENDMDL
MODEL 2
REMARK VINA RESULT:      -7.5      2.208      4.576
REMARK  3 active torsions:
REMARK  status: ('A' for Active; 'I' for Inactive)
REMARK    1  A    between atoms: C_2  and  C_3 
REMARK    2  A    between atoms: C_9  and  C_10 
REMARK    3  A    between atoms: C_21  and  N_22 
ROOT
HETATM    1  C   UNL     1      -5.983  -1.577 -33.728  1.00  0.00     0.066 A 
HETATM    2  N   UNL     1      -4.789  -1.857 -34.278  1.00  0.00    -0.177 NA
HETATM    3  N   UNL     1      -3.940  -0.984 -33.705  1.00  0.00    -0.256 N 
HETATM    4  H   UNL     1      -2.959  -1.012 -33.963  1.00  0.00     0.191 HD
HETATM    5  C   UNL     1      -4.556  -0.158 -32.823  1.00  0.00     0.175 A 
HETATM    6  C   UNL     1      -5.885  -0.502 -32.806  1.00  0.00     0.035 A 
HETATM    7  C   UNL     1      -6.818   0.217 -31.892  1.00  0.00     0.104 A 
HETATM    8  C   UNL     1      -6.087   1.350 -31.172  1.00  0.00     0.067 A 
HETATM    9  C   UNL     1      -6.937   2.286 -30.329  1.00  0.00     0.020 C 
HETATM   10  N   UNL     1      -7.643   3.063 -29.629  1.00  0.00    -0.096 N 
HETATM   11  C   UNL     1      -4.753   1.583 -31.298  1.00  0.00     0.139 A 
HETATM   12  O   UNL     1      -3.940   0.791 -32.127  1.00  0.00    -0.279 OA
ENDROOT
BRANCH   7  13
HETATM   13  C   UNL     1      -7.988   0.698 -32.740  1.00  0.00    -0.043 A 
HETATM   14  C   UNL     1      -9.240   0.068 -32.605  1.00  0.00     0.033 A 
HETATM   15  C   UNL     1     -10.347   0.493 -33.350  1.00  0.00     0.056 A 
HETATM   16 CL   UNL     1     -11.835  -0.353 -33.125  1.00  0.00    -0.083 Cl
HETATM   17  C   UNL     1     -10.218   1.564 -34.238  1.00  0.00     0.055 A 
HETATM   18 CL   UNL     1     -11.536   2.142 -35.192  1.00  0.00    -0.083 Cl
HETATM   19  C   UNL     1      -8.984   2.204 -34.375  1.00  0.00     0.026 A 
HETATM   20  C   UNL     1      -7.879   1.778 -33.632  1.00  0.00     0.010 A 
ENDBRANCH   7  13
BRANCH  11  21
HETATM   21  N   UNL     1      -4.055   2.591 -30.675  1.00  0.00    -0.282 NA
HETATM   22  H   UNL     1      -4.612   3.310 -30.220  1.00  0.00     0.126 HD
HETATM   23  H   UNL     1      -3.315   2.970 -31.263  1.00  0.00     0.126 HD
ENDBRANCH  11  21
BRANCH   1  24
HETATM   24  C   UNL     1      -7.178  -2.377 -34.131  1.00  0.00     0.057 C 
HETATM   25  C   UNL     1      -6.800  -3.715 -34.746  1.00  0.00     0.011 C 
ENDBRANCH   1  24
TORSDOF 3
ENDMDL
MODEL 3
REMARK VINA RESULT:      -7.2      5.059      6.863
REMARK  3 active torsions:
REMARK  status: ('A' for Active; 'I' for Inactive)
REMARK    1  A    between atoms: C_2  and  C_3 
REMARK    2  A    between atoms: C_9  and  C_10 
REMARK    3  A    between atoms: C_21  and  N_22 
ROOT
HETATM    1  C   UNL     1      -8.575   4.448 -33.849  1.00  0.00     0.066 A 
HETATM    2  N   UNL     1      -8.738   5.547 -34.605  1.00  0.00    -0.177 NA
HETATM    3  N   UNL     1      -9.947   5.390 -35.174  1.00  0.00    -0.256 N 
HETATM    4  H   UNL     1     -10.296   6.113 -35.794  1.00  0.00     0.191 HD
HETATM    5  C   UNL     1     -10.546   4.228 -34.814  1.00  0.00     0.175 A 
HETATM    6  C   UNL     1      -9.692   3.580 -33.956  1.00  0.00     0.035 A 
HETATM    7  C   UNL     1     -10.101   2.276 -33.357  1.00  0.00     0.104 A 
HETATM    8  C   UNL     1     -11.444   1.827 -33.933  1.00  0.00     0.067 A 
HETATM    9  C   UNL     1     -11.921   0.435 -33.550  1.00  0.00     0.020 C 
HETATM   10  N   UNL     1     -12.316  -0.720 -33.233  1.00  0.00    -0.096 N 
HETATM   11  C   UNL     1     -12.181   2.577 -34.795  1.00  0.00     0.139 A 
HETATM   12  O   UNL     1     -11.743   3.837 -35.238  1.00  0.00    -0.279 OA
ENDROOT
BRANCH   7  13
HETATM   13  C   UNL     1      -8.971   1.292 -33.625  1.00  0.00    -0.043 A 
HETATM   14  C   UNL     1      -8.188   0.835 -32.547  1.00  0.00     0.033 A 
HETATM   15  C   UNL     1      -7.152  -0.087 -32.746  1.00  0.00     0.056 A 
HETATM   16 CL   UNL     1      -6.238  -0.574 -31.364  1.00  0.00    -0.083 Cl
HETATM   17  C   UNL     1      -6.891  -0.574 -34.029  1.00  0.00     0.055 A 
HETATM   18 CL   UNL     1      -5.631  -1.709 -34.353  1.00  0.00    -0.083 Cl
HETATM   19  C   UNL     1      -7.667  -0.137 -35.106  1.00  0.00     0.026 A 
HETATM   20  C   UNL     1      -8.698   0.786 -34.907  1.00  0.00     0.010 A 
ENDBRANCH   7  13
BRANCH  11  21
HETATM   21  N   UNL     1     -13.389   2.212 -35.342  1.00  0.00    -0.282 NA
HETATM   22  H   UNL     1     -13.685   2.730 -36.166  1.00  0.00     0.126 HD
HETATM   23  H   UNL     1     -14.121   2.123 -34.641  1.00  0.00     0.126 HD
ENDBRANCH  11  21
BRANCH   1  24
HETATM   24  C   UNL     1      -7.323   4.292 -33.049  1.00  0.00     0.057 C 
HETATM   25  C   UNL     1      -6.169   3.751 -33.877  1.00  0.00     0.011 C 
ENDBRANCH   1  24
TORSDOF 3
ENDMDL
MODEL 4
REMARK VINA RESULT:      -7.1      3.767      5.319
REMARK  3 active torsions:
REMARK  status: ('A' for Active; 'I' for Inactive)
REMARK    1  A    between atoms: C_2  and  C_3 
REMARK    2  A    between atoms: C_9  and  C_10 
REMARK    3  A    between atoms: C_21  and  N_22 
ROOT
HETATM    1  C   UNL     1      -8.035   2.466 -30.675  1.00  0.00     0.066 A 
HETATM    2  N   UNL     1      -9.349   2.609 -30.919  1.00  0.00    -0.177 NA
HETATM    3  N   UNL     1      -9.630   1.657 -31.826  1.00  0.00    -0.256 N 
HETATM    4  H   UNL     1     -10.583   1.564 -32.162  1.00  0.00     0.191 HD
HETATM    5  C   UNL     1      -8.540   0.927 -32.171  1.00  0.00     0.175 A 
HETATM    6  C   UNL     1      -7.479   1.417 -31.453  1.00  0.00     0.035 A 
HETATM    7  C   UNL     1      -6.137   0.781 -31.595  1.00  0.00     0.104 A 
HETATM    8  C   UNL     1      -6.179  -0.306 -32.669  1.00  0.00     0.067 A 
HETATM    9  C   UNL     1      -4.850  -0.937 -33.055  1.00  0.00     0.020 C 
HETATM   10  N   UNL     1      -3.749  -1.460 -33.375  1.00  0.00    -0.096 N 
HETATM   11  C   UNL     1      -7.315  -0.681 -33.316  1.00  0.00     0.139 A 
HETATM   12  O   UNL     1      -8.552  -0.072 -33.048  1.00  0.00    -0.279 OA
ENDROOT
BRANCH   7  13
HETATM   13  C   UNL     1      -5.149   1.897 -31.905  1.00  0.00    -0.043 A 
HETATM   14  C   UNL     1      -5.406   2.762 -32.986  1.00  0.00     0.033 A 
HETATM   15  C   UNL     1      -4.533   3.814 -33.293  1.00  0.00     0.056 A 
HETATM   16 CL   UNL     1      -4.927   4.812 -34.646  1.00  0.00    -0.083 Cl
HETATM   17  C   UNL     1      -3.392   4.021 -32.514  1.00  0.00     0.055 A 
HETATM   18 CL   UNL     1      -2.270   5.294 -32.832  1.00  0.00    -0.083 Cl
HETATM   19  C   UNL     1      -3.129   3.176 -31.433  1.00  0.00     0.026 A 
HETATM   20  C   UNL     1      -4.000   2.124 -31.129  1.00  0.00     0.010 A 
ENDBRANCH   7  13
BRANCH  11  21
HETATM   21  N   UNL     1      -7.398  -1.649 -34.290  1.00  0.00    -0.282 NA
HETATM   22  H   UNL     1      -6.598  -1.730 -34.913  1.00  0.00     0.126 HD
HETATM   23  H   UNL     1      -8.288  -1.627 -34.783  1.00  0.00     0.126 HD
ENDBRANCH  11  21
BRANCH   1  24
HETATM   24  C   UNL     1      -7.374   3.369 -29.686  1.00  0.00     0.057 C 
HETATM   25  C   UNL     1      -7.014   4.720 -30.283  1.00  0.00     0.011 C 
ENDBRANCH   1  24
TORSDOF 3
ENDMDL
MODEL 5
REMARK VINA RESULT:      -6.9      2.289      3.145
REMARK  3 active torsions:
REMARK  status: ('A' for Active; 'I' for Inactive)
REMARK    1  A    between atoms: C_2  and  C_3 
REMARK    2  A    between atoms: C_9  and  C_10 
REMARK    3  A    between atoms: C_21  and  N_22 
ROOT
HETATM    1  C   UNL     1      -3.346   1.200 -31.563  1.00  0.00     0.066 A 
HETATM    2  N   UNL     1      -2.505   0.359 -30.938  1.00  0.00    -0.177 NA
HETATM    3  N   UNL     1      -2.823  -0.857 -31.419  1.00  0.00    -0.256 N 
HETATM    4  H   UNL     1      -2.305  -1.665 -31.092  1.00  0.00     0.191 HD
HETATM    5  C   UNL     1      -3.841  -0.814 -32.314  1.00  0.00     0.175 A 
HETATM    6  C   UNL     1      -4.217   0.500 -32.439  1.00  0.00     0.035 A 
HETATM    7  C   UNL     1      -5.302   0.867 -33.393  1.00  0.00     0.104 A 
HETATM    8  C   UNL     1      -5.904  -0.391 -34.020  1.00  0.00     0.067 A 
HETATM    9  C   UNL     1      -7.135  -0.199 -34.891  1.00  0.00     0.020 C 
HETATM   10  N   UNL     1      -8.157  -0.041 -35.612  1.00  0.00    -0.096 N 
HETATM   11  C   UNL     1      -5.431  -1.645 -33.791  1.00  0.00     0.139 A 
HETATM   12  O   UNL     1      -4.343  -1.878 -32.932  1.00  0.00    -0.279 OA
ENDROOT
BRANCH   7  13
HETATM   13  C   UNL     1      -6.315   1.696 -32.616  1.00  0.00    -0.043 A 
HETATM   14  C   UNL     1      -6.598   3.009 -33.038  1.00  0.00     0.033 A 
HETATM   15  C   UNL     1      -7.538   3.799 -32.364  1.00  0.00     0.056 A 
HETATM   16 CL   UNL     1      -7.803   5.402 -32.948  1.00  0.00    -0.083 Cl
HETATM   17  C   UNL     1      -8.219   3.280 -31.260  1.00  0.00     0.055 A 
HETATM   18 CL   UNL     1      -9.389   4.193 -30.378  1.00  0.00    -0.083 Cl
HETATM   19  C   UNL     1      -7.956   1.975 -30.836  1.00  0.00     0.026 A 
HETATM   20  C   UNL     1      -7.015   1.189 -31.508  1.00  0.00     0.010 A 
ENDBRANCH   7  13
BRANCH  11  21
HETATM   21  N   UNL     1      -5.942  -2.803 -34.327  1.00  0.00    -0.282 NA
HETATM   22  H   UNL     1      -5.264  -3.509 -34.604  1.00  0.00     0.126 HD
HETATM   23  H   UNL     1      -6.646  -2.623 -35.040  1.00  0.00     0.126 HD
ENDBRANCH  11  21
BRANCH   1  24
HETATM   24  C   UNL     1      -3.264   2.663 -31.274  1.00  0.00     0.057 C 
HETATM   25  C   UNL     1      -2.889   3.477 -32.501  1.00  0.00     0.011 C 
ENDBRANCH   1  24
TORSDOF 3
ENDMDL
MODEL 6
REMARK VINA RESULT:      -6.9      9.771     11.731
REMARK  3 active torsions:
REMARK  status: ('A' for Active; 'I' for Inactive)
REMARK    1  A    between atoms: C_2  and  C_3 
REMARK    2  A    between atoms: C_9  and  C_10 
REMARK    3  A    between atoms: C_21  and  N_22 
ROOT
HETATM    1  C   UNL     1       0.419   8.586 -25.847  1.00  0.00     0.066 A 
HETATM    2  N   UNL     1       0.703   9.576 -24.982  1.00  0.00    -0.177 NA
HETATM    3  N   UNL     1      -0.464   9.827 -24.362  1.00  0.00    -0.256 N 
HETATM    4  H   UNL     1      -0.495  10.545 -23.646  1.00  0.00     0.191 HD
HETATM    5  C   UNL     1      -1.474   9.040 -24.810  1.00  0.00     0.175 A 
HETATM    6  C   UNL     1      -0.950   8.220 -25.778  1.00  0.00     0.035 A 
HETATM    7  C   UNL     1      -1.825   7.207 -26.436  1.00  0.00     0.104 A 
HETATM    8  C   UNL     1      -3.267   7.355 -25.947  1.00  0.00     0.067 A 
HETATM    9  C   UNL     1      -4.316   6.507 -26.647  1.00  0.00     0.020 C 
HETATM   10  N   UNL     1      -5.187   5.803 -27.227  1.00  0.00    -0.096 N 
HETATM   11  C   UNL     1      -3.646   8.232 -24.980  1.00  0.00     0.139 A 
HETATM   12  O   UNL     1      -2.723   9.091 -24.359  1.00  0.00    -0.279 OA
ENDROOT
BRANCH   7  13
HETATM   13  C   UNL     1      -1.676   7.401 -27.938  1.00  0.00    -0.043 A 
HETATM   14  C   UNL     1      -1.011   6.417 -28.696  1.00  0.00     0.033 A 
HETATM   15  C   UNL     1      -0.870   6.546 -30.083  1.00  0.00     0.056 A 
HETATM   16 CL   UNL     1      -0.025   5.295 -30.921  1.00  0.00    -0.083 Cl
HETATM   17  C   UNL     1      -1.403   7.660 -30.736  1.00  0.00     0.055 A 
HETATM   18 CL   UNL     1      -1.267   7.890 -32.442  1.00  0.00    -0.083 Cl
HETATM   19  C   UNL     1      -2.073   8.640 -29.999  1.00  0.00     0.026 A 
HETATM   20  C   UNL     1      -2.211   8.511 -28.613  1.00  0.00     0.010 A 
ENDBRANCH   7  13
BRANCH  11  21
HETATM   21  N   UNL     1      -4.928   8.403 -24.513  1.00  0.00    -0.282 NA
HETATM   22  H   UNL     1      -5.249   9.364 -24.421  1.00  0.00     0.126 HD
HETATM   23  H   UNL     1      -5.121   7.836 -23.691  1.00  0.00     0.126 HD
ENDBRANCH  11  21
BRANCH   1  24
HETATM   24  C   UNL     1       1.507   8.038 -26.710  1.00  0.00     0.057 C 
HETATM   25  C   UNL     1       1.694   8.839 -27.988  1.00  0.00     0.011 C 
ENDBRANCH   1  24
TORSDOF 3
ENDMDL
MODEL 7
REMARK VINA RESULT:      -6.8      3.181      4.520
REMARK  3 active torsions:
REMARK  status: ('A' for Active; 'I' for Inactive)
REMARK    1  A    between atoms: C_2  and  C_3 
REMARK    2  A    between atoms: C_9  and  C_10 
REMARK    3  A    between atoms: C_21  and  N_22 
ROOT
HETATM    1  C   UNL     1      -8.266   3.505 -30.752  1.00  0.00     0.066 A 
HETATM    2  N   UNL     1      -7.893   3.563 -29.462  1.00  0.00    -0.177 NA
HETATM    3  N   UNL     1      -7.002   2.566 -29.322  1.00  0.00    -0.256 N 
HETATM    4  H   UNL     1      -6.569   2.417 -28.417  1.00  0.00     0.191 HD
HETATM    5  C   UNL     1      -6.807   1.874 -30.473  1.00  0.00     0.175 A 
HETATM    6  C   UNL     1      -7.609   2.445 -31.429  1.00  0.00     0.035 A 
HETATM    7  C   UNL     1      -7.581   1.916 -32.824  1.00  0.00     0.104 A 
HETATM    8  C   UNL     1      -6.679   0.684 -32.904  1.00  0.00     0.067 A 
HETATM    9  C   UNL     1      -6.674  -0.075 -34.221  1.00  0.00     0.020 C 
HETATM   10  N   UNL     1      -6.671  -0.705 -35.313  1.00  0.00    -0.096 N 
HETATM   11  C   UNL     1      -5.946   0.220 -31.857  1.00  0.00     0.139 A 
HETATM   12  O   UNL     1      -5.978   0.843 -30.599  1.00  0.00    -0.279 OA
ENDROOT
BRANCH   7  13
HETATM   13  C   UNL     1      -9.024   1.632 -33.219  1.00  0.00    -0.043 A 
HETATM   14  C   UNL     1      -9.667   2.490 -34.132  1.00  0.00     0.033 A 
HETATM   15  C   UNL     1     -10.987   2.254 -34.538  1.00  0.00     0.056 A 
HETATM   16 CL   UNL     1     -11.694   3.372 -35.649  1.00  0.00    -0.083 Cl
HETATM   17  C   UNL     1     -11.679   1.147 -34.044  1.00  0.00     0.055 A 
HETATM   18 CL   UNL     1     -13.308   0.792 -34.497  1.00  0.00    -0.083 Cl
HETATM   19  C   UNL     1     -11.050   0.282 -33.145  1.00  0.00     0.026 A 
HETATM   20  C   UNL     1      -9.734   0.520 -32.737  1.00  0.00     0.010 A 
ENDBRANCH   7  13
BRANCH  11  21
HETATM   21  N   UNL     1      -5.126  -0.885 -31.882  1.00  0.00    -0.282 NA
HETATM   22  H   UNL     1      -4.992  -1.365 -30.996  1.00  0.00     0.126 HD
HETATM   23  H   UNL     1      -4.256  -0.711 -32.379  1.00  0.00     0.126 HD
ENDBRANCH  11  21
BRANCH   1  24
HETATM   24  C   UNL     1      -9.256   4.495 -31.271  1.00  0.00     0.057 C 
HETATM   25  C   UNL     1     -10.689   4.109 -30.943  1.00  0.00     0.011 C 
ENDBRANCH   1  24
TORSDOF 3
ENDMDL
MODEL 8
REMARK VINA RESULT:      -6.8     13.593     14.914
REMARK  3 active torsions:
REMARK  status: ('A' for Active; 'I' for Inactive)
REMARK    1  A    between atoms: C_2  and  C_3 
REMARK    2  A    between atoms: C_9  and  C_10 
REMARK    3  A    between atoms: C_21  and  N_22 
ROOT
HETATM    1  C   UNL     1      -4.942 -12.933 -38.755  1.00  0.00     0.066 A 
HETATM    2  N   UNL     1      -4.124 -12.051 -38.157  1.00  0.00    -0.177 NA
HETATM    3  N   UNL     1      -4.115 -12.420 -36.863  1.00  0.00    -0.256 N 
HETATM    4  H   UNL     1      -3.549 -11.894 -36.206  1.00  0.00     0.191 HD
HETATM    5  C   UNL     1      -4.906 -13.495 -36.622  1.00  0.00     0.175 A 
HETATM    6  C   UNL     1      -5.467 -13.863 -37.820  1.00  0.00     0.035 A 
HETATM    7  C   UNL     1      -6.366 -15.052 -37.877  1.00  0.00     0.104 A 
HETATM    8  C   UNL     1      -6.590 -15.614 -36.473  1.00  0.00     0.067 A 
HETATM    9  C   UNL     1      -7.617 -16.726 -36.338  1.00  0.00     0.020 C 
HETATM   10  N   UNL     1      -8.469 -17.649 -36.225  1.00  0.00    -0.096 N 
HETATM   11  C   UNL     1      -5.969 -15.133 -35.363  1.00  0.00     0.139 A 
HETATM   12  O   UNL     1      -5.070 -14.054 -35.428  1.00  0.00    -0.279 OA
ENDROOT
BRANCH   7  13
HETATM   13  C   UNL     1      -7.651 -14.604 -38.559  1.00  0.00    -0.043 A 
HETATM   14  C   UNL     1      -8.088 -15.282 -39.713  1.00  0.00     0.033 A 
HETATM   15  C   UNL     1      -9.276 -14.917 -40.360  1.00  0.00     0.056 A 
HETATM   16 CL   UNL     1      -9.720 -15.798 -41.776  1.00  0.00    -0.083 Cl
HETATM   17  C   UNL     1     -10.050 -13.870 -39.853  1.00  0.00     0.055 A 
HETATM   18 CL   UNL     1     -11.523 -13.361 -40.596  1.00  0.00    -0.083 Cl
HETATM   19  C   UNL     1      -9.633 -13.194 -38.703  1.00  0.00     0.026 A 
HETATM   20  C   UNL     1      -8.446 -13.559 -38.060  1.00  0.00     0.010 A 
ENDBRANCH   7  13
BRANCH  11  21
HETATM   21  N   UNL     1      -6.144 -15.602 -34.082  1.00  0.00    -0.282 NA
HETATM   22  H   UNL     1      -6.984 -15.292 -33.600  1.00  0.00     0.126 HD
HETATM   23  H   UNL     1      -5.302 -15.511 -33.517  1.00  0.00     0.126 HD
ENDBRANCH  11  21
BRANCH   1  24
HETATM   24  C   UNL     1      -5.178 -12.829 -40.226  1.00  0.00     0.057 C 
HETATM   25  C   UNL     1      -6.328 -11.894 -40.565  1.00  0.00     0.011 C 
ENDBRANCH   1  24
TORSDOF 3
ENDMDL
MODEL 9
REMARK VINA RESULT:      -6.7      4.867      7.495
REMARK  3 active torsions:
REMARK  status: ('A' for Active; 'I' for Inactive)
REMARK    1  A    between atoms: C_2  and  C_3 
REMARK    2  A    between atoms: C_9  and  C_10 
REMARK    3  A    between atoms: C_21  and  N_22 
ROOT
HETATM    1  C   UNL     1      -7.859   1.194 -32.837  1.00  0.00     0.066 A 
HETATM    2  N   UNL     1      -8.467   0.217 -32.143  1.00  0.00    -0.177 NA
HETATM    3  N   UNL     1      -9.228   0.865 -31.242  1.00  0.00    -0.256 N 
HETATM    4  H   UNL     1      -9.796   0.325 -30.599  1.00  0.00     0.191 HD
HETATM    5  C   UNL     1      -9.113   2.214 -31.336  1.00  0.00     0.175 A 
HETATM    6  C   UNL     1      -8.232   2.476 -32.355  1.00  0.00     0.035 A 
HETATM    7  C   UNL     1      -7.931   3.890 -32.722  1.00  0.00     0.104 A 
HETATM    8  C   UNL     1      -8.630   4.847 -31.756  1.00  0.00     0.067 A 
HETATM    9  C   UNL     1      -8.290   6.323 -31.891  1.00  0.00     0.020 C 
HETATM   10  N   UNL     1      -8.008   7.547 -32.002  1.00  0.00    -0.096 N 
HETATM   11  C   UNL     1      -9.475   4.438 -30.772  1.00  0.00     0.139 A 
HETATM   12  O   UNL     1      -9.758   3.078 -30.561  1.00  0.00    -0.279 OA
ENDROOT
BRANCH   7  13
HETATM   13  C   UNL     1      -6.416   4.035 -32.723  1.00  0.00    -0.043 A 
HETATM   14  C   UNL     1      -5.772   4.517 -33.879  1.00  0.00     0.033 A 
HETATM   15  C   UNL     1      -4.382   4.685 -33.915  1.00  0.00     0.056 A 
HETATM   16 CL   UNL     1      -3.684   5.267 -35.384  1.00  0.00    -0.083 Cl
HETATM   17  C   UNL     1      -3.615   4.382 -32.787  1.00  0.00     0.055 A 
HETATM   18 CL   UNL     1      -1.897   4.562 -32.757  1.00  0.00    -0.083 Cl
HETATM   19  C   UNL     1      -4.241   3.912 -31.630  1.00  0.00     0.026 A 
HETATM   20  C   UNL     1      -5.628   3.742 -31.596  1.00  0.00     0.010 A 
ENDBRANCH   7  13
BRANCH  11  21
HETATM   21  N   UNL     1     -10.120   5.261 -29.879  1.00  0.00    -0.282 NA
HETATM   22  H   UNL     1     -10.658   6.026 -30.279  1.00  0.00     0.126 HD
HETATM   23  H   UNL     1      -9.515   5.554 -29.115  1.00  0.00     0.126 HD
ENDBRANCH  11  21
BRANCH   1  24
HETATM   24  C   UNL     1      -6.931   0.829 -33.950  1.00  0.00     0.057 C 
HETATM   25  C   UNL     1      -7.670   0.341 -35.185  1.00  0.00     0.011 C 
ENDBRANCH   1  24
TORSDOF 3
ENDMDL
MODEL 10
REMARK VINA RESULT:      -6.7      2.711      4.023
REMARK  3 active torsions:
REMARK  status: ('A' for Active; 'I' for Inactive)
REMARK    1  A    between atoms: C_2  and  C_3 
REMARK    2  A    between atoms: C_9  and  C_10 
REMARK    3  A    between atoms: C_21  and  N_22 
ROOT
HETATM    1  C   UNL     1      -4.209   4.878 -32.400  1.00  0.00     0.066 A 
HETATM    2  N   UNL     1      -3.174   5.372 -31.700  1.00  0.00    -0.177 NA
HETATM    3  N   UNL     1      -2.569   4.289 -31.181  1.00  0.00    -0.256 N 
HETATM    4  H   UNL     1      -1.740   4.416 -30.609  1.00  0.00     0.191 HD
HETATM    5  C   UNL     1      -3.190   3.131 -31.518  1.00  0.00     0.175 A 
HETATM    6  C   UNL     1      -4.264   3.463 -32.307  1.00  0.00     0.035 A 
HETATM    7  C   UNL     1      -5.125   2.382 -32.868  1.00  0.00     0.104 A 
HETATM    8  C   UNL     1      -4.680   1.019 -32.335  1.00  0.00     0.067 A 
HETATM    9  C   UNL     1      -5.561  -0.170 -32.679  1.00  0.00     0.020 C 
HETATM   10  N   UNL     1      -6.291  -1.158 -32.964  1.00  0.00    -0.096 N 
HETATM   11  C   UNL     1      -3.590   0.843 -31.540  1.00  0.00     0.139 A 
HETATM   12  O   UNL     1      -2.791   1.924 -31.133  1.00  0.00    -0.279 OA
ENDROOT
BRANCH   7  13
HETATM   13  C   UNL     1      -6.563   2.729 -32.507  1.00  0.00    -0.043 A 
HETATM   14  C   UNL     1      -7.505   2.910 -33.537  1.00  0.00     0.033 A 
HETATM   15  C   UNL     1      -8.843   3.210 -33.248  1.00  0.00     0.056 A 
HETATM   16 CL   UNL     1      -9.919   3.430 -34.581  1.00  0.00    -0.083 Cl
HETATM   17  C   UNL     1      -9.260   3.322 -31.920  1.00  0.00     0.055 A 
HETATM   18 CL   UNL     1     -10.890   3.690 -31.486  1.00  0.00    -0.083 Cl
HETATM   19  C   UNL     1      -8.337   3.135 -30.887  1.00  0.00     0.026 A 
HETATM   20  C   UNL     1      -7.002   2.839 -31.176  1.00  0.00     0.010 A 
ENDBRANCH   7  13
BRANCH  11  21
HETATM   21  N   UNL     1      -3.156  -0.360 -31.034  1.00  0.00    -0.282 NA
HETATM   22  H   UNL     1      -2.154  -0.448 -30.880  1.00  0.00     0.126 HD
HETATM   23  H   UNL     1      -3.556  -1.155 -31.527  1.00  0.00     0.126 HD
ENDBRANCH  11  21
BRANCH   1  24
HETATM   24  C   UNL     1      -5.109   5.817 -33.134  1.00  0.00     0.057 C 
HETATM   25  C   UNL     1      -6.175   6.422 -32.236  1.00  0.00     0.011 C 
ENDBRANCH   1  24
TORSDOF 3
ENDMDL
