MODEL 1
REMARK VINA RESULT:      -9.4      0.000      0.000
REMARK  8 active torsions:
REMARK  status: ('A' for Active; 'I' for Inactive)
REMARK    1  A    between atoms: C_6  and  N_7 
REMARK    2  A    between atoms: N_7  and  C_8 
REMARK    3  A    between atoms: C_8  and  N_9 
REMARK    4  A    between atoms: N_9  and  C_10 
REMARK    5  A    between atoms: N_9  and  C_25 
REMARK    6  A    between atoms: C_10  and  C_11 
REMARK    7  A    between atoms: C_25  and  C_26 
REMARK    8  A    between atoms: C_26  and  N_27 
ROOT
HETATM    1  N   UNL     1      -5.204   2.596 -32.404  1.00  0.00    -0.352 N 
ENDROOT
BRANCH   1   2
HETATM    2  C   UNL     1      -4.881   1.335 -31.952  1.00  0.00     0.174 C 
HETATM    3  S   UNL     1      -5.400   0.807 -30.448  1.00  0.00    -0.041 SA
BRANCH   2   4
HETATM    4  N   UNL     1      -4.390   0.393 -32.797  1.00  0.00    -0.333 N 
HETATM    5  H   UNL     1      -3.502   0.664 -33.217  1.00  0.00     0.168 HD
BRANCH   4   6
HETATM    6  C   UNL     1      -5.006  -0.697 -33.447  1.00  0.00     0.035 A 
HETATM    7  C   UNL     1      -4.276  -1.889 -33.512  1.00  0.00     0.053 A 
HETATM    8  C   UNL     1      -4.815  -3.011 -34.143  1.00  0.00     0.036 A 
HETATM    9  C   UNL     1      -6.072  -2.951 -34.736  1.00  0.00     0.024 A 
HETATM   10 CL   UNL     1      -3.919  -4.478 -34.178  1.00  0.00    -0.084 Cl
HETATM   11  C   UNL     1      -6.788  -1.756 -34.708  1.00  0.00     0.004 A 
HETATM   12  C   UNL     1      -6.252  -0.631 -34.073  1.00  0.00     0.029 A 
ENDBRANCH   4   6
ENDBRANCH   2   4
ENDBRANCH   1   2
BRANCH   1  13
HETATM   13  C   UNL     1      -6.442   3.215 -31.877  1.00  0.00     0.169 C 
BRANCH  13  14
HETATM   14  C   UNL     1      -7.653   2.981 -32.738  1.00  0.00     0.029 A 
HETATM   15  C   UNL     1      -8.011   4.044 -33.727  1.00  0.00     0.253 A 
HETATM   16  O   UNL     1      -7.248   4.974 -33.972  1.00  0.00    -0.268 OA
HETATM   17  N   UNL     1      -9.214   3.940 -34.369  1.00  0.00    -0.322 N 
HETATM   18  C   UNL     1     -10.122   2.896 -34.158  1.00  0.00     0.048 A 
HETATM   19  H   UNL     1      -9.452   4.690 -35.005  1.00  0.00     0.169 HD
HETATM   20  C   UNL     1      -9.783   1.873 -33.247  1.00  0.00    -0.006 A 
HETATM   21  C   UNL     1     -11.340   2.890 -34.839  1.00  0.00     0.070 A 
HETATM   22  C   UNL     1     -10.677   0.821 -33.014  1.00  0.00     0.053 A 
HETATM   23  C   UNL     1      -8.515   1.969 -32.522  1.00  0.00     0.028 A 
HETATM   24  C   UNL     1     -11.876   0.839 -33.697  1.00  0.00     0.106 A 
HETATM   25  C   UNL     1     -12.198   1.843 -34.579  1.00  0.00     0.107 A 
HETATM   26  O   UNL     1     -12.865  -0.088 -33.585  1.00  0.00    -0.323 OA
HETATM   27  O   UNL     1     -13.430   1.673 -35.132  1.00  0.00    -0.323 OA
HETATM   28  C   UNL     1     -13.860   0.460 -34.477  1.00  0.00     0.352 A 
ENDBRANCH  13  14
ENDBRANCH   1  13
BRANCH   1  29
HETATM   29  C   UNL     1      -4.197   3.529 -32.960  1.00  0.00     0.153 C 
BRANCH  29  30
HETATM   30  C   UNL     1      -3.070   3.952 -32.001  1.00  0.00     0.254 C 
BRANCH  30  31
HETATM   31  N   UNL     1      -2.135   4.975 -32.619  1.00  0.00    -0.066 N 
HETATM   32  H   UNL     1      -1.192   4.785 -32.245  1.00  0.00     0.280 HD
HETATM   33  C   UNL     1      -2.018   4.871 -34.134  1.00  0.00     0.261 C 
HETATM   34  C   UNL     1      -1.058   5.954 -34.645  1.00  0.00     0.195 C 
HETATM   35  O   UNL     1      -1.501   7.259 -34.253  1.00  0.00    -0.388 OA
HETATM   36  C   UNL     1      -1.541   7.395 -32.829  1.00  0.00     0.195 C 
HETATM   37  C   UNL     1      -2.518   6.391 -32.213  1.00  0.00     0.261 C 
ENDBRANCH  30  31
ENDBRANCH  29  30
ENDBRANCH   1  29
TORSDOF 8
ENDMDL
MODEL 2
REMARK VINA RESULT:      -9.3      1.682      2.173
REMARK  8 active torsions:
REMARK  status: ('A' for Active; 'I' for Inactive)
REMARK    1  A    between atoms: C_6  and  N_7 
REMARK    2  A    between atoms: N_7  and  C_8 
REMARK    3  A    between atoms: C_8  and  N_9 
REMARK    4  A    between atoms: N_9  and  C_10 
REMARK    5  A    between atoms: N_9  and  C_25 
REMARK    6  A    between atoms: C_10  and  C_11 
REMARK    7  A    between atoms: C_25  and  C_26 
REMARK    8  A    between atoms: C_26  and  N_27 
ROOT
HETATM    1  N   UNL     1      -4.360   1.873 -32.287  1.00  0.00    -0.352 N 
ENDROOT
BRANCH   1   2
HETATM    2  C   UNL     1      -3.762   0.637 -32.399  1.00  0.00     0.174 C 
HETATM    3  S   UNL     1      -3.149  -0.142 -31.046  1.00  0.00    -0.041 SA
BRANCH   2   4
HETATM    4  N   UNL     1      -3.897  -0.108 -33.526  1.00  0.00    -0.333 N 
HETATM    5  H   UNL     1      -3.343   0.250 -34.303  1.00  0.00     0.168 HD
BRANCH   4   6
HETATM    6  C   UNL     1      -4.877  -1.042 -33.921  1.00  0.00     0.035 A 
HETATM    7  C   UNL     1      -4.477  -2.381 -34.003  1.00  0.00     0.053 A 
HETATM    8  C   UNL     1      -5.387  -3.365 -34.392  1.00  0.00     0.036 A 
HETATM    9  C   UNL     1      -6.694  -3.025 -34.725  1.00  0.00     0.024 A 
HETATM   10 CL   UNL     1      -4.886  -5.009 -34.450  1.00  0.00    -0.084 Cl
HETATM   11  C   UNL     1      -7.088  -1.689 -34.682  1.00  0.00     0.004 A 
HETATM   12  C   UNL     1      -6.179  -0.701 -34.288  1.00  0.00     0.029 A 
ENDBRANCH   4   6
ENDBRANCH   2   4
ENDBRANCH   1   2
BRANCH   1  13
HETATM   13  C   UNL     1      -5.363   2.054 -31.212  1.00  0.00     0.169 C 
BRANCH  13  14
HETATM   14  C   UNL     1      -6.782   1.837 -31.661  1.00  0.00     0.029 A 
HETATM   15  C   UNL     1      -7.423   0.532 -31.312  1.00  0.00     0.253 A 
HETATM   16  O   UNL     1      -6.896  -0.250 -30.526  1.00  0.00    -0.268 OA
HETATM   17  N   UNL     1      -8.631   0.242 -31.882  1.00  0.00    -0.322 N 
HETATM   18  C   UNL     1      -9.301   1.095 -32.766  1.00  0.00     0.048 A 
HETATM   19  H   UNL     1      -9.027  -0.663 -31.662  1.00  0.00     0.169 HD
HETATM   20  C   UNL     1      -8.719   2.341 -33.081  1.00  0.00    -0.006 A 
HETATM   21  C   UNL     1     -10.519   0.699 -33.322  1.00  0.00     0.070 A 
HETATM   22  C   UNL     1      -9.366   3.209 -33.968  1.00  0.00     0.053 A 
HETATM   23  C   UNL     1      -7.412   2.671 -32.510  1.00  0.00     0.028 A 
HETATM   24  C   UNL     1     -10.567   2.794 -34.507  1.00  0.00     0.106 A 
HETATM   25  C   UNL     1     -11.124   1.576 -34.196  1.00  0.00     0.107 A 
HETATM   26  O   UNL     1     -11.324   3.498 -35.392  1.00  0.00    -0.323 OA
HETATM   27  O   UNL     1     -12.300   1.362 -34.845  1.00  0.00    -0.323 OA
HETATM   28  C   UNL     1     -12.409   2.574 -35.623  1.00  0.00     0.352 A 
ENDBRANCH  13  14
ENDBRANCH   1  13
BRANCH   1  29
HETATM   29  C   UNL     1      -3.740   3.111 -32.812  1.00  0.00     0.153 C 
BRANCH  29  30
HETATM   30  C   UNL     1      -2.780   3.842 -31.855  1.00  0.00     0.254 C 
BRANCH  30  31
HETATM   31  N   UNL     1      -1.820   4.761 -32.586  1.00  0.00    -0.066 N 
HETATM   32  H   UNL     1      -0.876   4.359 -32.475  1.00  0.00     0.280 HD
HETATM   33  C   UNL     1      -2.068   4.850 -34.086  1.00  0.00     0.261 C 
HETATM   34  C   UNL     1      -1.047   5.809 -34.714  1.00  0.00     0.195 C 
HETATM   35  O   UNL     1      -1.117   7.104 -34.105  1.00  0.00    -0.388 OA
HETATM   36  C   UNL     1      -0.809   7.045 -32.709  1.00  0.00     0.195 C 
HETATM   37  C   UNL     1      -1.807   6.152 -31.968  1.00  0.00     0.261 C 
ENDBRANCH  30  31
ENDBRANCH  29  30
ENDBRANCH   1  29
TORSDOF 8
ENDMDL
MODEL 3
REMARK VINA RESULT:      -9.3      3.302      7.494
REMARK  8 active torsions:
REMARK  status: ('A' for Active; 'I' for Inactive)
REMARK    1  A    between atoms: C_6  and  N_7 
REMARK    2  A    between atoms: N_7  and  C_8 
REMARK    3  A    between atoms: C_8  and  N_9 
REMARK    4  A    between atoms: N_9  and  C_10 
REMARK    5  A    between atoms: N_9  and  C_25 
REMARK    6  A    between atoms: C_10  and  C_11 
REMARK    7  A    between atoms: C_25  and  C_26 
REMARK    8  A    between atoms: C_26  and  N_27 
ROOT
HETATM    1  N   UNL     1      -5.827   3.430 -31.363  1.00  0.00    -0.352 N 
ENDROOT
BRANCH   1   2
HETATM    2  C   UNL     1      -5.033   4.335 -30.692  1.00  0.00     0.174 C 
HETATM    3  S   UNL     1      -5.673   5.297 -29.477  1.00  0.00    -0.041 SA
BRANCH   2   4
HETATM    4  N   UNL     1      -3.680   4.284 -30.785  1.00  0.00    -0.333 N 
HETATM    5  H   UNL     1      -3.263   3.642 -30.113  1.00  0.00     0.168 HD
BRANCH   4   6
HETATM    6  C   UNL     1      -2.746   5.164 -31.371  1.00  0.00     0.035 A 
HETATM    7  C   UNL     1      -2.378   4.903 -32.696  1.00  0.00     0.053 A 
HETATM    8  C   UNL     1      -1.455   5.725 -33.345  1.00  0.00     0.036 A 
HETATM    9  C   UNL     1      -0.873   6.796 -32.676  1.00  0.00     0.024 A 
HETATM   10 CL   UNL     1      -1.046   5.411 -34.985  1.00  0.00    -0.084 Cl
HETATM   11  C   UNL     1      -1.207   7.038 -31.345  1.00  0.00     0.004 A 
HETATM   12  C   UNL     1      -2.134   6.219 -30.694  1.00  0.00     0.029 A 
ENDBRANCH   4   6
ENDBRANCH   2   4
ENDBRANCH   1   2
BRANCH   1  13
HETATM   13  C   UNL     1      -5.373   2.979 -32.699  1.00  0.00     0.169 C 
BRANCH  13  14
HETATM   14  C   UNL     1      -5.178   1.492 -32.804  1.00  0.00     0.029 A 
HETATM   15  C   UNL     1      -3.869   0.934 -32.346  1.00  0.00     0.253 A 
HETATM   16  O   UNL     1      -3.061   1.621 -31.727  1.00  0.00    -0.268 OA
HETATM   17  N   UNL     1      -3.602  -0.378 -32.621  1.00  0.00    -0.322 N 
HETATM   18  C   UNL     1      -4.484  -1.227 -33.300  1.00  0.00     0.048 A 
HETATM   19  H   UNL     1      -2.694  -0.724 -32.336  1.00  0.00     0.169 HD
HETATM   20  C   UNL     1      -5.734  -0.719 -33.713  1.00  0.00    -0.006 A 
HETATM   21  C   UNL     1      -4.112  -2.547 -33.562  1.00  0.00     0.070 A 
HETATM   22  C   UNL     1      -6.631  -1.547 -34.399  1.00  0.00     0.053 A 
HETATM   23  C   UNL     1      -6.039   0.690 -33.459  1.00  0.00     0.028 A 
HETATM   24  C   UNL     1      -6.239  -2.846 -34.649  1.00  0.00     0.106 A 
HETATM   25  C   UNL     1      -5.017  -3.329 -34.245  1.00  0.00     0.107 A 
HETATM   26  O   UNL     1      -6.972  -3.781 -35.312  1.00  0.00    -0.323 OA
HETATM   27  O   UNL     1      -4.829  -4.628 -34.603  1.00  0.00    -0.323 OA
HETATM   28  C   UNL     1      -6.062  -4.902 -35.303  1.00  0.00     0.352 A 
ENDBRANCH  13  14
ENDBRANCH   1  13
BRANCH   1  29
HETATM   29  C   UNL     1      -6.789   2.543 -30.671  1.00  0.00     0.153 C 
BRANCH  29  30
HETATM   30  C   UNL     1      -8.251   3.024 -30.645  1.00  0.00     0.254 C 
BRANCH  30  31
HETATM   31  N   UNL     1      -9.120   2.296 -31.654  1.00  0.00    -0.066 N 
HETATM   32  H   UNL     1     -10.101   2.451 -31.373  1.00  0.00     0.280 HD
HETATM   33  C   UNL     1      -8.999   2.830 -33.075  1.00  0.00     0.261 C 
HETATM   34  C   UNL     1      -9.911   2.016 -34.003  1.00  0.00     0.195 C 
HETATM   35  O   UNL     1      -9.586   0.622 -33.949  1.00  0.00    -0.388 OA
HETATM   36  C   UNL     1      -9.771   0.089 -32.634  1.00  0.00     0.195 C 
HETATM   37  C   UNL     1      -8.861   0.796 -31.627  1.00  0.00     0.261 C 
ENDBRANCH  30  31
ENDBRANCH  29  30
ENDBRANCH   1  29
TORSDOF 8
ENDMDL
MODEL 4
REMARK VINA RESULT:      -9.2      1.789      8.029
REMARK  8 active torsions:
REMARK  status: ('A' for Active; 'I' for Inactive)
REMARK    1  A    between atoms: C_6  and  N_7 
REMARK    2  A    between atoms: N_7  and  C_8 
REMARK    3  A    between atoms: C_8  and  N_9 
REMARK    4  A    between atoms: N_9  and  C_10 
REMARK    5  A    between atoms: N_9  and  C_25 
REMARK    6  A    between atoms: C_10  and  C_11 
REMARK    7  A    between atoms: C_25  and  C_26 
REMARK    8  A    between atoms: C_26  and  N_27 
ROOT
HETATM    1  N   UNL     1      -7.549   1.943 -33.295  1.00  0.00    -0.352 N 
ENDROOT
BRANCH   1   2
HETATM    2  C   UNL     1      -7.184   0.913 -32.456  1.00  0.00     0.174 C 
HETATM    3  S   UNL     1      -6.920   1.192 -30.823  1.00  0.00    -0.041 SA
BRANCH   2   4
HETATM    4  N   UNL     1      -7.300  -0.383 -32.845  1.00  0.00    -0.333 N 
HETATM    5  H   UNL     1      -8.096  -0.853 -32.417  1.00  0.00     0.168 HD
BRANCH   4   6
HETATM    6  C   UNL     1      -6.376  -1.272 -33.433  1.00  0.00     0.035 A 
HETATM    7  C   UNL     1      -6.906  -2.353 -34.147  1.00  0.00     0.053 A 
HETATM    8  C   UNL     1      -6.057  -3.279 -34.754  1.00  0.00     0.036 A 
HETATM    9  C   UNL     1      -4.677  -3.154 -34.637  1.00  0.00     0.024 A 
HETATM   10 CL   UNL     1      -6.728  -4.578 -35.659  1.00  0.00    -0.084 Cl
HETATM   11  C   UNL     1      -4.144  -2.101 -33.896  1.00  0.00     0.004 A 
HETATM   12  C   UNL     1      -4.992  -1.168 -33.290  1.00  0.00     0.029 A 
ENDBRANCH   4   6
ENDBRANCH   2   4
ENDBRANCH   1   2
BRANCH   1  13
HETATM   13  C   UNL     1      -6.510   2.491 -34.197  1.00  0.00     0.169 C 
BRANCH  13  14
HETATM   14  C   UNL     1      -5.643   3.541 -33.559  1.00  0.00     0.029 A 
HETATM   15  C   UNL     1      -6.069   4.967 -33.703  1.00  0.00     0.253 A 
HETATM   16  O   UNL     1      -7.175   5.264 -34.146  1.00  0.00    -0.268 OA
HETATM   17  N   UNL     1      -5.193   5.939 -33.306  1.00  0.00    -0.322 N 
HETATM   18  C   UNL     1      -3.928   5.675 -32.770  1.00  0.00     0.048 A 
HETATM   19  H   UNL     1      -5.487   6.897 -33.448  1.00  0.00     0.169 HD
HETATM   20  C   UNL     1      -3.525   4.334 -32.604  1.00  0.00    -0.006 A 
HETATM   21  C   UNL     1      -3.089   6.736 -32.420  1.00  0.00     0.070 A 
HETATM   22  C   UNL     1      -2.262   4.044 -32.076  1.00  0.00     0.053 A 
HETATM   23  C   UNL     1      -4.429   3.269 -33.044  1.00  0.00     0.028 A 
HETATM   24  C   UNL     1      -1.450   5.108 -31.740  1.00  0.00     0.106 A 
HETATM   25  C   UNL     1      -1.850   6.413 -31.910  1.00  0.00     0.107 A 
HETATM   26  O   UNL     1      -0.192   5.016 -31.231  1.00  0.00    -0.323 OA
HETATM   27  O   UNL     1      -0.895   7.303 -31.528  1.00  0.00    -0.323 OA
HETATM   28  C   UNL     1       0.166   6.411 -31.123  1.00  0.00     0.352 A 
ENDBRANCH  13  14
ENDBRANCH   1  13
BRANCH   1  29
HETATM   29  C   UNL     1      -8.952   2.189 -33.696  1.00  0.00     0.153 C 
BRANCH  29  30
HETATM   30  C   UNL     1     -10.014   1.973 -32.602  1.00  0.00     0.254 C 
BRANCH  30  31
HETATM   31  N   UNL     1     -11.425   1.954 -33.157  1.00  0.00    -0.066 N 
HETATM   32  H   UNL     1     -12.050   2.271 -32.399  1.00  0.00     0.280 HD
HETATM   33  C   UNL     1     -11.647   2.915 -34.317  1.00  0.00     0.261 C 
HETATM   34  C   UNL     1     -13.101   2.804 -34.798  1.00  0.00     0.195 C 
HETATM   35  O   UNL     1     -13.414   1.458 -35.180  1.00  0.00    -0.388 OA
HETATM   36  C   UNL     1     -13.284   0.556 -34.076  1.00  0.00     0.195 C 
HETATM   37  C   UNL     1     -11.848   0.545 -33.548  1.00  0.00     0.261 C 
ENDBRANCH  30  31
ENDBRANCH  29  30
ENDBRANCH   1  29
TORSDOF 8
ENDMDL
MODEL 5
REMARK VINA RESULT:      -9.1      3.120      5.544
REMARK  8 active torsions:
REMARK  status: ('A' for Active; 'I' for Inactive)
REMARK    1  A    between atoms: C_6  and  N_7 
REMARK    2  A    between atoms: N_7  and  C_8 
REMARK    3  A    between atoms: C_8  and  N_9 
REMARK    4  A    between atoms: N_9  and  C_10 
REMARK    5  A    between atoms: N_9  and  C_25 
REMARK    6  A    between atoms: C_10  and  C_11 
REMARK    7  A    between atoms: C_25  and  C_26 
REMARK    8  A    between atoms: C_26  and  N_27 
ROOT
HETATM    1  N   UNL     1      -6.105   4.034 -32.190  1.00  0.00    -0.352 N 
ENDROOT
BRANCH   1   2
HETATM    2  C   UNL     1      -7.139   3.540 -31.424  1.00  0.00     0.174 C 
HETATM    3  S   UNL     1      -6.956   3.334 -29.770  1.00  0.00    -0.041 SA
BRANCH   2   4
HETATM    4  N   UNL     1      -8.403   3.472 -31.914  1.00  0.00    -0.333 N 
HETATM    5  H   UNL     1      -8.964   4.287 -31.669  1.00  0.00     0.168 HD
BRANCH   4   6
HETATM    6  C   UNL     1      -9.170   2.386 -32.385  1.00  0.00     0.035 A 
HETATM    7  C   UNL     1     -10.120   2.665 -33.374  1.00  0.00     0.053 A 
HETATM    8  C   UNL     1     -10.922   1.645 -33.888  1.00  0.00     0.036 A 
HETATM    9  C   UNL     1     -10.804   0.345 -33.407  1.00  0.00     0.024 A 
HETATM   10 CL   UNL     1     -12.055   2.001 -35.131  1.00  0.00    -0.084 Cl
HETATM   11  C   UNL     1      -9.886   0.068 -32.395  1.00  0.00     0.004 A 
HETATM   12  C   UNL     1      -9.079   1.088 -31.881  1.00  0.00     0.029 A 
ENDBRANCH   4   6
ENDBRANCH   2   4
ENDBRANCH   1   2
BRANCH   1  13
HETATM   13  C   UNL     1      -5.832   3.368 -33.484  1.00  0.00     0.169 C 
BRANCH  13  14
HETATM   14  C   UNL     1      -5.545   1.896 -33.362  1.00  0.00     0.029 A 
HETATM   15  C   UNL     1      -4.247   1.497 -32.736  1.00  0.00     0.253 A 
HETATM   16  O   UNL     1      -3.532   2.317 -32.165  1.00  0.00    -0.268 OA
HETATM   17  N   UNL     1      -3.885   0.181 -32.801  1.00  0.00    -0.322 N 
HETATM   18  C   UNL     1      -4.659  -0.811 -33.412  1.00  0.00     0.048 A 
HETATM   19  H   UNL     1      -2.984  -0.059 -32.405  1.00  0.00     0.169 HD
HETATM   20  C   UNL     1      -5.898  -0.452 -33.982  1.00  0.00    -0.006 A 
HETATM   21  C   UNL     1      -4.192  -2.126 -33.455  1.00  0.00     0.070 A 
HETATM   22  C   UNL     1      -6.689  -1.425 -34.605  1.00  0.00     0.053 A 
HETATM   23  C   UNL     1      -6.304   0.955 -33.954  1.00  0.00     0.028 A 
HETATM   24  C   UNL     1      -6.205  -2.716 -34.638  1.00  0.00     0.106 A 
HETATM   25  C   UNL     1      -4.993  -3.055 -34.083  1.00  0.00     0.107 A 
HETATM   26  O   UNL     1      -6.827  -3.782 -35.211  1.00  0.00    -0.323 OA
HETATM   27  O   UNL     1      -4.703  -4.376 -34.237  1.00  0.00    -0.323 OA
HETATM   28  C   UNL     1      -5.858  -4.827 -34.977  1.00  0.00     0.352 A 
ENDBRANCH  13  14
ENDBRANCH   1  13
BRANCH   1  29
HETATM   29  C   UNL     1      -5.601   5.419 -32.054  1.00  0.00     0.153 C 
BRANCH  29  30
HETATM   30  C   UNL     1      -4.325   5.592 -31.208  1.00  0.00     0.254 C 
BRANCH  30  31
HETATM   31  N   UNL     1      -3.136   6.037 -32.037  1.00  0.00    -0.066 N 
HETATM   32  H   UNL     1      -2.382   5.352 -31.873  1.00  0.00     0.280 HD
HETATM   33  C   UNL     1      -3.390   6.034 -33.539  1.00  0.00     0.261 C 
HETATM   34  C   UNL     1      -2.126   6.506 -34.270  1.00  0.00     0.195 C 
HETATM   35  O   UNL     1      -1.730   7.807 -33.821  1.00  0.00    -0.388 OA
HETATM   36  C   UNL     1      -1.411   7.807 -32.425  1.00  0.00     0.195 C 
HETATM   37  C   UNL     1      -2.628   7.401 -31.590  1.00  0.00     0.261 C 
ENDBRANCH  30  31
ENDBRANCH  29  30
ENDBRANCH   1  29
TORSDOF 8
ENDMDL
MODEL 6
REMARK VINA RESULT:      -8.7      1.963      7.492
REMARK  8 active torsions:
REMARK  status: ('A' for Active; 'I' for Inactive)
REMARK    1  A    between atoms: C_6  and  N_7 
REMARK    2  A    between atoms: N_7  and  C_8 
REMARK    3  A    between atoms: C_8  and  N_9 
REMARK    4  A    between atoms: N_9  and  C_10 
REMARK    5  A    between atoms: N_9  and  C_25 
REMARK    6  A    between atoms: C_10  and  C_11 
REMARK    7  A    between atoms: C_25  and  C_26 
REMARK    8  A    between atoms: C_26  and  N_27 
ROOT
HETATM    1  N   UNL     1      -7.178   0.612 -32.117  1.00  0.00    -0.352 N 
ENDROOT
BRANCH   1   2
HETATM    2  C   UNL     1      -6.612   0.375 -33.351  1.00  0.00     0.174 C 
HETATM    3  S   UNL     1      -6.825   1.461 -34.611  1.00  0.00    -0.041 SA
BRANCH   2   4
HETATM    4  N   UNL     1      -5.652  -0.570 -33.513  1.00  0.00    -0.333 N 
HETATM    5  H   UNL     1      -4.715  -0.174 -33.570  1.00  0.00     0.168 HD
BRANCH   4   6
HETATM    6  C   UNL     1      -5.720  -1.912 -33.944  1.00  0.00     0.035 A 
HETATM    7  C   UNL     1      -4.555  -2.677 -33.812  1.00  0.00     0.053 A 
HETATM    8  C   UNL     1      -4.540  -4.012 -34.220  1.00  0.00     0.036 A 
HETATM    9  C   UNL     1      -5.673  -4.589 -34.784  1.00  0.00     0.024 A 
HETATM   10 CL   UNL     1      -3.111  -4.945 -34.014  1.00  0.00    -0.084 Cl
HETATM   11  C   UNL     1      -6.823  -3.822 -34.953  1.00  0.00     0.004 A 
HETATM   12  C   UNL     1      -6.843  -2.485 -34.541  1.00  0.00     0.029 A 
ENDBRANCH   4   6
ENDBRANCH   2   4
ENDBRANCH   1   2
BRANCH   1  13
HETATM   13  C   UNL     1      -6.261   0.826 -30.974  1.00  0.00     0.169 C 
BRANCH  13  14
HETATM   14  C   UNL     1      -5.516   2.132 -31.028  1.00  0.00     0.029 A 
HETATM   15  C   UNL     1      -6.152   3.316 -30.375  1.00  0.00     0.253 A 
HETATM   16  O   UNL     1      -7.139   3.197 -29.654  1.00  0.00    -0.268 OA
HETATM   17  N   UNL     1      -5.588   4.543 -30.589  1.00  0.00    -0.322 N 
HETATM   18  C   UNL     1      -4.451   4.751 -31.377  1.00  0.00     0.048 A 
HETATM   19  H   UNL     1      -6.059   5.335 -30.168  1.00  0.00     0.169 HD
HETATM   20  C   UNL     1      -3.826   3.638 -31.976  1.00  0.00    -0.006 A 
HETATM   21  C   UNL     1      -3.965   6.047 -31.562  1.00  0.00     0.070 A 
HETATM   22  C   UNL     1      -2.691   3.821 -32.774  1.00  0.00     0.053 A 
HETATM   23  C   UNL     1      -4.420   2.313 -31.790  1.00  0.00     0.028 A 
HETATM   24  C   UNL     1      -2.230   5.111 -32.945  1.00  0.00     0.106 A 
HETATM   25  C   UNL     1      -2.850   6.189 -32.359  1.00  0.00     0.107 A 
HETATM   26  O   UNL     1      -1.155   5.476 -33.694  1.00  0.00    -0.323 OA
HETATM   27  O   UNL     1      -2.242   7.367 -32.667  1.00  0.00    -0.323 OA
HETATM   28  C   UNL     1      -1.183   6.911 -33.536  1.00  0.00     0.352 A 
ENDBRANCH  13  14
ENDBRANCH   1  13
BRANCH   1  29
HETATM   29  C   UNL     1      -8.552   1.139 -31.955  1.00  0.00     0.153 C 
BRANCH  29  30
HETATM   30  C   UNL     1      -9.681   0.267 -32.537  1.00  0.00     0.254 C 
BRANCH  30  31
HETATM   31  N   UNL     1     -10.459   0.978 -33.627  1.00  0.00    -0.066 N 
HETATM   32  H   UNL     1     -10.069   0.663 -34.529  1.00  0.00     0.280 HD
HETATM   33  C   UNL     1     -11.941   0.624 -33.662  1.00  0.00     0.261 C 
HETATM   34  C   UNL     1     -12.623   1.403 -34.794  1.00  0.00     0.195 C 
HETATM   35  O   UNL     1     -12.437   2.815 -34.630  1.00  0.00    -0.388 OA
HETATM   36  C   UNL     1     -11.052   3.171 -34.674  1.00  0.00     0.195 C 
HETATM   37  C   UNL     1     -10.278   2.487 -33.544  1.00  0.00     0.261 C 
ENDBRANCH  30  31
ENDBRANCH  29  30
ENDBRANCH   1  29
TORSDOF 8
ENDMDL
MODEL 7
REMARK VINA RESULT:      -8.7      3.892      8.650
REMARK  8 active torsions:
REMARK  status: ('A' for Active; 'I' for Inactive)
REMARK    1  A    between atoms: C_6  and  N_7 
REMARK    2  A    between atoms: N_7  and  C_8 
REMARK    3  A    between atoms: C_8  and  N_9 
REMARK    4  A    between atoms: N_9  and  C_10 
REMARK    5  A    between atoms: N_9  and  C_25 
REMARK    6  A    between atoms: C_10  and  C_11 
REMARK    7  A    between atoms: C_25  and  C_26 
REMARK    8  A    between atoms: C_26  and  N_27 
ROOT
HETATM    1  N   UNL     1      -6.527   0.615 -33.078  1.00  0.00    -0.352 N 
ENDROOT
BRANCH   1   2
HETATM    2  C   UNL     1      -7.766   1.202 -32.947  1.00  0.00     0.174 C 
HETATM    3  S   UNL     1      -8.881   0.607 -31.844  1.00  0.00    -0.041 SA
BRANCH   2   4
HETATM    4  N   UNL     1      -8.025   2.422 -33.482  1.00  0.00    -0.333 N 
HETATM    5  H   UNL     1      -8.493   2.365 -34.385  1.00  0.00     0.168 HD
BRANCH   4   6
HETATM    6  C   UNL     1      -7.490   3.699 -33.209  1.00  0.00     0.035 A 
HETATM    7  C   UNL     1      -8.063   4.410 -32.149  1.00  0.00     0.053 A 
HETATM    8  C   UNL     1      -7.593   5.682 -31.819  1.00  0.00     0.036 A 
HETATM    9  C   UNL     1      -6.567   6.267 -32.554  1.00  0.00     0.024 A 
HETATM   10 CL   UNL     1      -8.285   6.524 -30.489  1.00  0.00    -0.084 Cl
HETATM   11  C   UNL     1      -6.018   5.579 -33.634  1.00  0.00     0.004 A 
HETATM   12  C   UNL     1      -6.484   4.303 -33.964  1.00  0.00     0.029 A 
ENDBRANCH   4   6
ENDBRANCH   2   4
ENDBRANCH   1   2
BRANCH   1  13
HETATM   13  C   UNL     1      -5.685   0.515 -31.864  1.00  0.00     0.169 C 
BRANCH  13  14
HETATM   14  C   UNL     1      -4.906   1.765 -31.558  1.00  0.00     0.029 A 
HETATM   15  C   UNL     1      -5.371   2.602 -30.410  1.00  0.00     0.253 A 
HETATM   16  O   UNL     1      -6.223   2.196 -29.625  1.00  0.00    -0.268 OA
HETATM   17  N   UNL     1      -4.801   3.834 -30.247  1.00  0.00    -0.322 N 
HETATM   18  C   UNL     1      -3.809   4.351 -31.087  1.00  0.00     0.048 A 
HETATM   19  H   UNL     1      -5.159   4.399 -29.487  1.00  0.00     0.169 HD
HETATM   20  C   UNL     1      -3.343   3.559 -32.157  1.00  0.00    -0.006 A 
HETATM   21  C   UNL     1      -3.308   5.634 -30.858  1.00  0.00     0.070 A 
HETATM   22  C   UNL     1      -2.356   4.057 -33.016  1.00  0.00     0.053 A 
HETATM   23  C   UNL     1      -3.952   2.246 -32.377  1.00  0.00     0.028 A 
HETATM   24  C   UNL     1      -1.878   5.328 -32.772  1.00  0.00     0.106 A 
HETATM   25  C   UNL     1      -2.342   6.093 -31.728  1.00  0.00     0.107 A 
HETATM   26  O   UNL     1      -0.934   5.974 -33.507  1.00  0.00    -0.323 OA
HETATM   27  O   UNL     1      -1.747   7.316 -31.676  1.00  0.00    -0.323 OA
HETATM   28  C   UNL     1      -0.873   7.245 -32.824  1.00  0.00     0.352 A 
ENDBRANCH  13  14
ENDBRANCH   1  13
BRANCH   1  29
HETATM   29  C   UNL     1      -6.198  -0.323 -34.176  1.00  0.00     0.153 C 
BRANCH  29  30
HETATM   30  C   UNL     1      -4.959  -1.211 -33.955  1.00  0.00     0.254 C 
BRANCH  30  31
HETATM   31  N   UNL     1      -5.297  -2.689 -33.953  1.00  0.00    -0.066 N 
HETATM   32  H   UNL     1      -5.667  -2.912 -33.016  1.00  0.00     0.280 HD
HETATM   33  C   UNL     1      -6.390  -3.076 -34.941  1.00  0.00     0.261 C 
HETATM   34  C   UNL     1      -6.640  -4.588 -34.857  1.00  0.00     0.195 C 
HETATM   35  O   UNL     1      -5.437  -5.322 -35.111  1.00  0.00    -0.388 OA
HETATM   36  C   UNL     1      -4.426  -5.026 -34.141  1.00  0.00     0.195 C 
HETATM   37  C   UNL     1      -4.056  -3.541 -34.177  1.00  0.00     0.261 C 
ENDBRANCH  30  31
ENDBRANCH  29  30
ENDBRANCH   1  29
TORSDOF 8
ENDMDL
MODEL 8
REMARK VINA RESULT:      -8.7      3.055      5.743
REMARK  8 active torsions:
REMARK  status: ('A' for Active; 'I' for Inactive)
REMARK    1  A    between atoms: C_6  and  N_7 
REMARK    2  A    between atoms: N_7  and  C_8 
REMARK    3  A    between atoms: C_8  and  N_9 
REMARK    4  A    between atoms: N_9  and  C_10 
REMARK    5  A    between atoms: N_9  and  C_25 
REMARK    6  A    between atoms: C_10  and  C_11 
REMARK    7  A    between atoms: C_25  and  C_26 
REMARK    8  A    between atoms: C_26  and  N_27 
ROOT
HETATM    1  N   UNL     1      -7.299   4.463 -32.644  1.00  0.00    -0.352 N 
ENDROOT
BRANCH   1   2
HETATM    2  C   UNL     1      -8.643   4.336 -32.921  1.00  0.00     0.174 C 
HETATM    3  S   UNL     1      -9.789   5.087 -31.954  1.00  0.00    -0.041 SA
BRANCH   2   4
HETATM    4  N   UNL     1      -9.070   3.852 -34.115  1.00  0.00    -0.333 N 
HETATM    5  H   UNL     1      -8.506   4.181 -34.897  1.00  0.00     0.168 HD
BRANCH   4   6
HETATM    6  C   UNL     1     -10.297   3.281 -34.511  1.00  0.00     0.035 A 
HETATM    7  C   UNL     1     -10.646   2.060 -33.922  1.00  0.00     0.053 A 
HETATM    8  C   UNL     1     -11.842   1.429 -34.265  1.00  0.00     0.036 A 
HETATM    9  C   UNL     1     -12.690   1.993 -35.213  1.00  0.00     0.024 A 
HETATM   10 CL   UNL     1     -12.270  -0.051 -33.502  1.00  0.00    -0.084 Cl
HETATM   11  C   UNL     1     -12.331   3.189 -35.830  1.00  0.00     0.004 A 
HETATM   12  C   UNL     1     -11.134   3.826 -35.485  1.00  0.00     0.029 A 
ENDBRANCH   4   6
ENDBRANCH   2   4
ENDBRANCH   1   2
BRANCH   1  13
HETATM   13  C   UNL     1      -6.757   3.681 -31.508  1.00  0.00     0.169 C 
BRANCH  13  14
HETATM   14  C   UNL     1      -6.168   2.356 -31.907  1.00  0.00     0.029 A 
HETATM   15  C   UNL     1      -4.678   2.239 -31.912  1.00  0.00     0.253 A 
HETATM   16  O   UNL     1      -3.964   3.112 -31.425  1.00  0.00    -0.268 OA
HETATM   17  N   UNL     1      -4.128   1.115 -32.462  1.00  0.00    -0.322 N 
HETATM   18  C   UNL     1      -4.878   0.069 -33.013  1.00  0.00     0.048 A 
HETATM   19  H   UNL     1      -3.116   1.074 -32.490  1.00  0.00     0.169 HD
HETATM   20  C   UNL     1      -6.285   0.157 -32.989  1.00  0.00    -0.006 A 
HETATM   21  C   UNL     1      -4.226  -1.027 -33.579  1.00  0.00     0.070 A 
HETATM   22  C   UNL     1      -7.058  -0.873 -33.539  1.00  0.00     0.053 A 
HETATM   23  C   UNL     1      -6.906   1.360 -32.432  1.00  0.00     0.028 A 
HETATM   24  C   UNL     1      -6.391  -1.945 -34.096  1.00  0.00     0.106 A 
HETATM   25  C   UNL     1      -5.018  -2.018 -34.118  1.00  0.00     0.107 A 
HETATM   26  O   UNL     1      -6.976  -3.022 -34.686  1.00  0.00    -0.323 OA
HETATM   27  O   UNL     1      -4.568  -3.150 -34.723  1.00  0.00    -0.323 OA
HETATM   28  C   UNL     1      -5.814  -3.771 -35.106  1.00  0.00     0.352 A 
ENDBRANCH  13  14
ENDBRANCH   1  13
BRANCH   1  29
HETATM   29  C   UNL     1      -6.313   4.907 -33.655  1.00  0.00     0.153 C 
BRANCH  29  30
HETATM   30  C   UNL     1      -5.296   5.964 -33.185  1.00  0.00     0.254 C 
BRANCH  30  31
HETATM   31  N   UNL     1      -3.860   5.523 -33.395  1.00  0.00    -0.066 N 
HETATM   32  H   UNL     1      -3.779   4.569 -33.010  1.00  0.00     0.280 HD
HETATM   33  C   UNL     1      -3.451   5.423 -34.859  1.00  0.00     0.261 C 
HETATM   34  C   UNL     1      -1.985   4.979 -34.948  1.00  0.00     0.195 C 
HETATM   35  O   UNL     1      -1.130   5.883 -34.237  1.00  0.00    -0.388 OA
HETATM   36  C   UNL     1      -1.454   5.927 -32.843  1.00  0.00     0.195 C 
HETATM   37  C   UNL     1      -2.890   6.415 -32.634  1.00  0.00     0.261 C 
ENDBRANCH  30  31
ENDBRANCH  29  30
ENDBRANCH   1  29
TORSDOF 8
ENDMDL
MODEL 9
REMARK VINA RESULT:      -8.4      1.954      7.954
REMARK  8 active torsions:
REMARK  status: ('A' for Active; 'I' for Inactive)
REMARK    1  A    between atoms: C_6  and  N_7 
REMARK    2  A    between atoms: N_7  and  C_8 
REMARK    3  A    between atoms: C_8  and  N_9 
REMARK    4  A    between atoms: N_9  and  C_10 
REMARK    5  A    between atoms: N_9  and  C_25 
REMARK    6  A    between atoms: C_10  and  C_11 
REMARK    7  A    between atoms: C_25  and  C_26 
REMARK    8  A    between atoms: C_26  and  N_27 
ROOT
HETATM    1  N   UNL     1      -8.704   2.510 -32.832  1.00  0.00    -0.352 N 
ENDROOT
BRANCH   1   2
HETATM    2  C   UNL     1      -8.572   1.174 -33.144  1.00  0.00     0.174 C 
HETATM    3  S   UNL     1      -9.717   0.060 -32.635  1.00  0.00    -0.041 SA
BRANCH   2   4
HETATM    4  N   UNL     1      -7.690   0.759 -34.089  1.00  0.00    -0.333 N 
HETATM    5  H   UNL     1      -7.978   1.011 -35.033  1.00  0.00     0.168 HD
BRANCH   4   6
HETATM    6  C   UNL     1      -6.668  -0.213 -34.056  1.00  0.00     0.035 A 
HETATM    7  C   UNL     1      -6.986  -1.482 -34.554  1.00  0.00     0.053 A 
HETATM    8  C   UNL     1      -6.031  -2.499 -34.551  1.00  0.00     0.036 A 
HETATM    9  C   UNL     1      -4.760  -2.272 -34.032  1.00  0.00     0.024 A 
HETATM   10 CL   UNL     1      -6.429  -4.039 -35.203  1.00  0.00    -0.084 Cl
HETATM   11  C   UNL     1      -4.450  -1.022 -33.500  1.00  0.00     0.004 A 
HETATM   12  C   UNL     1      -5.404   0.000 -33.505  1.00  0.00     0.029 A 
ENDBRANCH   4   6
ENDBRANCH   2   4
ENDBRANCH   1   2
BRANCH   1  13
HETATM   13  C   UNL     1      -8.046   2.992 -31.596  1.00  0.00     0.169 C 
BRANCH  13  14
HETATM   14  C   UNL     1      -6.579   3.279 -31.761  1.00  0.00     0.029 A 
HETATM   15  C   UNL     1      -5.636   2.614 -30.810  1.00  0.00     0.253 A 
HETATM   16  O   UNL     1      -6.012   1.720 -30.056  1.00  0.00    -0.268 OA
HETATM   17  N   UNL     1      -4.330   3.018 -30.817  1.00  0.00    -0.322 N 
HETATM   18  C   UNL     1      -3.827   4.011 -31.665  1.00  0.00     0.048 A 
HETATM   19  H   UNL     1      -3.719   2.581 -30.138  1.00  0.00     0.169 HD
HETATM   20  C   UNL     1      -4.701   4.627 -32.585  1.00  0.00    -0.006 A 
HETATM   21  C   UNL     1      -2.483   4.378 -31.579  1.00  0.00     0.070 A 
HETATM   22  C   UNL     1      -4.223   5.627 -33.439  1.00  0.00     0.053 A 
HETATM   23  C   UNL     1      -6.112   4.237 -32.584  1.00  0.00     0.028 A 
HETATM   24  C   UNL     1      -2.892   5.976 -33.334  1.00  0.00     0.106 A 
HETATM   25  C   UNL     1      -2.049   5.372 -32.430  1.00  0.00     0.107 A 
HETATM   26  O   UNL     1      -2.262   6.931 -34.069  1.00  0.00    -0.323 OA
HETATM   27  O   UNL     1      -0.785   5.872 -32.484  1.00  0.00    -0.323 OA
HETATM   28  C   UNL     1      -0.932   6.880 -33.508  1.00  0.00     0.352 A 
ENDBRANCH  13  14
ENDBRANCH   1  13
BRANCH   1  29
HETATM   29  C   UNL     1      -9.014   3.541 -33.848  1.00  0.00     0.153 C 
BRANCH  29  30
HETATM   30  C   UNL     1     -10.441   4.117 -33.810  1.00  0.00     0.254 C 
BRANCH  30  31
HETATM   31  N   UNL     1     -11.499   3.039 -33.668  1.00  0.00    -0.066 N 
HETATM   32  H   UNL     1     -11.114   2.323 -33.033  1.00  0.00     0.280 HD
HETATM   33  C   UNL     1     -12.793   3.522 -33.025  1.00  0.00     0.261 C 
HETATM   34  C   UNL     1     -13.785   2.354 -32.941  1.00  0.00     0.195 C 
HETATM   35  O   UNL     1     -14.033   1.796 -34.237  1.00  0.00    -0.388 OA
HETATM   36  C   UNL     1     -12.837   1.268 -34.820  1.00  0.00     0.195 C 
HETATM   37  C   UNL     1     -11.789   2.368 -35.003  1.00  0.00     0.261 C 
ENDBRANCH  30  31
ENDBRANCH  29  30
ENDBRANCH   1  29
TORSDOF 8
ENDMDL
MODEL 10
REMARK VINA RESULT:      -8.2      3.576      7.608
REMARK  8 active torsions:
REMARK  status: ('A' for Active; 'I' for Inactive)
REMARK    1  A    between atoms: C_6  and  N_7 
REMARK    2  A    between atoms: N_7  and  C_8 
REMARK    3  A    between atoms: C_8  and  N_9 
REMARK    4  A    between atoms: N_9  and  C_10 
REMARK    5  A    between atoms: N_9  and  C_25 
REMARK    6  A    between atoms: C_10  and  C_11 
REMARK    7  A    between atoms: C_25  and  C_26 
REMARK    8  A    between atoms: C_26  and  N_27 
ROOT
HETATM    1  N   UNL     1      -6.054   3.780 -33.519  1.00  0.00    -0.352 N 
ENDROOT
BRANCH   1   2
HETATM    2  C   UNL     1      -4.719   4.119 -33.504  1.00  0.00     0.174 C 
HETATM    3  S   UNL     1      -4.066   5.078 -34.714  1.00  0.00    -0.041 SA
BRANCH   2   4
HETATM    4  N   UNL     1      -3.962   3.936 -32.392  1.00  0.00    -0.333 N 
HETATM    5  H   UNL     1      -4.198   3.081 -31.890  1.00  0.00     0.168 HD
BRANCH   4   6
HETATM    6  C   UNL     1      -3.177   4.830 -31.634  1.00  0.00     0.035 A 
HETATM    7  C   UNL     1      -1.794   4.610 -31.631  1.00  0.00     0.053 A 
HETATM    8  C   UNL     1      -0.950   5.449 -30.901  1.00  0.00     0.036 A 
HETATM    9  C   UNL     1      -1.474   6.496 -30.149  1.00  0.00     0.024 A 
HETATM   10 CL   UNL     1       0.748   5.186 -30.941  1.00  0.00    -0.084 Cl
HETATM   11  C   UNL     1      -2.853   6.696 -30.118  1.00  0.00     0.004 A 
HETATM   12  C   UNL     1      -3.700   5.860 -30.852  1.00  0.00     0.029 A 
ENDBRANCH   4   6
ENDBRANCH   2   4
ENDBRANCH   1   2
BRANCH   1  13
HETATM   13  C   UNL     1      -6.485   2.654 -32.658  1.00  0.00     0.169 C 
BRANCH  13  14
HETATM   14  C   UNL     1      -6.416   1.312 -33.333  1.00  0.00     0.029 A 
HETATM   15  C   UNL     1      -7.626   0.854 -34.082  1.00  0.00     0.253 A 
HETATM   16  O   UNL     1      -8.564   1.613 -34.309  1.00  0.00    -0.268 OA
HETATM   17  N   UNL     1      -7.651  -0.438 -34.526  1.00  0.00    -0.322 N 
HETATM   18  C   UNL     1      -6.610  -1.352 -34.326  1.00  0.00     0.048 A 
HETATM   19  H   UNL     1      -8.497  -0.737 -34.996  1.00  0.00     0.169 HD
HETATM   20  C   UNL     1      -5.451  -0.923 -33.645  1.00  0.00    -0.006 A 
HETATM   21  C   UNL     1      -6.739  -2.662 -34.792  1.00  0.00     0.070 A 
HETATM   22  C   UNL     1      -4.399  -1.820 -33.427  1.00  0.00     0.053 A 
HETATM   23  C   UNL     1      -5.404   0.447 -33.132  1.00  0.00     0.028 A 
HETATM   24  C   UNL     1      -4.550  -3.110 -33.893  1.00  0.00     0.106 A 
HETATM   25  C   UNL     1      -5.686  -3.518 -34.553  1.00  0.00     0.107 A 
HETATM   26  O   UNL     1      -3.642  -4.113 -33.759  1.00  0.00    -0.323 OA
HETATM   27  O   UNL     1      -5.633  -4.828 -34.915  1.00  0.00    -0.323 OA
HETATM   28  C   UNL     1      -4.344  -5.208 -34.386  1.00  0.00     0.352 A 
ENDBRANCH  13  14
ENDBRANCH   1  13
BRANCH   1  29
HETATM   29  C   UNL     1      -7.115   4.730 -33.924  1.00  0.00     0.153 C 
BRANCH  29  30
HETATM   30  C   UNL     1      -8.331   4.824 -32.983  1.00  0.00     0.254 C 
BRANCH  30  31
HETATM   31  N   UNL     1      -9.565   4.158 -33.560  1.00  0.00    -0.066 N 
HETATM   32  H   UNL     1      -9.294   3.197 -33.821  1.00  0.00     0.280 HD
HETATM   33  C   UNL     1     -10.714   4.018 -32.571  1.00  0.00     0.261 C 
HETATM   34  C   UNL     1     -11.904   3.341 -33.265  1.00  0.00     0.195 C 
HETATM   35  O   UNL     1     -12.312   4.081 -34.422  1.00  0.00    -0.388 OA
HETATM   36  C   UNL     1     -11.265   4.153 -35.395  1.00  0.00     0.195 C 
HETATM   37  C   UNL     1     -10.037   4.866 -34.823  1.00  0.00     0.261 C 
ENDBRANCH  30  31
ENDBRANCH  29  30
ENDBRANCH   1  29
TORSDOF 8
ENDMDL
