MODEL 1
REMARK VINA RESULT:      -8.9      0.000      0.000
REMARK  5 active torsions:
REMARK  status: ('A' for Active; 'I' for Inactive)
REMARK    1  A    between atoms: C_2  and  C_3 
REMARK    2  A    between atoms: C_3  and  C_4 
REMARK    3  A    between atoms: C_8  and  N_9 
REMARK       I    between atoms: N_9  and  C_10 
REMARK    4  A    between atoms: C_10  and  C_11 
REMARK    5  A    between atoms: N_13  and  C_14 
ROOT
HETATM    1  C   UNL     1      -1.204   5.290 -33.249  1.00  0.00     0.106 C 
HETATM    2  C   UNL     1      -0.807   5.316 -31.790  1.00  0.00     0.148 C 
HETATM    3  N   UNL     1      -1.300   6.583 -31.316  1.00  0.00    -0.299 N 
HETATM    4  C   UNL     1      -1.496   7.483 -32.377  1.00  0.00     0.226 C 
HETATM    5  O   UNL     1      -1.854   8.650 -32.361  1.00  0.00    -0.273 OA
HETATM    6  C   UNL     1      -1.199   6.752 -33.664  1.00  0.00     0.119 C 
ENDROOT
BRANCH   1   7
HETATM    7  C   UNL     1      -2.557   4.617 -33.471  1.00  0.00     0.242 C 
HETATM    8  N   UNL     1      -2.856   3.600 -32.582  1.00  0.00    -0.156 N 
HETATM    9  H   UNL     1      -2.188   3.316 -31.876  1.00  0.00     0.187 HD
HETATM   10  O   UNL     1      -3.261   5.004 -34.401  1.00  0.00    -0.272 OA
BRANCH   8  11
HETATM   11  C   UNL     1      -4.053   2.927 -32.625  1.00  0.00     0.725 A 
HETATM   12  N   UNL     1      -5.256   3.580 -32.560  1.00  0.00    -0.106 N 
HETATM   13  N   UNL     1      -6.291   2.725 -32.611  1.00  0.00    -0.144 NA
HETATM   14  H   UNL     1      -5.439   4.573 -32.484  1.00  0.00     0.208 HD
HETATM   15  C   UNL     1      -5.653   1.553 -32.722  1.00  0.00     0.166 A 
HETATM   16  N   UNL     1      -4.288   1.643 -32.734  1.00  0.00    -0.046 NA
BRANCH  15  17
HETATM   17  C   UNL     1      -6.361   0.250 -32.837  1.00  0.00     0.087 C 
BRANCH  17  18
HETATM   18  C   UNL     1      -6.265  -0.378 -34.240  1.00  0.00    -0.016 C 
HETATM   19  C   UNL     1      -7.102   0.387 -35.269  1.00  0.00     0.010 C 
HETATM   20  C   UNL     1      -6.721  -1.837 -34.188  1.00  0.00     0.010 C 
ENDBRANCH  17  18
ENDBRANCH  15  17
ENDBRANCH   8  11
ENDBRANCH   1   7
BRANCH   3  21
HETATM   21  C   UNL     1      -1.513   6.924 -29.982  1.00  0.00     0.165 A 
HETATM   22  N   UNL     1      -2.699   6.754 -29.390  1.00  0.00    -0.155 NA
HETATM   23  N   UNL     1      -2.532   7.198 -28.141  1.00  0.00    -0.275 N 
HETATM   24  H   UNL     1      -3.336   7.197 -27.522  1.00  0.00     0.189 HD
HETATM   25  C   UNL     1      -1.258   7.592 -27.854  1.00  0.00     0.065 A 
HETATM   26  C   UNL     1      -0.550   7.429 -29.043  1.00  0.00     0.040 A 
HETATM   27  C   UNL     1      -0.690   8.081 -26.671  1.00  0.00     0.051 A 
HETATM   28  C   UNL     1       0.816   7.792 -29.052  1.00  0.00     0.019 A 
HETATM   29  C   UNL     1       1.411   8.281 -27.879  1.00  0.00     0.020 A 
HETATM   30  C   UNL     1       0.664   8.419 -26.713  1.00  0.00     0.013 A 
HETATM   31 BR   UNL     1       1.496   9.087 -25.149  1.00  0.00    -0.051 Br
ENDBRANCH   3  21
TORSDOF 5
ENDMDL
MODEL 2
REMARK VINA RESULT:      -8.8      6.500      9.080
REMARK  5 active torsions:
REMARK  status: ('A' for Active; 'I' for Inactive)
REMARK    1  A    between atoms: C_2  and  C_3 
REMARK    2  A    between atoms: C_3  and  C_4 
REMARK    3  A    between atoms: C_8  and  N_9 
REMARK       I    between atoms: N_9  and  C_10 
REMARK    4  A    between atoms: C_10  and  C_11 
REMARK    5  A    between atoms: N_13  and  C_14 
ROOT
HETATM    1  C   UNL     1      -6.370   3.981 -32.332  1.00  0.00     0.106 C 
HETATM    2  C   UNL     1      -5.246   3.174 -32.942  1.00  0.00     0.148 C 
HETATM    3  N   UNL     1      -5.324   1.903 -32.271  1.00  0.00    -0.299 N 
HETATM    4  C   UNL     1      -6.007   2.013 -31.048  1.00  0.00     0.226 C 
HETATM    5  O   UNL     1      -6.227   1.171 -30.192  1.00  0.00    -0.273 OA
HETATM    6  C   UNL     1      -6.501   3.435 -30.921  1.00  0.00     0.119 C 
ENDROOT
BRANCH   1   7
HETATM    7  C   UNL     1      -7.666   3.867 -33.133  1.00  0.00     0.242 C 
HETATM    8  N   UNL     1      -8.543   2.893 -32.689  1.00  0.00    -0.156 N 
HETATM    9  H   UNL     1      -8.296   2.287 -31.916  1.00  0.00     0.187 HD
HETATM   10  O   UNL     1      -7.832   4.615 -34.094  1.00  0.00    -0.272 OA
BRANCH   8  11
HETATM   11  C   UNL     1      -9.768   2.696 -33.279  1.00  0.00     0.725 A 
HETATM   12  N   UNL     1      -9.924   2.676 -34.641  1.00  0.00    -0.106 N 
HETATM   13  N   UNL     1     -11.205   2.477 -34.992  1.00  0.00    -0.144 NA
HETATM   14  H   UNL     1      -9.224   2.786 -35.363  1.00  0.00     0.208 HD
HETATM   15  C   UNL     1     -11.789   2.368 -33.793  1.00  0.00     0.166 A 
HETATM   16  N   UNL     1     -10.939   2.496 -32.728  1.00  0.00    -0.046 NA
BRANCH  15  17
HETATM   17  C   UNL     1     -13.245   2.114 -33.617  1.00  0.00     0.087 C 
BRANCH  17  18
HETATM   18  C   UNL     1     -13.731   0.829 -34.311  1.00  0.00    -0.016 C 
HETATM   19  C   UNL     1     -15.256   0.697 -34.271  1.00  0.00     0.010 C 
HETATM   20  C   UNL     1     -13.091  -0.393 -33.649  1.00  0.00     0.010 C 
ENDBRANCH  17  18
ENDBRANCH  15  17
ENDBRANCH   8  11
ENDBRANCH   1   7
BRANCH   3  21
HETATM   21  C   UNL     1      -4.760   0.711 -32.720  1.00  0.00     0.165 A 
HETATM   22  N   UNL     1      -3.458   0.445 -32.571  1.00  0.00    -0.155 NA
HETATM   23  N   UNL     1      -3.283  -0.758 -33.126  1.00  0.00    -0.275 N 
HETATM   24  H   UNL     1      -2.343  -1.138 -33.158  1.00  0.00     0.189 HD
HETATM   25  C   UNL     1      -4.433  -1.339 -33.575  1.00  0.00     0.065 A 
HETATM   26  C   UNL     1      -5.435  -0.403 -33.328  1.00  0.00     0.040 A 
HETATM   27  C   UNL     1      -4.662  -2.582 -34.179  1.00  0.00     0.051 A 
HETATM   28  C   UNL     1      -6.752  -0.727 -33.723  1.00  0.00     0.019 A 
HETATM   29  C   UNL     1      -7.009  -1.967 -34.326  1.00  0.00     0.020 A 
HETATM   30  C   UNL     1      -5.977  -2.874 -34.545  1.00  0.00     0.013 A 
HETATM   31 BR   UNL     1      -6.357  -4.537 -35.366  1.00  0.00    -0.051 Br
ENDBRANCH   3  21
TORSDOF 5
ENDMDL
MODEL 3
REMARK VINA RESULT:      -8.2      4.085      9.426
REMARK  5 active torsions:
REMARK  status: ('A' for Active; 'I' for Inactive)
REMARK    1  A    between atoms: C_2  and  C_3 
REMARK    2  A    between atoms: C_3  and  C_4 
REMARK    3  A    between atoms: C_8  and  N_9 
REMARK       I    between atoms: N_9  and  C_10 
REMARK    4  A    between atoms: C_10  and  C_11 
REMARK    5  A    between atoms: N_13  and  C_14 
ROOT
HETATM    1  C   UNL     1      -6.309   3.895 -30.907  1.00  0.00     0.106 C 
HETATM    2  C   UNL     1      -5.792   2.478 -30.805  1.00  0.00     0.148 C 
HETATM    3  N   UNL     1      -5.838   1.990 -32.159  1.00  0.00    -0.299 N 
HETATM    4  C   UNL     1      -6.737   2.736 -32.940  1.00  0.00     0.226 C 
HETATM    5  O   UNL     1      -7.073   2.593 -34.104  1.00  0.00    -0.273 OA
HETATM    6  C   UNL     1      -7.271   3.859 -32.082  1.00  0.00     0.119 C 
ENDROOT
BRANCH   1   7
HETATM    7  C   UNL     1      -5.182   4.910 -31.097  1.00  0.00     0.242 C 
HETATM    8  N   UNL     1      -3.909   4.371 -31.128  1.00  0.00    -0.156 N 
HETATM    9  H   UNL     1      -3.763   3.379 -30.989  1.00  0.00     0.187 HD
HETATM   10  O   UNL     1      -5.474   6.100 -31.192  1.00  0.00    -0.272 OA
BRANCH   8  11
HETATM   11  C   UNL     1      -2.796   5.150 -31.333  1.00  0.00     0.725 A 
HETATM   12  N   UNL     1      -2.744   6.097 -32.323  1.00  0.00    -0.106 N 
HETATM   13  N   UNL     1      -1.561   6.731 -32.345  1.00  0.00    -0.144 NA
HETATM   14  H   UNL     1      -3.455   6.354 -32.995  1.00  0.00     0.208 HD
HETATM   15  C   UNL     1      -0.928   6.134 -31.327  1.00  0.00     0.166 A 
HETATM   16  N   UNL     1      -1.655   5.166 -30.690  1.00  0.00    -0.046 NA
BRANCH  15  17
HETATM   17  C   UNL     1       0.452   6.494 -30.904  1.00  0.00     0.087 C 
BRANCH  17  18
HETATM   18  C   UNL     1       0.509   7.204 -29.539  1.00  0.00    -0.016 C 
HETATM   19  C   UNL     1       0.670   6.212 -28.383  1.00  0.00     0.010 C 
HETATM   20  C   UNL     1      -0.759   8.034 -29.331  1.00  0.00     0.010 C 
ENDBRANCH  17  18
ENDBRANCH  15  17
ENDBRANCH   8  11
ENDBRANCH   1   7
BRANCH   3  21
HETATM   21  C   UNL     1      -5.139   0.890 -32.651  1.00  0.00     0.165 A 
HETATM   22  N   UNL     1      -3.807   0.804 -32.567  1.00  0.00    -0.155 NA
HETATM   23  N   UNL     1      -3.497  -0.360 -33.146  1.00  0.00    -0.275 N 
HETATM   24  H   UNL     1      -2.516  -0.606 -33.227  1.00  0.00     0.189 HD
HETATM   25  C   UNL     1      -4.576  -1.089 -33.550  1.00  0.00     0.065 A 
HETATM   26  C   UNL     1      -5.684  -0.301 -33.243  1.00  0.00     0.040 A 
HETATM   27  C   UNL     1      -4.662  -2.347 -34.159  1.00  0.00     0.051 A 
HETATM   28  C   UNL     1      -6.961  -0.799 -33.581  1.00  0.00     0.019 A 
HETATM   29  C   UNL     1      -7.076  -2.058 -34.189  1.00  0.00     0.020 A 
HETATM   30  C   UNL     1      -5.941  -2.814 -34.469  1.00  0.00     0.013 A 
HETATM   31 BR   UNL     1      -6.129  -4.507 -35.294  1.00  0.00    -0.051 Br
ENDBRANCH   3  21
TORSDOF 5
ENDMDL
MODEL 4
REMARK VINA RESULT:      -8.1      4.617      9.557
REMARK  5 active torsions:
REMARK  status: ('A' for Active; 'I' for Inactive)
REMARK    1  A    between atoms: C_2  and  C_3 
REMARK    2  A    between atoms: C_3  and  C_4 
REMARK    3  A    between atoms: C_8  and  N_9 
REMARK       I    between atoms: N_9  and  C_10 
REMARK    4  A    between atoms: C_10  and  C_11 
REMARK    5  A    between atoms: N_13  and  C_14 
ROOT
HETATM    1  C   UNL     1      -4.365   0.702 -32.585  1.00  0.00     0.106 C 
HETATM    2  C   UNL     1      -5.671   1.238 -33.128  1.00  0.00     0.148 C 
HETATM    3  N   UNL     1      -6.590   1.100 -32.028  1.00  0.00    -0.299 N 
HETATM    4  C   UNL     1      -6.140   0.141 -31.105  1.00  0.00     0.226 C 
HETATM    5  O   UNL     1      -6.667  -0.276 -30.086  1.00  0.00    -0.273 OA
HETATM    6  C   UNL     1      -4.785  -0.341 -31.564  1.00  0.00     0.119 C 
ENDROOT
BRANCH   1   7
HETATM    7  C   UNL     1      -3.493   1.802 -31.982  1.00  0.00     0.242 C 
HETATM    8  N   UNL     1      -3.613   3.041 -32.586  1.00  0.00    -0.156 N 
HETATM    9  H   UNL     1      -4.211   3.167 -33.394  1.00  0.00     0.187 HD
HETATM   10  O   UNL     1      -2.757   1.518 -31.040  1.00  0.00    -0.272 OA
BRANCH   8  11
HETATM   11  C   UNL     1      -2.926   4.140 -32.132  1.00  0.00     0.725 A 
HETATM   12  N   UNL     1      -3.245   4.760 -30.951  1.00  0.00    -0.106 N 
HETATM   13  N   UNL     1      -2.449   5.814 -30.711  1.00  0.00    -0.144 NA
HETATM   14  H   UNL     1      -3.968   4.523 -30.284  1.00  0.00     0.208 HD
HETATM   15  C   UNL     1      -1.646   5.782 -31.781  1.00  0.00     0.166 A 
HETATM   16  N   UNL     1      -1.911   4.772 -32.666  1.00  0.00    -0.046 NA
BRANCH  15  17
HETATM   17  C   UNL     1      -0.541   6.754 -31.998  1.00  0.00     0.087 C 
BRANCH  17  18
HETATM   18  C   UNL     1       0.646   6.556 -31.037  1.00  0.00    -0.016 C 
HETATM   19  C   UNL     1       0.908   5.076 -30.746  1.00  0.00     0.010 C 
HETATM   20  C   UNL     1       0.383   7.300 -29.726  1.00  0.00     0.010 C 
ENDBRANCH  17  18
ENDBRANCH  15  17
ENDBRANCH   8  11
ENDBRANCH   1   7
BRANCH   3  21
HETATM   21  C   UNL     1      -7.802   1.773 -31.893  1.00  0.00     0.165 A 
HETATM   22  N   UNL     1      -8.005   2.678 -30.931  1.00  0.00    -0.155 NA
HETATM   23  N   UNL     1      -9.263   3.093 -31.102  1.00  0.00    -0.275 N 
HETATM   24  H   UNL     1      -9.640   3.764 -30.440  1.00  0.00     0.189 HD
HETATM   25  C   UNL     1      -9.887   2.552 -32.188  1.00  0.00     0.065 A 
HETATM   26  C   UNL     1      -8.958   1.673 -32.741  1.00  0.00     0.040 A 
HETATM   27  C   UNL     1     -11.172   2.754 -32.708  1.00  0.00     0.051 A 
HETATM   28  C   UNL     1      -9.346   0.937 -33.882  1.00  0.00     0.019 A 
HETATM   29  C   UNL     1     -10.626   1.123 -34.425  1.00  0.00     0.020 A 
HETATM   30  C   UNL     1     -11.518   2.020 -33.843  1.00  0.00     0.013 A 
HETATM   31 BR   UNL     1     -13.239   2.244 -34.597  1.00  0.00    -0.051 Br
ENDBRANCH   3  21
TORSDOF 5
ENDMDL
MODEL 5
REMARK VINA RESULT:      -8.0      8.801     11.339
REMARK  5 active torsions:
REMARK  status: ('A' for Active; 'I' for Inactive)
REMARK    1  A    between atoms: C_2  and  C_3 
REMARK    2  A    between atoms: C_3  and  C_4 
REMARK    3  A    between atoms: C_8  and  N_9 
REMARK       I    between atoms: N_9  and  C_10 
REMARK    4  A    between atoms: C_10  and  C_11 
REMARK    5  A    between atoms: N_13  and  C_14 
ROOT
HETATM    1  C   UNL     1      -9.349   3.086 -32.874  1.00  0.00     0.106 C 
HETATM    2  C   UNL     1     -10.707   3.073 -32.210  1.00  0.00     0.148 C 
HETATM    3  N   UNL     1     -11.618   2.757 -33.280  1.00  0.00    -0.299 N 
HETATM    4  C   UNL     1     -11.054   3.052 -34.532  1.00  0.00     0.226 C 
HETATM    5  O   UNL     1     -11.535   2.964 -35.651  1.00  0.00    -0.273 OA
HETATM    6  C   UNL     1      -9.635   3.517 -34.302  1.00  0.00     0.119 C 
ENDROOT
BRANCH   1   7
HETATM    7  C   UNL     1      -8.652   1.728 -32.795  1.00  0.00     0.242 C 
HETATM    8  N   UNL     1      -7.676   1.517 -33.752  1.00  0.00    -0.156 N 
HETATM    9  H   UNL     1      -7.490   2.211 -34.466  1.00  0.00     0.187 HD
HETATM   10  O   UNL     1      -9.004   0.937 -31.924  1.00  0.00    -0.272 OA
BRANCH   8  11
HETATM   11  C   UNL     1      -6.930   0.362 -33.786  1.00  0.00     0.725 A 
HETATM   12  N   UNL     1      -6.339  -0.154 -32.662  1.00  0.00    -0.106 N 
HETATM   13  N   UNL     1      -5.656  -1.278 -32.930  1.00  0.00    -0.144 NA
HETATM   14  H   UNL     1      -6.360   0.198 -31.713  1.00  0.00     0.208 HD
HETATM   15  C   UNL     1      -5.880  -1.410 -34.244  1.00  0.00     0.166 A 
HETATM   16  N   UNL     1      -6.654  -0.426 -34.795  1.00  0.00    -0.046 NA
BRANCH  15  17
HETATM   17  C   UNL     1      -5.346  -2.541 -35.050  1.00  0.00     0.087 C 
BRANCH  17  18
HETATM   18  C   UNL     1      -5.763  -3.924 -34.519  1.00  0.00    -0.016 C 
HETATM   19  C   UNL     1      -4.553  -4.817 -34.230  1.00  0.00     0.010 C 
HETATM   20  C   UNL     1      -6.681  -4.614 -35.530  1.00  0.00     0.010 C 
ENDBRANCH  17  18
ENDBRANCH  15  17
ENDBRANCH   8  11
ENDBRANCH   1   7
BRANCH   3  21
HETATM   21  C   UNL     1     -12.915   2.273 -33.127  1.00  0.00     0.165 A 
HETATM   22  N   UNL     1     -13.222   0.991 -33.348  1.00  0.00    -0.155 NA
HETATM   23  N   UNL     1     -14.536   0.904 -33.120  1.00  0.00    -0.275 N 
HETATM   24  H   UNL     1     -14.989   0.009 -33.273  1.00  0.00     0.189 HD
HETATM   25  C   UNL     1     -15.106   2.064 -32.685  1.00  0.00     0.065 A 
HETATM   26  C   UNL     1     -14.072   2.997 -32.674  1.00  0.00     0.040 A 
HETATM   27  C   UNL     1     -16.425   2.361 -32.320  1.00  0.00     0.051 A 
HETATM   28  C   UNL     1     -14.381   4.320 -32.286  1.00  0.00     0.019 A 
HETATM   29  C   UNL     1     -15.693   4.643 -31.912  1.00  0.00     0.020 A 
HETATM   30  C   UNL     1     -16.693   3.675 -31.929  1.00  0.00     0.013 A 
HETATM   31 BR   UNL     1     -18.455   4.146 -31.424  1.00  0.00    -0.051 Br
ENDBRANCH   3  21
TORSDOF 5
ENDMDL
MODEL 6
REMARK VINA RESULT:      -8.0      1.644      2.098
REMARK  5 active torsions:
REMARK  status: ('A' for Active; 'I' for Inactive)
REMARK    1  A    between atoms: C_2  and  C_3 
REMARK    2  A    between atoms: C_3  and  C_4 
REMARK    3  A    between atoms: C_8  and  N_9 
REMARK       I    between atoms: N_9  and  C_10 
REMARK    4  A    between atoms: C_10  and  C_11 
REMARK    5  A    between atoms: N_13  and  C_14 
ROOT
HETATM    1  C   UNL     1      -1.662   5.207 -33.587  1.00  0.00     0.106 C 
HETATM    2  C   UNL     1      -0.784   5.242 -32.356  1.00  0.00     0.148 C 
HETATM    3  N   UNL     1      -1.055   6.529 -31.770  1.00  0.00    -0.299 N 
HETATM    4  C   UNL     1      -1.588   7.419 -32.717  1.00  0.00     0.226 C 
HETATM    5  O   UNL     1      -1.894   8.595 -32.605  1.00  0.00    -0.273 OA
HETATM    6  C   UNL     1      -1.770   6.661 -34.011  1.00  0.00     0.119 C 
ENDROOT
BRANCH   1   7
HETATM    7  C   UNL     1      -3.022   4.568 -33.311  1.00  0.00     0.242 C 
HETATM    8  N   UNL     1      -2.976   3.365 -32.631  1.00  0.00    -0.156 N 
HETATM    9  H   UNL     1      -2.088   2.942 -32.386  1.00  0.00     0.187 HD
HETATM   10  O   UNL     1      -4.033   5.142 -33.711  1.00  0.00    -0.272 OA
BRANCH   8  11
HETATM   11  C   UNL     1      -4.117   2.689 -32.272  1.00  0.00     0.725 A 
HETATM   12  N   UNL     1      -5.098   3.272 -31.513  1.00  0.00    -0.106 N 
HETATM   13  N   UNL     1      -6.115   2.427 -31.278  1.00  0.00    -0.144 NA
HETATM   14  H   UNL     1      -5.138   4.210 -31.136  1.00  0.00     0.208 HD
HETATM   15  C   UNL     1      -5.702   1.336 -31.936  1.00  0.00     0.166 A 
HETATM   16  N   UNL     1      -4.488   1.465 -32.554  1.00  0.00    -0.046 NA
BRANCH  15  17
HETATM   17  C   UNL     1      -6.498   0.081 -32.010  1.00  0.00     0.087 C 
BRANCH  17  18
HETATM   18  C   UNL     1      -7.233  -0.101 -33.350  1.00  0.00    -0.016 C 
HETATM   19  C   UNL     1      -8.754  -0.076 -33.177  1.00  0.00     0.010 C 
HETATM   20  C   UNL     1      -6.810  -1.420 -33.999  1.00  0.00     0.010 C 
ENDBRANCH  17  18
ENDBRANCH  15  17
ENDBRANCH   8  11
ENDBRANCH   1   7
BRANCH   3  21
HETATM   21  C   UNL     1      -0.787   6.894 -30.453  1.00  0.00     0.165 A 
HETATM   22  N   UNL     1       0.460   7.093 -30.014  1.00  0.00    -0.155 NA
HETATM   23  N   UNL     1       0.329   7.409 -28.723  1.00  0.00    -0.275 N 
HETATM   24  H   UNL     1       1.173   7.563 -28.180  1.00  0.00     0.189 HD
HETATM   25  C   UNL     1      -0.964   7.499 -28.298  1.00  0.00     0.065 A 
HETATM   26  C   UNL     1      -1.736   7.167 -29.408  1.00  0.00     0.040 A 
HETATM   27  C   UNL     1      -1.502   7.828 -27.047  1.00  0.00     0.051 A 
HETATM   28  C   UNL     1      -3.141   7.148 -29.253  1.00  0.00     0.019 A 
HETATM   29  C   UNL     1      -3.705   7.478 -28.012  1.00  0.00     0.020 A 
HETATM   30  C   UNL     1      -2.893   7.812 -26.933  1.00  0.00     0.013 A 
HETATM   31 BR   UNL     1      -3.686   8.246 -25.270  1.00  0.00    -0.051 Br
ENDBRANCH   3  21
TORSDOF 5
ENDMDL
MODEL 7
REMARK VINA RESULT:      -7.9      2.357      3.568
REMARK  5 active torsions:
REMARK  status: ('A' for Active; 'I' for Inactive)
REMARK    1  A    between atoms: C_2  and  C_3 
REMARK    2  A    between atoms: C_3  and  C_4 
REMARK    3  A    between atoms: C_8  and  N_9 
REMARK       I    between atoms: N_9  and  C_10 
REMARK    4  A    between atoms: C_10  and  C_11 
REMARK    5  A    between atoms: N_13  and  C_14 
ROOT
HETATM    1  C   UNL     1      -6.181   5.566 -32.908  1.00  0.00     0.106 C 
HETATM    2  C   UNL     1      -4.777   6.126 -32.891  1.00  0.00     0.148 C 
HETATM    3  N   UNL     1      -4.233   5.668 -31.638  1.00  0.00    -0.299 N 
HETATM    4  C   UNL     1      -5.253   5.336 -30.731  1.00  0.00     0.226 C 
HETATM    5  O   UNL     1      -5.182   4.961 -29.571  1.00  0.00    -0.273 OA
HETATM    6  C   UNL     1      -6.575   5.497 -31.443  1.00  0.00     0.119 C 
ENDROOT
BRANCH   1   7
HETATM    7  C   UNL     1      -6.255   4.207 -33.605  1.00  0.00     0.242 C 
HETATM    8  N   UNL     1      -6.993   3.247 -32.936  1.00  0.00    -0.156 N 
HETATM    9  H   UNL     1      -7.404   3.447 -32.032  1.00  0.00     0.187 HD
HETATM   10  O   UNL     1      -5.663   4.061 -34.671  1.00  0.00    -0.272 OA
BRANCH   8  11
HETATM   11  C   UNL     1      -7.188   1.990 -33.454  1.00  0.00     0.725 A 
HETATM   12  N   UNL     1      -7.704   1.793 -34.709  1.00  0.00    -0.106 N 
HETATM   13  N   UNL     1      -7.813   0.488 -35.003  1.00  0.00    -0.144 NA
HETATM   14  H   UNL     1      -7.991   2.481 -35.394  1.00  0.00     0.208 HD
HETATM   15  C   UNL     1      -7.332  -0.071 -33.886  1.00  0.00     0.166 A 
HETATM   16  N   UNL     1      -6.941   0.818 -32.923  1.00  0.00    -0.046 NA
BRANCH  15  17
HETATM   17  C   UNL     1      -7.214  -1.542 -33.699  1.00  0.00     0.087 C 
BRANCH  17  18
HETATM   18  C   UNL     1      -6.206  -2.203 -34.657  1.00  0.00    -0.016 C 
HETATM   19  C   UNL     1      -6.566  -3.662 -34.951  1.00  0.00     0.010 C 
HETATM   20  C   UNL     1      -4.798  -2.130 -34.063  1.00  0.00     0.010 C 
ENDBRANCH  17  18
ENDBRANCH  15  17
ENDBRANCH   8  11
ENDBRANCH   1   7
BRANCH   3  21
HETATM   21  C   UNL     1      -2.880   5.602 -31.315  1.00  0.00     0.165 A 
HETATM   22  N   UNL     1      -2.064   4.700 -31.869  1.00  0.00    -0.155 NA
HETATM   23  N   UNL     1      -0.868   4.927 -31.317  1.00  0.00    -0.275 N 
HETATM   24  H   UNL     1      -0.100   4.314 -31.573  1.00  0.00     0.189 HD
HETATM   25  C   UNL     1      -0.838   5.993 -30.468  1.00  0.00     0.065 A 
HETATM   26  C   UNL     1      -2.146   6.471 -30.436  1.00  0.00     0.040 A 
HETATM   27  C   UNL     1       0.213   6.554 -29.732  1.00  0.00     0.051 A 
HETATM   28  C   UNL     1      -2.424   7.576 -29.600  1.00  0.00     0.019 A 
HETATM   29  C   UNL     1      -1.389   8.159 -28.856  1.00  0.00     0.020 A 
HETATM   30  C   UNL     1      -0.095   7.653 -28.926  1.00  0.00     0.013 A 
HETATM   31 BR   UNL     1       1.279   8.460 -27.904  1.00  0.00    -0.051 Br
ENDBRANCH   3  21
TORSDOF 5
ENDMDL
MODEL 8
REMARK VINA RESULT:      -7.7      6.627      9.569
REMARK  5 active torsions:
REMARK  status: ('A' for Active; 'I' for Inactive)
REMARK    1  A    between atoms: C_2  and  C_3 
REMARK    2  A    between atoms: C_3  and  C_4 
REMARK    3  A    between atoms: C_8  and  N_9 
REMARK       I    between atoms: N_9  and  C_10 
REMARK    4  A    between atoms: C_10  and  C_11 
REMARK    5  A    between atoms: N_13  and  C_14 
ROOT
HETATM    1  C   UNL     1      -6.651   3.633 -31.480  1.00  0.00     0.106 C 
HETATM    2  C   UNL     1      -5.651   2.980 -32.408  1.00  0.00     0.148 C 
HETATM    3  N   UNL     1      -5.353   1.722 -31.773  1.00  0.00    -0.299 N 
HETATM    4  C   UNL     1      -5.660   1.759 -30.402  1.00  0.00     0.226 C 
HETATM    5  O   UNL     1      -5.502   0.910 -29.539  1.00  0.00    -0.273 OA
HETATM    6  C   UNL     1      -6.289   3.100 -30.105  1.00  0.00     0.119 C 
ENDROOT
BRANCH   1   7
HETATM    7  C   UNL     1      -8.095   3.323 -31.873  1.00  0.00     0.242 C 
HETATM    8  N   UNL     1      -9.051   4.090 -31.232  1.00  0.00    -0.156 N 
HETATM    9  H   UNL     1      -8.786   4.767 -30.527  1.00  0.00     0.187 HD
HETATM   10  O   UNL     1      -8.302   2.434 -32.696  1.00  0.00    -0.272 OA
BRANCH   8  11
HETATM   11  C   UNL     1     -10.391   3.959 -31.509  1.00  0.00     0.725 A 
HETATM   12  N   UNL     1     -10.848   3.670 -32.768  1.00  0.00    -0.106 N 
HETATM   13  N   UNL     1     -12.188   3.597 -32.808  1.00  0.00    -0.144 NA
HETATM   14  H   UNL     1     -10.319   3.514 -33.617  1.00  0.00     0.208 HD
HETATM   15  C   UNL     1     -12.499   3.840 -31.529  1.00  0.00     0.166 A 
HETATM   16  N   UNL     1     -11.424   4.063 -30.711  1.00  0.00    -0.046 NA
BRANCH  15  17
HETATM   17  C   UNL     1     -13.896   3.854 -31.020  1.00  0.00     0.087 C 
BRANCH  17  18
HETATM   18  C   UNL     1     -14.955   3.890 -32.137  1.00  0.00    -0.016 C 
HETATM   19  C   UNL     1     -15.885   5.099 -32.007  1.00  0.00     0.010 C 
HETATM   20  C   UNL     1     -15.781   2.602 -32.112  1.00  0.00     0.010 C 
ENDBRANCH  17  18
ENDBRANCH  15  17
ENDBRANCH   8  11
ENDBRANCH   1   7
BRANCH   3  21
HETATM   21  C   UNL     1      -4.783   0.613 -32.393  1.00  0.00     0.165 A 
HETATM   22  N   UNL     1      -3.463   0.401 -32.389  1.00  0.00    -0.155 NA
HETATM   23  N   UNL     1      -3.290  -0.729 -33.081  1.00  0.00    -0.275 N 
HETATM   24  H   UNL     1      -2.341  -1.054 -33.235  1.00  0.00     0.189 HD
HETATM   25  C   UNL     1      -4.451  -1.319 -33.487  1.00  0.00     0.065 A 
HETATM   26  C   UNL     1      -5.464  -0.466 -33.055  1.00  0.00     0.040 A 
HETATM   27  C   UNL     1      -4.682  -2.504 -34.197  1.00  0.00     0.051 A 
HETATM   28  C   UNL     1      -6.797  -0.815 -33.366  1.00  0.00     0.019 A 
HETATM   29  C   UNL     1      -7.057  -1.998 -34.072  1.00  0.00     0.020 A 
HETATM   30  C   UNL     1      -6.012  -2.825 -34.476  1.00  0.00     0.013 A 
HETATM   31 BR   UNL     1      -6.397  -4.412 -35.432  1.00  0.00    -0.051 Br
ENDBRANCH   3  21
TORSDOF 5
ENDMDL
MODEL 9
REMARK VINA RESULT:      -7.7      3.838      9.382
REMARK  5 active torsions:
REMARK  status: ('A' for Active; 'I' for Inactive)
REMARK    1  A    between atoms: C_2  and  C_3 
REMARK    2  A    between atoms: C_3  and  C_4 
REMARK    3  A    between atoms: C_8  and  N_9 
REMARK       I    between atoms: N_9  and  C_10 
REMARK    4  A    between atoms: C_10  and  C_11 
REMARK    5  A    between atoms: N_13  and  C_14 
ROOT
HETATM    1  C   UNL     1      -2.917   5.435 -32.423  1.00  0.00     0.106 C 
HETATM    2  C   UNL     1      -4.394   5.128 -32.318  1.00  0.00     0.148 C 
HETATM    3  N   UNL     1      -4.437   3.742 -31.927  1.00  0.00    -0.299 N 
HETATM    4  C   UNL     1      -3.238   3.084 -32.249  1.00  0.00     0.226 C 
HETATM    5  O   UNL     1      -2.924   1.912 -32.115  1.00  0.00    -0.273 OA
HETATM    6  C   UNL     1      -2.286   4.111 -32.818  1.00  0.00     0.119 C 
ENDROOT
BRANCH   1   7
HETATM    7  C   UNL     1      -2.348   5.995 -31.120  1.00  0.00     0.242 C 
HETATM    8  N   UNL     1      -0.988   5.808 -30.949  1.00  0.00    -0.156 N 
HETATM    9  H   UNL     1      -0.445   5.295 -31.633  1.00  0.00     0.187 HD
HETATM   10  O   UNL     1      -3.114   6.545 -30.332  1.00  0.00    -0.272 OA
BRANCH   8  11
HETATM   11  C   UNL     1      -0.321   6.292 -29.849  1.00  0.00     0.725 A 
HETATM   12  N   UNL     1      -0.190   5.558 -28.698  1.00  0.00    -0.106 N 
HETATM   13  N   UNL     1       0.490   6.229 -27.754  1.00  0.00    -0.144 NA
HETATM   14  H   UNL     1      -0.527   4.626 -28.496  1.00  0.00     0.208 HD
HETATM   15  C   UNL     1       0.763   7.373 -28.395  1.00  0.00     0.166 A 
HETATM   16  N   UNL     1       0.283   7.441 -29.675  1.00  0.00    -0.046 NA
BRANCH  15  17
HETATM   17  C   UNL     1       1.539   8.484 -27.782  1.00  0.00     0.087 C 
BRANCH  17  18
HETATM   18  C   UNL     1       1.152   8.767 -26.319  1.00  0.00    -0.016 C 
HETATM   19  C   UNL     1       0.557  10.167 -26.144  1.00  0.00     0.010 C 
HETATM   20  C   UNL     1       2.378   8.613 -25.417  1.00  0.00     0.010 C 
ENDBRANCH  17  18
ENDBRANCH  15  17
ENDBRANCH   8  11
ENDBRANCH   1   7
BRANCH   3  21
HETATM   21  C   UNL     1      -5.527   3.094 -31.352  1.00  0.00     0.165 A 
HETATM   22  N   UNL     1      -5.708   3.052 -30.028  1.00  0.00    -0.155 NA
HETATM   23  N   UNL     1      -6.828   2.346 -29.852  1.00  0.00    -0.275 N 
HETATM   24  H   UNL     1      -7.129   2.156 -28.901  1.00  0.00     0.189 HD
HETATM   25  C   UNL     1      -7.443   1.975 -31.011  1.00  0.00     0.065 A 
HETATM   26  C   UNL     1      -6.618   2.448 -32.029  1.00  0.00     0.040 A 
HETATM   27  C   UNL     1      -8.629   1.265 -31.238  1.00  0.00     0.051 A 
HETATM   28  C   UNL     1      -6.998   2.181 -33.363  1.00  0.00     0.019 A 
HETATM   29  C   UNL     1      -8.183   1.475 -33.619  1.00  0.00     0.020 A 
HETATM   30  C   UNL     1      -8.980   1.029 -32.569  1.00  0.00     0.013 A 
HETATM   31 BR   UNL     1     -10.570   0.074 -32.947  1.00  0.00    -0.051 Br
ENDBRANCH   3  21
TORSDOF 5
ENDMDL
MODEL 10
REMARK VINA RESULT:      -7.6      5.598      8.538
REMARK  5 active torsions:
REMARK  status: ('A' for Active; 'I' for Inactive)
REMARK    1  A    between atoms: C_2  and  C_3 
REMARK    2  A    between atoms: C_3  and  C_4 
REMARK    3  A    between atoms: C_8  and  N_9 
REMARK       I    between atoms: N_9  and  C_10 
REMARK    4  A    between atoms: C_10  and  C_11 
REMARK    5  A    between atoms: N_13  and  C_14 
ROOT
HETATM    1  C   UNL     1      -4.459   4.296 -32.367  1.00  0.00     0.106 C 
HETATM    2  C   UNL     1      -3.521   3.144 -32.649  1.00  0.00     0.148 C 
HETATM    3  N   UNL     1      -4.008   2.082 -31.806  1.00  0.00    -0.299 N 
HETATM    4  C   UNL     1      -4.778   2.587 -30.744  1.00  0.00     0.226 C 
HETATM    5  O   UNL     1      -5.310   2.004 -29.813  1.00  0.00    -0.273 OA
HETATM    6  C   UNL     1      -4.893   4.082 -30.928  1.00  0.00     0.119 C 
ENDROOT
BRANCH   1   7
HETATM    7  C   UNL     1      -5.636   4.337 -33.340  1.00  0.00     0.242 C 
HETATM    8  N   UNL     1      -6.885   4.268 -32.749  1.00  0.00    -0.156 N 
HETATM    9  H   UNL     1      -6.978   4.154 -31.747  1.00  0.00     0.187 HD
HETATM   10  O   UNL     1      -5.401   4.414 -34.544  1.00  0.00    -0.272 OA
BRANCH   8  11
HETATM   11  C   UNL     1      -8.042   4.336 -33.487  1.00  0.00     0.725 A 
HETATM   12  N   UNL     1      -8.878   3.259 -33.627  1.00  0.00    -0.106 N 
HETATM   13  N   UNL     1      -9.941   3.549 -34.394  1.00  0.00    -0.144 NA
HETATM   14  H   UNL     1      -8.788   2.328 -33.239  1.00  0.00     0.208 HD
HETATM   15  C   UNL     1      -9.706   4.834 -34.687  1.00  0.00     0.166 A 
HETATM   16  N   UNL     1      -8.556   5.343 -34.147  1.00  0.00    -0.046 NA
BRANCH  15  17
HETATM   17  C   UNL     1     -10.621   5.660 -35.519  1.00  0.00     0.087 C 
BRANCH  17  18
HETATM   18  C   UNL     1     -10.560   7.163 -35.193  1.00  0.00    -0.016 C 
HETATM   19  C   UNL     1     -11.785   7.628 -34.399  1.00  0.00     0.010 C 
HETATM   20  C   UNL     1     -10.448   7.972 -36.486  1.00  0.00     0.010 C 
ENDBRANCH  17  18
ENDBRANCH  15  17
ENDBRANCH   8  11
ENDBRANCH   1   7
BRANCH   3  21
HETATM   21  C   UNL     1      -3.726   0.727 -31.962  1.00  0.00     0.165 A 
HETATM   22  N   UNL     1      -2.751   0.124 -31.275  1.00  0.00    -0.155 NA
HETATM   23  N   UNL     1      -2.766  -1.146 -31.690  1.00  0.00    -0.275 N 
HETATM   24  H   UNL     1      -2.066  -1.779 -31.318  1.00  0.00     0.189 HD
HETATM   25  C   UNL     1      -3.763  -1.432 -32.576  1.00  0.00     0.065 A 
HETATM   26  C   UNL     1      -4.423  -0.223 -32.785  1.00  0.00     0.040 A 
HETATM   27  C   UNL     1      -4.119  -2.631 -33.206  1.00  0.00     0.051 A 
HETATM   28  C   UNL     1      -5.503  -0.210 -33.695  1.00  0.00     0.019 A 
HETATM   29  C   UNL     1      -5.883  -1.398 -34.337  1.00  0.00     0.020 A 
HETATM   30  C   UNL     1      -5.199  -2.585 -34.090  1.00  0.00     0.013 A 
HETATM   31 BR   UNL     1      -5.733  -4.170 -34.976  1.00  0.00    -0.051 Br
ENDBRANCH   3  21
TORSDOF 5
ENDMDL
