MODEL 1
REMARK VINA RESULT:      -8.5      0.000      0.000
REMARK  7 active torsions:
REMARK  status: ('A' for Active; 'I' for Inactive)
REMARK    1  A    between atoms: C_2  and  C_3 
REMARK       I    between atoms: C_3  and  N_4 
REMARK    2  A    between atoms: N_7  and  C_8 
REMARK    3  A    between atoms: C_12  and  N_13 
REMARK    4  A    between atoms: N_13  and  C_14 
REMARK    5  A    between atoms: C_14  and  N_15 
REMARK       I    between atoms: N_15  and  C_16 
REMARK    6  A    between atoms: C_16  and  C_17 
REMARK    7  A    between atoms: C_18  and  O_19 
ROOT
HETATM    1  C   UNL     1      -5.361   4.379 -31.235  1.00  0.00     0.052 A 
HETATM    2  C   UNL     1      -6.118   4.242 -32.414  1.00  0.00     0.062 A 
HETATM    3 CL   UNL     1      -5.808   5.157 -33.853  1.00  0.00    -0.082 Cl
HETATM    4  C   UNL     1      -7.218   3.371 -32.472  1.00  0.00     0.055 A 
HETATM    5  C   UNL     1      -7.603   2.620 -31.365  1.00  0.00     0.036 A 
HETATM    6  C   UNL     1      -6.945   2.849 -30.156  1.00  0.00     0.032 A 
HETATM    7  C   UNL     1      -5.840   3.708 -30.097  1.00  0.00     0.033 A 
ENDROOT
BRANCH   5   8
HETATM    8  N   UNL     1      -8.623   1.644 -31.365  1.00  0.00    -0.333 N 
HETATM    9  H   UNL     1      -9.127   1.547 -30.480  1.00  0.00     0.168 HD
BRANCH   8  10
HETATM   10  C   UNL     1      -8.961   0.674 -32.282  1.00  0.00     0.179 C 
HETATM   11  S   UNL     1     -10.431   0.346 -33.007  1.00  0.00    -0.040 SA
BRANCH  10  12
HETATM   12  N   UNL     1      -7.913  -0.132 -32.686  1.00  0.00    -0.299 N 
HETATM   13  C   UNL     1      -7.188  -0.130 -33.869  1.00  0.00     0.260 C 
HETATM   14  O   UNL     1      -7.443   0.587 -34.832  1.00  0.00    -0.267 OA
HETATM   15  H   UNL     1      -7.647  -0.818 -31.987  1.00  0.00     0.171 HD
BRANCH  13  16
HETATM   16  C   UNL     1      -6.104  -1.141 -33.935  1.00  0.00     0.066 A 
HETATM   17  C   UNL     1      -5.066  -1.195 -32.991  1.00  0.00     0.089 A 
HETATM   18  C   UNL     1      -4.142  -2.251 -33.004  1.00  0.00    -0.028 A 
HETATM   19  C   UNL     1      -3.081  -2.368 -31.946  1.00  0.00     0.051 C 
HETATM   20  C   UNL     1      -4.249  -3.229 -34.004  1.00  0.00     0.009 A 
HETATM   21  C   UNL     1      -5.247  -3.148 -34.977  1.00  0.00     0.002 A 
HETATM   22  C   UNL     1      -6.173  -2.106 -34.947  1.00  0.00     0.020 A 
BRANCH  17  23
HETATM   23  O   UNL     1      -4.953  -0.256 -31.994  1.00  0.00    -0.354 OA
HETATM   24  C   UNL     1      -4.232   0.895 -32.453  1.00  0.00     0.210 C 
ENDBRANCH  17  23
ENDBRANCH  13  16
ENDBRANCH  10  12
ENDBRANCH   8  10
ENDBRANCH   5   8
BRANCH   1  25
HETATM   25  N   UNL     1      -4.152   5.065 -31.083  1.00  0.00    -0.376 N 
HETATM   26  C   UNL     1      -2.936   4.286 -31.384  1.00  0.00     0.143 C 
HETATM   27  C   UNL     1      -1.744   5.245 -31.606  1.00  0.00     0.145 C 
HETATM   28  N   UNL     1      -1.605   6.267 -30.554  1.00  0.00    -0.349 N 
HETATM   29  C   UNL     1      -0.344   6.816 -30.345  1.00  0.00     0.219 C 
HETATM   30  C   UNL     1      -2.856   6.940 -30.168  1.00  0.00     0.145 C 
HETATM   31  O   UNL     1       0.660   6.382 -30.912  1.00  0.00    -0.273 OA
HETATM   32  C   UNL     1      -3.992   5.938 -29.907  1.00  0.00     0.143 C 
BRANCH  29  33
HETATM   33  C   UNL     1      -0.260   7.970 -29.355  1.00  0.00     0.098 C 
HETATM   34  C   UNL     1       0.980   7.907 -28.481  1.00  0.00     0.014 C 
ENDBRANCH  29  33
ENDBRANCH   1  25
TORSDOF 7
ENDMDL
MODEL 2
REMARK VINA RESULT:      -8.3      1.280      2.023
REMARK  7 active torsions:
REMARK  status: ('A' for Active; 'I' for Inactive)
REMARK    1  A    between atoms: C_2  and  C_3 
REMARK       I    between atoms: C_3  and  N_4 
REMARK    2  A    between atoms: N_7  and  C_8 
REMARK    3  A    between atoms: C_12  and  N_13 
REMARK    4  A    between atoms: N_13  and  C_14 
REMARK    5  A    between atoms: C_14  and  N_15 
REMARK       I    between atoms: N_15  and  C_16 
REMARK    6  A    between atoms: C_16  and  C_17 
REMARK    7  A    between atoms: C_18  and  O_19 
ROOT
HETATM    1  C   UNL     1      -4.836   4.593 -32.424  1.00  0.00     0.052 A 
HETATM    2  C   UNL     1      -5.112   4.405 -33.791  1.00  0.00     0.062 A 
HETATM    3 CL   UNL     1      -4.140   5.079 -35.057  1.00  0.00    -0.082 Cl
HETATM    4  C   UNL     1      -6.243   3.684 -34.210  1.00  0.00     0.055 A 
HETATM    5  C   UNL     1      -7.132   3.139 -33.289  1.00  0.00     0.036 A 
HETATM    6  C   UNL     1      -6.942   3.434 -31.939  1.00  0.00     0.032 A 
HETATM    7  C   UNL     1      -5.809   4.141 -31.516  1.00  0.00     0.033 A 
ENDROOT
BRANCH   5   8
HETATM    8  N   UNL     1      -8.229   2.312 -33.617  1.00  0.00    -0.333 N 
HETATM    9  H   UNL     1      -8.988   2.781 -34.116  1.00  0.00     0.168 HD
BRANCH   8  10
HETATM   10  C   UNL     1      -8.550   1.026 -33.242  1.00  0.00     0.179 C 
HETATM   11  S   UNL     1     -10.045   0.313 -33.021  1.00  0.00    -0.040 SA
BRANCH  10  12
HETATM   12  N   UNL     1      -7.465   0.190 -33.051  1.00  0.00    -0.299 N 
HETATM   13  C   UNL     1      -6.503  -0.246 -33.952  1.00  0.00     0.260 C 
HETATM   14  O   UNL     1      -6.522   0.000 -35.153  1.00  0.00    -0.267 OA
HETATM   15  H   UNL     1      -7.377  -0.135 -32.094  1.00  0.00     0.171 HD
BRANCH  13  16
HETATM   16  C   UNL     1      -5.463  -1.129 -33.369  1.00  0.00     0.066 A 
HETATM   17  C   UNL     1      -5.121  -2.367 -33.938  1.00  0.00     0.089 A 
HETATM   18  C   UNL     1      -4.035  -3.106 -33.442  1.00  0.00    -0.028 A 
HETATM   19  C   UNL     1      -3.604  -4.388 -34.098  1.00  0.00     0.051 C 
HETATM   20  C   UNL     1      -3.326  -2.607 -32.340  1.00  0.00     0.009 A 
HETATM   21  C   UNL     1      -3.699  -1.403 -31.737  1.00  0.00     0.002 A 
HETATM   22  C   UNL     1      -4.766  -0.664 -32.248  1.00  0.00     0.020 A 
BRANCH  17  23
HETATM   23  O   UNL     1      -5.792  -2.866 -35.028  1.00  0.00    -0.354 OA
HETATM   24  C   UNL     1      -6.876  -3.711 -34.618  1.00  0.00     0.210 C 
ENDBRANCH  17  23
ENDBRANCH  13  16
ENDBRANCH  10  12
ENDBRANCH   8  10
ENDBRANCH   5   8
BRANCH   1  25
HETATM   25  N   UNL     1      -3.672   5.129 -31.863  1.00  0.00    -0.376 N 
HETATM   26  C   UNL     1      -2.612   4.154 -31.542  1.00  0.00     0.143 C 
HETATM   27  C   UNL     1      -1.266   4.890 -31.358  1.00  0.00     0.145 C 
HETATM   28  N   UNL     1      -1.349   6.060 -30.468  1.00  0.00    -0.349 N 
HETATM   29  C   UNL     1      -0.188   6.468 -29.819  1.00  0.00     0.219 C 
HETATM   30  C   UNL     1      -2.495   6.952 -30.714  1.00  0.00     0.145 C 
HETATM   31  O   UNL     1       0.851   5.809 -29.865  1.00  0.00    -0.273 OA
HETATM   32  C   UNL     1      -3.814   6.174 -30.835  1.00  0.00     0.143 C 
BRANCH  29  33
HETATM   33  C   UNL     1      -0.272   7.762 -29.022  1.00  0.00     0.098 C 
HETATM   34  C   UNL     1       1.005   8.067 -28.258  1.00  0.00     0.014 C 
ENDBRANCH  29  33
ENDBRANCH   1  25
TORSDOF 7
ENDMDL
MODEL 3
REMARK VINA RESULT:      -8.1      1.774      2.240
REMARK  7 active torsions:
REMARK  status: ('A' for Active; 'I' for Inactive)
REMARK    1  A    between atoms: C_2  and  C_3 
REMARK       I    between atoms: C_3  and  N_4 
REMARK    2  A    between atoms: N_7  and  C_8 
REMARK    3  A    between atoms: C_12  and  N_13 
REMARK    4  A    between atoms: N_13  and  C_14 
REMARK    5  A    between atoms: C_14  and  N_15 
REMARK       I    between atoms: N_15  and  C_16 
REMARK    6  A    between atoms: C_16  and  C_17 
REMARK    7  A    between atoms: C_18  and  O_19 
ROOT
HETATM    1  C   UNL     1      -4.353   3.926 -31.902  1.00  0.00     0.052 A 
HETATM    2  C   UNL     1      -4.321   2.520 -31.845  1.00  0.00     0.062 A 
HETATM    3 CL   UNL     1      -3.032   1.628 -31.106  1.00  0.00    -0.082 Cl
HETATM    4  C   UNL     1      -5.333   1.747 -32.439  1.00  0.00     0.055 A 
HETATM    5  C   UNL     1      -6.396   2.343 -33.110  1.00  0.00     0.036 A 
HETATM    6  C   UNL     1      -6.366   3.726 -33.289  1.00  0.00     0.032 A 
HETATM    7  C   UNL     1      -5.366   4.502 -32.688  1.00  0.00     0.033 A 
ENDROOT
BRANCH   5   8
HETATM    8  N   UNL     1      -7.507   1.652 -33.640  1.00  0.00    -0.333 N 
HETATM    9  H   UNL     1      -8.017   2.152 -34.372  1.00  0.00     0.168 HD
BRANCH   8  10
HETATM   10  C   UNL     1      -8.143   0.498 -33.240  1.00  0.00     0.179 C 
HETATM   11  S   UNL     1      -9.599   0.292 -32.446  1.00  0.00    -0.040 SA
BRANCH  10  12
HETATM   12  N   UNL     1      -7.487  -0.672 -33.578  1.00  0.00    -0.299 N 
HETATM   13  C   UNL     1      -6.725  -0.979 -34.696  1.00  0.00     0.260 C 
HETATM   14  O   UNL     1      -6.579  -0.230 -35.657  1.00  0.00    -0.267 OA
HETATM   15  H   UNL     1      -7.588  -1.400 -32.878  1.00  0.00     0.171 HD
BRANCH  13  16
HETATM   16  C   UNL     1      -6.150  -2.347 -34.699  1.00  0.00     0.066 A 
HETATM   17  C   UNL     1      -4.895  -2.638 -34.139  1.00  0.00     0.089 A 
HETATM   18  C   UNL     1      -4.451  -3.965 -34.033  1.00  0.00    -0.028 A 
HETATM   19  C   UNL     1      -3.151  -4.297 -33.356  1.00  0.00     0.051 C 
HETATM   20  C   UNL     1      -5.264  -4.991 -34.536  1.00  0.00     0.009 A 
HETATM   21  C   UNL     1      -6.487  -4.700 -35.144  1.00  0.00     0.002 A 
HETATM   22  C   UNL     1      -6.932  -3.381 -35.228  1.00  0.00     0.020 A 
BRANCH  17  23
HETATM   23  O   UNL     1      -4.092  -1.649 -33.626  1.00  0.00    -0.354 OA
HETATM   24  C   UNL     1      -4.213  -1.581 -32.199  1.00  0.00     0.210 C 
ENDBRANCH  17  23
ENDBRANCH  13  16
ENDBRANCH  10  12
ENDBRANCH   8  10
ENDBRANCH   5   8
BRANCH   1  25
HETATM   25  N   UNL     1      -3.523   4.817 -31.217  1.00  0.00    -0.376 N 
HETATM   26  C   UNL     1      -4.084   6.162 -30.985  1.00  0.00     0.143 C 
HETATM   27  C   UNL     1      -3.284   6.877 -29.872  1.00  0.00     0.145 C 
HETATM   28  N   UNL     1      -1.825   6.818 -30.063  1.00  0.00    -0.349 N 
HETATM   29  C   UNL     1      -1.052   7.815 -29.478  1.00  0.00     0.219 C 
HETATM   30  C   UNL     1      -1.296   5.493 -30.430  1.00  0.00     0.145 C 
HETATM   31  O   UNL     1      -1.557   8.796 -28.931  1.00  0.00    -0.273 OA
HETATM   32  C   UNL     1      -2.094   4.852 -31.576  1.00  0.00     0.143 C 
BRANCH  29  33
HETATM   33  C   UNL     1       0.459   7.648 -29.570  1.00  0.00     0.098 C 
HETATM   34  C   UNL     1       1.179   8.109 -28.315  1.00  0.00     0.014 C 
ENDBRANCH  29  33
ENDBRANCH   1  25
TORSDOF 7
ENDMDL
MODEL 4
REMARK VINA RESULT:      -8.0      1.015      1.378
REMARK  7 active torsions:
REMARK  status: ('A' for Active; 'I' for Inactive)
REMARK    1  A    between atoms: C_2  and  C_3 
REMARK       I    between atoms: C_3  and  N_4 
REMARK    2  A    between atoms: N_7  and  C_8 
REMARK    3  A    between atoms: C_12  and  N_13 
REMARK    4  A    between atoms: N_13  and  C_14 
REMARK    5  A    between atoms: C_14  and  N_15 
REMARK       I    between atoms: N_15  and  C_16 
REMARK    6  A    between atoms: C_16  and  C_17 
REMARK    7  A    between atoms: C_18  and  O_19 
ROOT
HETATM    1  C   UNL     1      -5.938   4.290 -30.944  1.00  0.00     0.052 A 
HETATM    2  C   UNL     1      -6.884   4.487 -31.967  1.00  0.00     0.062 A 
HETATM    3 CL   UNL     1      -6.812   5.809 -33.085  1.00  0.00    -0.082 Cl
HETATM    4  C   UNL     1      -7.988   3.631 -32.108  1.00  0.00     0.055 A 
HETATM    5  C   UNL     1      -8.189   2.563 -31.238  1.00  0.00     0.036 A 
HETATM    6  C   UNL     1      -7.334   2.440 -30.143  1.00  0.00     0.032 A 
HETATM    7  C   UNL     1      -6.225   3.284 -30.005  1.00  0.00     0.033 A 
ENDROOT
BRANCH   5   8
HETATM    8  N   UNL     1      -9.205   1.592 -31.371  1.00  0.00    -0.333 N 
HETATM    9  H   UNL     1      -9.795   1.469 -30.544  1.00  0.00     0.168 HD
BRANCH   8  10
HETATM   10  C   UNL     1      -9.451   0.652 -32.346  1.00  0.00     0.179 C 
HETATM   11  S   UNL     1     -10.872   0.277 -33.144  1.00  0.00    -0.040 SA
BRANCH  10  12
HETATM   12  N   UNL     1      -8.342  -0.070 -32.749  1.00  0.00    -0.299 N 
HETATM   13  C   UNL     1      -7.587   0.025 -33.909  1.00  0.00     0.260 C 
HETATM   14  O   UNL     1      -7.861   0.762 -34.851  1.00  0.00    -0.267 OA
HETATM   15  H   UNL     1      -8.053  -0.765 -32.069  1.00  0.00     0.171 HD
BRANCH  13  16
HETATM   16  C   UNL     1      -6.439  -0.912 -33.980  1.00  0.00     0.066 A 
HETATM   17  C   UNL     1      -5.374  -0.870 -33.066  1.00  0.00     0.089 A 
HETATM   18  C   UNL     1      -4.382  -1.862 -33.078  1.00  0.00    -0.028 A 
HETATM   19  C   UNL     1      -3.286  -1.878 -32.049  1.00  0.00     0.051 C 
HETATM   20  C   UNL     1      -4.449  -2.872 -34.049  1.00  0.00     0.009 A 
HETATM   21  C   UNL     1      -5.476  -2.885 -34.996  1.00  0.00     0.002 A 
HETATM   22  C   UNL     1      -6.470  -1.907 -34.965  1.00  0.00     0.020 A 
BRANCH  17  23
HETATM   23  O   UNL     1      -5.298   0.101 -32.096  1.00  0.00    -0.354 OA
HETATM   24  C   UNL     1      -4.560   1.236 -32.566  1.00  0.00     0.210 C 
ENDBRANCH  17  23
ENDBRANCH  13  16
ENDBRANCH  10  12
ENDBRANCH   8  10
ENDBRANCH   5   8
BRANCH   1  25
HETATM   25  N   UNL     1      -4.713   4.946 -30.789  1.00  0.00    -0.376 N 
HETATM   26  C   UNL     1      -4.789   6.322 -30.263  1.00  0.00     0.143 C 
HETATM   27  C   UNL     1      -3.402   6.755 -29.734  1.00  0.00     0.145 C 
HETATM   28  N   UNL     1      -2.302   6.492 -30.677  1.00  0.00    -0.349 N 
HETATM   29  C   UNL     1      -1.156   7.272 -30.574  1.00  0.00     0.219 C 
HETATM   30  C   UNL     1      -2.320   5.157 -31.300  1.00  0.00     0.145 C 
HETATM   31  O   UNL     1      -1.093   8.244 -29.819  1.00  0.00    -0.273 OA
HETATM   32  C   UNL     1      -3.707   4.799 -31.855  1.00  0.00     0.143 C 
BRANCH  29  33
HETATM   33  C   UNL     1       0.017   6.882 -31.463  1.00  0.00     0.098 C 
HETATM   34  C   UNL     1       0.912   5.831 -30.829  1.00  0.00     0.014 C 
ENDBRANCH  29  33
ENDBRANCH   1  25
TORSDOF 7
ENDMDL
MODEL 5
REMARK VINA RESULT:      -8.0      3.014      8.449
REMARK  7 active torsions:
REMARK  status: ('A' for Active; 'I' for Inactive)
REMARK    1  A    between atoms: C_2  and  C_3 
REMARK       I    between atoms: C_3  and  N_4 
REMARK    2  A    between atoms: N_7  and  C_8 
REMARK    3  A    between atoms: C_12  and  N_13 
REMARK    4  A    between atoms: N_13  and  C_14 
REMARK    5  A    between atoms: C_14  and  N_15 
REMARK       I    between atoms: N_15  and  C_16 
REMARK    6  A    between atoms: C_16  and  C_17 
REMARK    7  A    between atoms: C_18  and  O_19 
ROOT
HETATM    1  C   UNL     1      -5.816   0.915 -32.237  1.00  0.00     0.052 A 
HETATM    2  C   UNL     1      -6.446   2.115 -32.612  1.00  0.00     0.062 A 
HETATM    3 CL   UNL     1      -7.034   2.419 -34.214  1.00  0.00    -0.082 Cl
HETATM    4  C   UNL     1      -6.592   3.174 -31.701  1.00  0.00     0.055 A 
HETATM    5  C   UNL     1      -6.113   3.075 -30.398  1.00  0.00     0.036 A 
HETATM    6  C   UNL     1      -5.369   1.945 -30.056  1.00  0.00     0.032 A 
HETATM    7  C   UNL     1      -5.231   0.882 -30.959  1.00  0.00     0.033 A 
ENDROOT
BRANCH   5   8
HETATM    8  N   UNL     1      -6.311   4.041 -29.387  1.00  0.00    -0.333 N 
HETATM    9  H   UNL     1      -7.249   4.051 -28.979  1.00  0.00     0.168 HD
BRANCH   8  10
HETATM   10  C   UNL     1      -5.531   5.092 -28.961  1.00  0.00     0.179 C 
HETATM   11  S   UNL     1      -5.503   5.881 -27.487  1.00  0.00    -0.040 SA
BRANCH  10  12
HETATM   12  N   UNL     1      -4.607   5.542 -29.886  1.00  0.00    -0.299 N 
HETATM   13  C   UNL     1      -4.782   6.332 -31.014  1.00  0.00     0.260 C 
HETATM   14  O   UNL     1      -5.874   6.707 -31.429  1.00  0.00    -0.267 OA
HETATM   15  H   UNL     1      -3.660   5.239 -29.681  1.00  0.00     0.171 HD
BRANCH  13  16
HETATM   16  C   UNL     1      -3.536   6.633 -31.760  1.00  0.00     0.066 A 
HETATM   17  C   UNL     1      -3.033   5.783 -32.760  1.00  0.00     0.089 A 
HETATM   18  C   UNL     1      -1.934   6.172 -33.541  1.00  0.00    -0.028 A 
HETATM   19  C   UNL     1      -1.442   5.312 -34.671  1.00  0.00     0.051 C 
HETATM   20  C   UNL     1      -1.319   7.404 -33.276  1.00  0.00     0.009 A 
HETATM   21  C   UNL     1      -1.783   8.226 -32.246  1.00  0.00     0.002 A 
HETATM   22  C   UNL     1      -2.888   7.842 -31.487  1.00  0.00     0.020 A 
BRANCH  17  23
HETATM   23  O   UNL     1      -3.631   4.579 -33.046  1.00  0.00    -0.354 OA
HETATM   24  C   UNL     1      -2.944   3.501 -32.398  1.00  0.00     0.210 C 
ENDBRANCH  17  23
ENDBRANCH  13  16
ENDBRANCH  10  12
ENDBRANCH   8  10
ENDBRANCH   5   8
BRANCH   1  25
HETATM   25  N   UNL     1      -5.755  -0.273 -32.972  1.00  0.00    -0.376 N 
HETATM   26  C   UNL     1      -7.043  -0.963 -33.176  1.00  0.00     0.143 C 
HETATM   27  C   UNL     1      -6.913  -1.977 -34.336  1.00  0.00     0.145 C 
HETATM   28  N   UNL     1      -5.731  -2.848 -34.230  1.00  0.00    -0.349 N 
HETATM   29  C   UNL     1      -5.776  -4.086 -34.863  1.00  0.00     0.219 C 
HETATM   30  C   UNL     1      -4.475  -2.158 -33.890  1.00  0.00     0.145 C 
HETATM   31  O   UNL     1      -6.807  -4.515 -35.383  1.00  0.00    -0.273 OA
HETATM   32  C   UNL     1      -4.647  -1.204 -32.697  1.00  0.00     0.143 C 
BRANCH  29  33
HETATM   33  C   UNL     1      -4.490  -4.901 -34.858  1.00  0.00     0.098 C 
HETATM   34  C   UNL     1      -4.056  -5.308 -33.461  1.00  0.00     0.014 C 
ENDBRANCH  29  33
ENDBRANCH   1  25
TORSDOF 7
ENDMDL
MODEL 6
REMARK VINA RESULT:      -8.0      2.802      8.799
REMARK  7 active torsions:
REMARK  status: ('A' for Active; 'I' for Inactive)
REMARK    1  A    between atoms: C_2  and  C_3 
REMARK       I    between atoms: C_3  and  N_4 
REMARK    2  A    between atoms: N_7  and  C_8 
REMARK    3  A    between atoms: C_12  and  N_13 
REMARK    4  A    between atoms: N_13  and  C_14 
REMARK    5  A    between atoms: C_14  and  N_15 
REMARK       I    between atoms: N_15  and  C_16 
REMARK    6  A    between atoms: C_16  and  C_17 
REMARK    7  A    between atoms: C_18  and  O_19 
ROOT
HETATM    1  C   UNL     1      -6.096   1.393 -32.182  1.00  0.00     0.052 A 
HETATM    2  C   UNL     1      -6.231   1.536 -30.789  1.00  0.00     0.062 A 
HETATM    3 CL   UNL     1      -6.377   0.192 -29.705  1.00  0.00    -0.082 Cl
HETATM    4  C   UNL     1      -6.305   2.807 -30.194  1.00  0.00     0.055 A 
HETATM    5  C   UNL     1      -6.254   3.967 -30.962  1.00  0.00     0.036 A 
HETATM    6  C   UNL     1      -6.257   3.835 -32.351  1.00  0.00     0.032 A 
HETATM    7  C   UNL     1      -6.171   2.570 -32.947  1.00  0.00     0.033 A 
ENDROOT
BRANCH   5   8
HETATM    8  N   UNL     1      -6.212   5.279 -30.443  1.00  0.00    -0.333 N 
HETATM    9  H   UNL     1      -6.722   5.976 -30.990  1.00  0.00     0.168 HD
BRANCH   8  10
HETATM   10  C   UNL     1      -5.470   5.837 -29.426  1.00  0.00     0.179 C 
HETATM   11  S   UNL     1      -5.945   6.360 -27.911  1.00  0.00    -0.040 SA
BRANCH  10  12
HETATM   12  N   UNL     1      -4.117   5.952 -29.691  1.00  0.00    -0.299 N 
HETATM   13  C   UNL     1      -3.464   6.376 -30.839  1.00  0.00     0.260 C 
HETATM   14  O   UNL     1      -4.030   6.654 -31.891  1.00  0.00    -0.267 OA
HETATM   15  H   UNL     1      -3.534   5.686 -28.903  1.00  0.00     0.171 HD
BRANCH  13  16
HETATM   16  C   UNL     1      -1.983   6.390 -30.742  1.00  0.00     0.066 A 
HETATM   17  C   UNL     1      -1.296   7.203 -29.825  1.00  0.00     0.089 A 
HETATM   18  C   UNL     1       0.093   7.082 -29.664  1.00  0.00    -0.028 A 
HETATM   19  C   UNL     1       0.827   7.882 -28.625  1.00  0.00     0.051 C 
HETATM   20  C   UNL     1       0.788   6.165 -30.466  1.00  0.00     0.009 A 
HETATM   21  C   UNL     1       0.115   5.394 -31.417  1.00  0.00     0.002 A 
HETATM   22  C   UNL     1      -1.268   5.506 -31.558  1.00  0.00     0.020 A 
BRANCH  17  23
HETATM   23  O   UNL     1      -1.960   8.095 -29.019  1.00  0.00    -0.354 OA
HETATM   24  C   UNL     1      -2.156   9.346 -29.693  1.00  0.00     0.210 C 
ENDBRANCH  17  23
ENDBRANCH  13  16
ENDBRANCH  10  12
ENDBRANCH   8  10
ENDBRANCH   5   8
BRANCH   1  25
HETATM   25  N   UNL     1      -5.838   0.215 -32.889  1.00  0.00    -0.376 N 
HETATM   26  C   UNL     1      -7.019  -0.612 -33.202  1.00  0.00     0.143 C 
HETATM   27  C   UNL     1      -6.671  -1.613 -34.328  1.00  0.00     0.145 C 
HETATM   28  N   UNL     1      -5.418  -2.351 -34.095  1.00  0.00    -0.349 N 
HETATM   29  C   UNL     1      -5.270  -3.590 -34.708  1.00  0.00     0.219 C 
HETATM   30  C   UNL     1      -4.282  -1.527 -33.648  1.00  0.00     0.145 C 
HETATM   31  O   UNL     1      -6.193  -4.132 -35.317  1.00  0.00    -0.273 OA
HETATM   32  C   UNL     1      -4.669  -0.590 -32.493  1.00  0.00     0.143 C 
BRANCH  29  33
HETATM   33  C   UNL     1      -3.910  -4.262 -34.568  1.00  0.00     0.098 C 
HETATM   34  C   UNL     1      -3.829  -5.181 -33.361  1.00  0.00     0.014 C 
ENDBRANCH  29  33
ENDBRANCH   1  25
TORSDOF 7
ENDMDL
MODEL 7
REMARK VINA RESULT:      -7.9      2.824      8.940
REMARK  7 active torsions:
REMARK  status: ('A' for Active; 'I' for Inactive)
REMARK    1  A    between atoms: C_2  and  C_3 
REMARK       I    between atoms: C_3  and  N_4 
REMARK    2  A    between atoms: N_7  and  C_8 
REMARK    3  A    between atoms: C_12  and  N_13 
REMARK    4  A    between atoms: N_13  and  C_14 
REMARK    5  A    between atoms: C_14  and  N_15 
REMARK       I    between atoms: N_15  and  C_16 
REMARK    6  A    between atoms: C_16  and  C_17 
REMARK    7  A    between atoms: C_18  and  O_19 
ROOT
HETATM    1  C   UNL     1      -6.077   2.596 -32.790  1.00  0.00     0.052 A 
HETATM    2  C   UNL     1      -6.332   3.167 -31.529  1.00  0.00     0.062 A 
HETATM    3 CL   UNL     1      -6.714   2.231 -30.122  1.00  0.00    -0.082 Cl
HETATM    4  C   UNL     1      -6.337   4.560 -31.352  1.00  0.00     0.055 A 
HETATM    5  C   UNL     1      -6.099   5.424 -32.417  1.00  0.00     0.036 A 
HETATM    6  C   UNL     1      -5.980   4.873 -33.694  1.00  0.00     0.032 A 
HETATM    7  C   UNL     1      -5.962   3.484 -33.873  1.00  0.00     0.033 A 
ENDROOT
BRANCH   5   8
HETATM    8  N   UNL     1      -5.978   6.826 -32.310  1.00  0.00    -0.333 N 
HETATM    9  H   UNL     1      -6.003   7.330 -33.200  1.00  0.00     0.168 HD
BRANCH   8  10
HETATM   10  C   UNL     1      -5.661   7.639 -31.244  1.00  0.00     0.179 C 
HETATM   11  S   UNL     1      -6.621   8.699 -30.379  1.00  0.00    -0.040 SA
BRANCH  10  12
HETATM   12  N   UNL     1      -4.354   7.535 -30.805  1.00  0.00    -0.299 N 
HETATM   13  C   UNL     1      -3.312   8.449 -30.875  1.00  0.00     0.260 C 
HETATM   14  O   UNL     1      -3.381   9.529 -31.453  1.00  0.00    -0.267 OA
HETATM   15  H   UNL     1      -4.155   6.646 -30.357  1.00  0.00     0.171 HD
BRANCH  13  16
HETATM   16  C   UNL     1      -2.040   7.988 -30.266  1.00  0.00     0.066 A 
HETATM   17  C   UNL     1      -1.265   6.960 -30.828  1.00  0.00     0.089 A 
HETATM   18  C   UNL     1      -0.000   6.652 -30.304  1.00  0.00    -0.028 A 
HETATM   19  C   UNL     1       0.877   5.616 -30.950  1.00  0.00     0.051 C 
HETATM   20  C   UNL     1       0.456   7.358 -29.182  1.00  0.00     0.009 A 
HETATM   21  C   UNL     1      -0.336   8.343 -28.587  1.00  0.00     0.002 A 
HETATM   22  C   UNL     1      -1.584   8.657 -29.125  1.00  0.00     0.020 A 
BRANCH  17  23
HETATM   23  O   UNL     1      -1.686   6.268 -31.937  1.00  0.00    -0.354 OA
HETATM   24  C   UNL     1      -1.272   6.929 -33.140  1.00  0.00     0.210 C 
ENDBRANCH  17  23
ENDBRANCH  13  16
ENDBRANCH  10  12
ENDBRANCH   8  10
ENDBRANCH   5   8
BRANCH   1  25
HETATM   25  N   UNL     1      -5.869   1.243 -33.077  1.00  0.00    -0.376 N 
HETATM   26  C   UNL     1      -4.538   0.714 -32.723  1.00  0.00     0.143 C 
HETATM   27  C   UNL     1      -4.587  -0.830 -32.675  1.00  0.00     0.145 C 
HETATM   28  N   UNL     1      -5.223  -1.438 -33.857  1.00  0.00    -0.349 N 
HETATM   29  C   UNL     1      -4.872  -2.743 -34.186  1.00  0.00     0.219 C 
HETATM   30  C   UNL     1      -6.485  -0.808 -34.280  1.00  0.00     0.145 C 
HETATM   31  O   UNL     1      -3.964  -3.340 -33.605  1.00  0.00    -0.273 OA
HETATM   32  C   UNL     1      -6.365   0.722 -34.363  1.00  0.00     0.143 C 
BRANCH  29  33
HETATM   33  C   UNL     1      -5.650  -3.392 -35.321  1.00  0.00     0.098 C 
HETATM   34  C   UNL     1      -6.617  -4.459 -34.837  1.00  0.00     0.014 C 
ENDBRANCH  29  33
ENDBRANCH   1  25
TORSDOF 7
ENDMDL
MODEL 8
REMARK VINA RESULT:      -7.9      5.093      8.984
REMARK  7 active torsions:
REMARK  status: ('A' for Active; 'I' for Inactive)
REMARK    1  A    between atoms: C_2  and  C_3 
REMARK       I    between atoms: C_3  and  N_4 
REMARK    2  A    between atoms: N_7  and  C_8 
REMARK    3  A    between atoms: C_12  and  N_13 
REMARK    4  A    between atoms: N_13  and  C_14 
REMARK    5  A    between atoms: C_14  and  N_15 
REMARK       I    between atoms: N_15  and  C_16 
REMARK    6  A    between atoms: C_16  and  C_17 
REMARK    7  A    between atoms: C_18  and  O_19 
ROOT
HETATM    1  C   UNL     1     -11.844   2.472 -33.322  1.00  0.00     0.052 A 
HETATM    2  C   UNL     1     -11.013   3.465 -33.873  1.00  0.00     0.062 A 
HETATM    3 CL   UNL     1     -11.601   5.003 -34.413  1.00  0.00    -0.082 Cl
HETATM    4  C   UNL     1      -9.640   3.238 -34.062  1.00  0.00     0.055 A 
HETATM    5  C   UNL     1      -9.056   2.023 -33.719  1.00  0.00     0.036 A 
HETATM    6  C   UNL     1      -9.892   0.988 -33.299  1.00  0.00     0.032 A 
HETATM    7  C   UNL     1     -11.260   1.214 -33.098  1.00  0.00     0.033 A 
ENDROOT
BRANCH   5   8
HETATM    8  N   UNL     1      -7.672   1.747 -33.772  1.00  0.00    -0.333 N 
HETATM    9  H   UNL     1      -7.222   1.972 -34.663  1.00  0.00     0.168 HD
BRANCH   8  10
HETATM   10  C   UNL     1      -6.839   1.071 -32.909  1.00  0.00     0.179 C 
HETATM   11  S   UNL     1      -6.204   1.546 -31.437  1.00  0.00    -0.040 SA
BRANCH  10  12
HETATM   12  N   UNL     1      -6.505  -0.210 -33.308  1.00  0.00    -0.299 N 
HETATM   13  C   UNL     1      -6.443  -0.762 -34.580  1.00  0.00     0.260 C 
HETATM   14  O   UNL     1      -6.778  -0.174 -35.603  1.00  0.00    -0.267 OA
HETATM   15  H   UNL     1      -6.264  -0.818 -32.532  1.00  0.00     0.171 HD
BRANCH  13  16
HETATM   16  C   UNL     1      -6.014  -2.182 -34.619  1.00  0.00     0.066 A 
HETATM   17  C   UNL     1      -4.776  -2.609 -34.114  1.00  0.00     0.089 A 
HETATM   18  C   UNL     1      -4.468  -3.976 -34.038  1.00  0.00    -0.028 A 
HETATM   19  C   UNL     1      -3.184  -4.451 -33.417  1.00  0.00     0.051 C 
HETATM   20  C   UNL     1      -5.402  -4.906 -34.518  1.00  0.00     0.009 A 
HETATM   21  C   UNL     1      -6.612  -4.481 -35.073  1.00  0.00     0.002 A 
HETATM   22  C   UNL     1      -6.919  -3.121 -35.127  1.00  0.00     0.020 A 
BRANCH  17  23
HETATM   23  O   UNL     1      -3.854  -1.716 -33.623  1.00  0.00    -0.354 OA
HETATM   24  C   UNL     1      -3.867  -1.703 -32.190  1.00  0.00     0.210 C 
ENDBRANCH  17  23
ENDBRANCH  13  16
ENDBRANCH  10  12
ENDBRANCH   8  10
ENDBRANCH   5   8
BRANCH   1  25
HETATM   25  N   UNL     1     -13.175   2.614 -32.918  1.00  0.00    -0.376 N 
HETATM   26  C   UNL     1     -14.154   1.785 -33.648  1.00  0.00     0.143 C 
HETATM   27  C   UNL     1     -15.469   1.699 -32.840  1.00  0.00     0.145 C 
HETATM   28  N   UNL     1     -15.962   3.006 -32.372  1.00  0.00    -0.349 N 
HETATM   29  C   UNL     1     -17.323   3.137 -32.121  1.00  0.00     0.219 C 
HETATM   30  C   UNL     1     -14.939   3.878 -31.769  1.00  0.00     0.145 C 
HETATM   31  O   UNL     1     -18.127   2.247 -32.402  1.00  0.00    -0.273 OA
HETATM   32  C   UNL     1     -13.676   3.971 -32.638  1.00  0.00     0.143 C 
BRANCH  29  33
HETATM   33  C   UNL     1     -17.779   4.451 -31.501  1.00  0.00     0.098 C 
HETATM   34  C   UNL     1     -18.377   5.406 -32.520  1.00  0.00     0.014 C 
ENDBRANCH  29  33
ENDBRANCH   1  25
TORSDOF 7
ENDMDL
MODEL 9
REMARK VINA RESULT:      -7.7      3.004     10.193
REMARK  7 active torsions:
REMARK  status: ('A' for Active; 'I' for Inactive)
REMARK    1  A    between atoms: C_2  and  C_3 
REMARK       I    between atoms: C_3  and  N_4 
REMARK    2  A    between atoms: N_7  and  C_8 
REMARK    3  A    between atoms: C_12  and  N_13 
REMARK    4  A    between atoms: N_13  and  C_14 
REMARK    5  A    between atoms: C_14  and  N_15 
REMARK       I    between atoms: N_15  and  C_16 
REMARK    6  A    between atoms: C_16  and  C_17 
REMARK    7  A    between atoms: C_18  and  O_19 
ROOT
HETATM    1  C   UNL     1      -4.524   2.107 -31.987  1.00  0.00     0.052 A 
HETATM    2  C   UNL     1      -5.174   2.745 -30.914  1.00  0.00     0.062 A 
HETATM    3 CL   UNL     1      -6.569   2.089 -30.123  1.00  0.00    -0.082 Cl
HETATM    4  C   UNL     1      -4.744   3.999 -30.448  1.00  0.00     0.055 A 
HETATM    5  C   UNL     1      -3.667   4.656 -31.036  1.00  0.00     0.036 A 
HETATM    6  C   UNL     1      -3.103   4.096 -32.183  1.00  0.00     0.032 A 
HETATM    7  C   UNL     1      -3.521   2.841 -32.643  1.00  0.00     0.033 A 
ENDROOT
BRANCH   5   8
HETATM    8  N   UNL     1      -3.101   5.861 -30.566  1.00  0.00    -0.333 N 
HETATM    9  H   UNL     1      -2.187   6.091 -30.962  1.00  0.00     0.168 HD
BRANCH   8  10
HETATM   10  C   UNL     1      -3.469   6.707 -29.544  1.00  0.00     0.179 C 
HETATM   11  S   UNL     1      -4.980   7.280 -29.114  1.00  0.00    -0.040 SA
BRANCH  10  12
HETATM   12  N   UNL     1      -2.430   7.120 -28.730  1.00  0.00    -0.299 N 
HETATM   13  C   UNL     1      -1.164   7.582 -29.062  1.00  0.00     0.260 C 
HETATM   14  O   UNL     1      -0.722   7.619 -30.205  1.00  0.00    -0.267 OA
HETATM   15  H   UNL     1      -2.657   7.075 -27.742  1.00  0.00     0.171 HD
BRANCH  13  16
HETATM   16  C   UNL     1      -0.318   7.960 -27.903  1.00  0.00     0.066 A 
HETATM   17  C   UNL     1      -0.736   8.892 -26.938  1.00  0.00     0.089 A 
HETATM   18  C   UNL     1       0.029   9.115 -25.782  1.00  0.00    -0.028 A 
HETATM   19  C   UNL     1      -0.451  10.042 -24.701  1.00  0.00     0.051 C 
HETATM   20  C   UNL     1       1.239   8.424 -25.630  1.00  0.00     0.009 A 
HETATM   21  C   UNL     1       1.685   7.538 -26.615  1.00  0.00     0.002 A 
HETATM   22  C   UNL     1       0.910   7.307 -27.751  1.00  0.00     0.020 A 
BRANCH  17  23
HETATM   23  O   UNL     1      -1.927   9.567 -27.059  1.00  0.00    -0.354 OA
HETATM   24  C   UNL     1      -1.768  10.741 -27.866  1.00  0.00     0.210 C 
ENDBRANCH  17  23
ENDBRANCH  13  16
ENDBRANCH  10  12
ENDBRANCH   8  10
ENDBRANCH   5   8
BRANCH   1  25
HETATM   25  N   UNL     1      -4.726   0.799 -32.438  1.00  0.00    -0.376 N 
HETATM   26  C   UNL     1      -3.507   0.063 -32.826  1.00  0.00     0.143 C 
HETATM   27  C   UNL     1      -3.806  -1.452 -32.875  1.00  0.00     0.145 C 
HETATM   28  N   UNL     1      -5.024  -1.791 -33.630  1.00  0.00    -0.349 N 
HETATM   29  C   UNL     1      -5.114  -3.063 -34.184  1.00  0.00     0.219 C 
HETATM   30  C   UNL     1      -6.197  -0.954 -33.328  1.00  0.00     0.145 C 
HETATM   31  O   UNL     1      -4.164  -3.848 -34.173  1.00  0.00    -0.273 OA
HETATM   32  C   UNL     1      -5.857   0.544 -33.346  1.00  0.00     0.143 C 
BRANCH  29  33
HETATM   33  C   UNL     1      -6.441  -3.432 -34.832  1.00  0.00     0.098 C 
HETATM   34  C   UNL     1      -6.373  -4.733 -35.614  1.00  0.00     0.014 C 
ENDBRANCH  29  33
ENDBRANCH   1  25
TORSDOF 7
ENDMDL
MODEL 10
REMARK VINA RESULT:      -7.7      2.403      3.790
REMARK  7 active torsions:
REMARK  status: ('A' for Active; 'I' for Inactive)
REMARK    1  A    between atoms: C_2  and  C_3 
REMARK       I    between atoms: C_3  and  N_4 
REMARK    2  A    between atoms: N_7  and  C_8 
REMARK    3  A    between atoms: C_12  and  N_13 
REMARK    4  A    between atoms: N_13  and  C_14 
REMARK    5  A    between atoms: C_14  and  N_15 
REMARK       I    between atoms: N_15  and  C_16 
REMARK    6  A    between atoms: C_16  and  C_17 
REMARK    7  A    between atoms: C_18  and  O_19 
ROOT
HETATM    1  C   UNL     1      -3.072   6.899 -31.581  1.00  0.00     0.052 A 
HETATM    2  C   UNL     1      -2.641   6.478 -32.852  1.00  0.00     0.062 A 
HETATM    3 CL   UNL     1      -1.020   6.693 -33.425  1.00  0.00    -0.082 Cl
HETATM    4  C   UNL     1      -3.535   5.891 -33.763  1.00  0.00     0.055 A 
HETATM    5  C   UNL     1      -4.878   5.712 -33.443  1.00  0.00     0.036 A 
HETATM    6  C   UNL     1      -5.342   6.247 -32.242  1.00  0.00     0.032 A 
HETATM    7  C   UNL     1      -4.452   6.823 -31.326  1.00  0.00     0.033 A 
ENDROOT
BRANCH   5   8
HETATM    8  N   UNL     1      -5.818   5.036 -34.250  1.00  0.00    -0.333 N 
HETATM    9  H   UNL     1      -5.926   5.413 -35.195  1.00  0.00     0.168 HD
BRANCH   8  10
HETATM   10  C   UNL     1      -6.747   4.064 -33.954  1.00  0.00     0.179 C 
HETATM   11  S   UNL     1      -8.404   4.184 -33.763  1.00  0.00    -0.040 SA
BRANCH  10  12
HETATM   12  N   UNL     1      -6.231   2.787 -33.827  1.00  0.00    -0.299 N 
HETATM   13  C   UNL     1      -5.721   2.136 -32.713  1.00  0.00     0.260 C 
HETATM   14  O   UNL     1      -5.569   2.664 -31.616  1.00  0.00    -0.267 OA
HETATM   15  H   UNL     1      -6.247   2.265 -34.697  1.00  0.00     0.171 HD
BRANCH  13  16
HETATM   16  C   UNL     1      -5.276   0.742 -32.959  1.00  0.00     0.066 A 
HETATM   17  C   UNL     1      -6.081  -0.200 -33.620  1.00  0.00     0.089 A 
HETATM   18  C   UNL     1      -5.571  -1.462 -33.961  1.00  0.00    -0.028 A 
HETATM   19  C   UNL     1      -6.392  -2.446 -34.747  1.00  0.00     0.051 C 
HETATM   20  C   UNL     1      -4.257  -1.782 -33.590  1.00  0.00     0.009 A 
HETATM   21  C   UNL     1      -3.472  -0.867 -32.883  1.00  0.00     0.002 A 
HETATM   22  C   UNL     1      -3.980   0.393 -32.565  1.00  0.00     0.020 A 
BRANCH  17  23
HETATM   23  O   UNL     1      -7.365   0.099 -34.007  1.00  0.00    -0.354 OA
HETATM   24  C   UNL     1      -8.277  -0.049 -32.911  1.00  0.00     0.210 C 
ENDBRANCH  17  23
ENDBRANCH  13  16
ENDBRANCH  10  12
ENDBRANCH   8  10
ENDBRANCH   5   8
BRANCH   1  25
HETATM   25  N   UNL     1      -2.273   7.333 -30.519  1.00  0.00    -0.376 N 
HETATM   26  C   UNL     1      -2.071   8.792 -30.427  1.00  0.00     0.143 C 
HETATM   27  C   UNL     1      -1.567   9.160 -29.014  1.00  0.00     0.145 C 
HETATM   28  N   UNL     1      -0.441   8.330 -28.553  1.00  0.00    -0.349 N 
HETATM   29  C   UNL     1       0.414   8.866 -27.596  1.00  0.00     0.219 C 
HETATM   30  C   UNL     1      -0.600   6.883 -28.778  1.00  0.00     0.145 C 
HETATM   31  O   UNL     1       0.332  10.040 -27.232  1.00  0.00    -0.273 OA
HETATM   32  C   UNL     1      -1.050   6.569 -30.213  1.00  0.00     0.143 C 
BRANCH  29  33
HETATM   33  C   UNL     1       1.478   7.933 -27.034  1.00  0.00     0.098 C 
HETATM   34  C   UNL     1       2.028   8.403 -25.699  1.00  0.00     0.014 C 
ENDBRANCH  29  33
ENDBRANCH   1  25
TORSDOF 7
ENDMDL
