MODEL 1
REMARK VINA RESULT:      -9.5      0.000      0.000
REMARK  6 active torsions:
REMARK  status: ('A' for Active; 'I' for Inactive)
REMARK    1  A    between atoms: C_2  and  C_3 
REMARK    2  A    between atoms: C_7  and  C_8 
REMARK       I    between atoms: C_8  and  N_9 
REMARK    3  A    between atoms: N_9  and  C_10 
REMARK    4  A    between atoms: C_12  and  N_13 
REMARK       I    between atoms: N_13  and  C_14 
REMARK    5  A    between atoms: C_14  and  C_15 
REMARK    6  A    between atoms: C_23  and  O_24 
ROOT
HETATM    1  C   UNL     1      -5.853   3.620 -33.578  1.00  0.00     0.037 A 
HETATM    2  C   UNL     1      -5.654   2.239 -33.705  1.00  0.00     0.062 A 
HETATM    3  C   UNL     1      -6.727   1.382 -33.967  1.00  0.00     0.070 A 
HETATM    4  C   UNL     1      -8.031   1.907 -34.072  1.00  0.00     0.095 A 
HETATM    5  C   UNL     1      -8.233   3.279 -33.917  1.00  0.00     0.041 A 
HETATM    6  C   UNL     1      -7.147   4.130 -33.677  1.00  0.00     0.032 A 
ENDROOT
BRANCH   1   7
HETATM    7  N   UNL     1      -4.710   4.415 -33.352  1.00  0.00    -0.322 N 
HETATM    8  C   UNL     1      -4.014   5.168 -34.276  1.00  0.00     0.274 C 
HETATM    9  O   UNL     1      -4.253   5.216 -35.478  1.00  0.00    -0.266 OA
HETATM   10  H   UNL     1      -4.297   4.336 -32.432  1.00  0.00     0.169 HD
BRANCH   8  11
HETATM   11  C   UNL     1      -2.892   5.887 -33.723  1.00  0.00     0.120 A 
HETATM   12  N   UNL     1      -2.330   6.948 -34.380  1.00  0.00    -0.273 N 
HETATM   13  N   UNL     1      -1.289   7.503 -33.739  1.00  0.00    -0.179 NA
HETATM   14  H   UNL     1      -2.615   7.327 -35.278  1.00  0.00     0.189 HD
HETATM   15  C   UNL     1      -1.196   6.801 -32.604  1.00  0.00     0.056 A 
HETATM   16  C   UNL     1      -2.173   5.777 -32.548  1.00  0.00     0.065 A 
BRANCH  15  17
HETATM   17  C   UNL     1      -0.170   7.149 -31.579  1.00  0.00     0.056 C 
HETATM   18  C   UNL     1       0.470   5.923 -30.949  1.00  0.00     0.011 C 
ENDBRANCH  15  17
ENDBRANCH   8  11
ENDBRANCH   1   7
BRANCH   3  19
HETATM   19  N   UNL     1      -6.578  -0.007 -34.190  1.00  0.00    -0.320 N 
HETATM   20  C   UNL     1      -6.046  -0.952 -33.339  1.00  0.00     0.256 C 
HETATM   21  O   UNL     1      -5.765  -0.793 -32.157  1.00  0.00    -0.267 OA
HETATM   22  H   UNL     1      -6.921  -0.301 -35.099  1.00  0.00     0.169 HD
BRANCH  20  23
HETATM   23  C   UNL     1      -5.816  -2.295 -33.947  1.00  0.00     0.035 A 
HETATM   24  C   UNL     1      -4.581  -2.945 -33.846  1.00  0.00     0.059 A 
HETATM   25  C   UNL     1      -4.434  -4.215 -34.393  1.00  0.00     0.117 A 
HETATM   26  F   UNL     1      -3.252  -4.838 -34.292  1.00  0.00    -0.206 F 
HETATM   27  C   UNL     1      -5.491  -4.855 -35.031  1.00  0.00     0.042 A 
HETATM   28  C   UNL     1      -6.727  -4.217 -35.121  1.00  0.00     0.004 A 
HETATM   29  C   UNL     1      -6.890  -2.941 -34.576  1.00  0.00     0.017 A 
ENDBRANCH  20  23
ENDBRANCH   3  19
BRANCH   4  30
HETATM   30  O   UNL     1      -9.019   0.987 -34.338  1.00  0.00    -0.354 OA
HETATM   31  C   UNL     1     -10.043   0.842 -33.360  1.00  0.00     0.210 C 
ENDBRANCH   4  30
TORSDOF 6
ENDMDL
MODEL 2
REMARK VINA RESULT:      -9.1      2.781      3.505
REMARK  6 active torsions:
REMARK  status: ('A' for Active; 'I' for Inactive)
REMARK    1  A    between atoms: C_2  and  C_3 
REMARK    2  A    between atoms: C_7  and  C_8 
REMARK       I    between atoms: C_8  and  N_9 
REMARK    3  A    between atoms: N_9  and  C_10 
REMARK    4  A    between atoms: C_12  and  N_13 
REMARK       I    between atoms: N_13  and  C_14 
REMARK    5  A    between atoms: C_14  and  C_15 
REMARK    6  A    between atoms: C_23  and  O_24 
ROOT
HETATM    1  C   UNL     1      -3.728   4.211 -31.631  1.00  0.00     0.037 A 
HETATM    2  C   UNL     1      -3.701   2.815 -31.745  1.00  0.00     0.062 A 
HETATM    3  C   UNL     1      -4.655   2.140 -32.512  1.00  0.00     0.070 A 
HETATM    4  C   UNL     1      -5.678   2.868 -33.154  1.00  0.00     0.095 A 
HETATM    5  C   UNL     1      -5.722   4.256 -33.016  1.00  0.00     0.041 A 
HETATM    6  C   UNL     1      -4.747   4.922 -32.264  1.00  0.00     0.032 A 
ENDROOT
BRANCH   1   7
HETATM    7  N   UNL     1      -2.705   4.812 -30.870  1.00  0.00    -0.322 N 
HETATM    8  C   UNL     1      -1.403   5.060 -31.257  1.00  0.00     0.274 C 
HETATM    9  O   UNL     1      -0.908   4.735 -32.330  1.00  0.00    -0.266 OA
HETATM   10  H   UNL     1      -2.926   4.981 -29.897  1.00  0.00     0.169 HD
BRANCH   8  11
HETATM   11  C   UNL     1      -0.603   5.709 -30.247  1.00  0.00     0.120 A 
HETATM   12  N   UNL     1       0.116   4.987 -29.332  1.00  0.00    -0.273 N 
HETATM   13  N   UNL     1       0.799   5.738 -28.454  1.00  0.00    -0.179 NA
HETATM   14  H   UNL     1       0.164   3.975 -29.259  1.00  0.00     0.189 HD
HETATM   15  C   UNL     1       0.546   6.995 -28.836  1.00  0.00     0.056 A 
HETATM   16  C   UNL     1      -0.328   7.030 -29.950  1.00  0.00     0.065 A 
BRANCH  15  17
HETATM   17  C   UNL     1       1.176   8.145 -28.125  1.00  0.00     0.056 C 
HETATM   18  C   UNL     1       1.586   7.801 -26.702  1.00  0.00     0.011 C 
ENDBRANCH  15  17
ENDBRANCH   8  11
ENDBRANCH   1   7
BRANCH   3  19
HETATM   19  N   UNL     1      -4.630   0.743 -32.735  1.00  0.00    -0.320 N 
HETATM   20  C   UNL     1      -4.136  -0.241 -31.905  1.00  0.00     0.256 C 
HETATM   21  O   UNL     1      -3.787  -0.103 -30.738  1.00  0.00    -0.267 OA
HETATM   22  H   UNL     1      -5.039   0.476 -33.624  1.00  0.00     0.169 HD
BRANCH  20  23
HETATM   23  C   UNL     1      -4.045  -1.599 -32.516  1.00  0.00     0.035 A 
HETATM   24  C   UNL     1      -4.662  -1.898 -33.735  1.00  0.00     0.059 A 
HETATM   25  C   UNL     1      -4.508  -3.167 -34.283  1.00  0.00     0.117 A 
HETATM   26  F   UNL     1      -5.096  -3.450 -35.453  1.00  0.00    -0.206 F 
HETATM   27  C   UNL     1      -3.748  -4.142 -33.647  1.00  0.00     0.042 A 
HETATM   28  C   UNL     1      -3.120  -3.844 -32.439  1.00  0.00     0.004 A 
HETATM   29  C   UNL     1      -3.264  -2.573 -31.876  1.00  0.00     0.017 A 
ENDBRANCH  20  23
ENDBRANCH   3  19
BRANCH   4  30
HETATM   30  O   UNL     1      -6.565   2.118 -33.891  1.00  0.00    -0.354 OA
HETATM   31  C   UNL     1      -7.950   2.391 -33.703  1.00  0.00     0.210 C 
ENDBRANCH   4  30
TORSDOF 6
ENDMDL
MODEL 3
REMARK VINA RESULT:      -8.7      2.225      2.389
REMARK  6 active torsions:
REMARK  status: ('A' for Active; 'I' for Inactive)
REMARK    1  A    between atoms: C_2  and  C_3 
REMARK    2  A    between atoms: C_7  and  C_8 
REMARK       I    between atoms: C_8  and  N_9 
REMARK    3  A    between atoms: N_9  and  C_10 
REMARK    4  A    between atoms: C_12  and  N_13 
REMARK       I    between atoms: N_13  and  C_14 
REMARK    5  A    between atoms: C_14  and  C_15 
REMARK    6  A    between atoms: C_23  and  O_24 
ROOT
HETATM    1  C   UNL     1      -5.148   3.159 -30.771  1.00  0.00     0.037 A 
HETATM    2  C   UNL     1      -4.832   1.945 -31.396  1.00  0.00     0.062 A 
HETATM    3  C   UNL     1      -5.820   0.989 -31.646  1.00  0.00     0.070 A 
HETATM    4  C   UNL     1      -7.146   1.231 -31.235  1.00  0.00     0.095 A 
HETATM    5  C   UNL     1      -7.456   2.427 -30.586  1.00  0.00     0.041 A 
HETATM    6  C   UNL     1      -6.462   3.387 -30.363  1.00  0.00     0.032 A 
ENDROOT
BRANCH   1   7
HETATM    7  N   UNL     1      -4.098   4.082 -30.594  1.00  0.00    -0.322 N 
HETATM    8  C   UNL     1      -3.676   5.056 -31.477  1.00  0.00     0.274 C 
HETATM    9  O   UNL     1      -4.123   5.234 -32.604  1.00  0.00    -0.266 OA
HETATM   10  H   UNL     1      -3.525   3.941 -29.772  1.00  0.00     0.169 HD
BRANCH   8  11
HETATM   11  C   UNL     1      -2.579   5.857 -30.989  1.00  0.00     0.120 A 
HETATM   12  N   UNL     1      -1.389   5.923 -31.661  1.00  0.00    -0.273 N 
HETATM   13  N   UNL     1      -0.468   6.702 -31.072  1.00  0.00    -0.179 NA
HETATM   14  H   UNL     1      -1.150   5.445 -32.524  1.00  0.00     0.189 HD
HETATM   15  C   UNL     1      -1.096   7.191 -29.997  1.00  0.00     0.056 A 
HETATM   16  C   UNL     1      -2.417   6.690 -29.898  1.00  0.00     0.065 A 
BRANCH  15  17
HETATM   17  C   UNL     1      -0.409   8.157 -29.091  1.00  0.00     0.056 C 
HETATM   18  C   UNL     1       0.821   7.563 -28.424  1.00  0.00     0.011 C 
ENDBRANCH  15  17
ENDBRANCH   8  11
ENDBRANCH   1   7
BRANCH   3  19
HETATM   19  N   UNL     1      -5.579  -0.215 -32.348  1.00  0.00    -0.320 N 
HETATM   20  C   UNL     1      -5.829  -0.489 -33.677  1.00  0.00     0.256 C 
HETATM   21  O   UNL     1      -6.142   0.320 -34.541  1.00  0.00    -0.267 OA
HETATM   22  H   UNL     1      -5.168  -0.938 -31.766  1.00  0.00     0.169 HD
BRANCH  20  23
HETATM   23  C   UNL     1      -5.678  -1.921 -34.068  1.00  0.00     0.035 A 
HETATM   24  C   UNL     1      -4.472  -2.607 -33.892  1.00  0.00     0.059 A 
HETATM   25  C   UNL     1      -4.398  -3.954 -34.232  1.00  0.00     0.117 A 
HETATM   26  F   UNL     1      -3.243  -4.610 -34.058  1.00  0.00    -0.206 F 
HETATM   27  C   UNL     1      -5.501  -4.633 -34.736  1.00  0.00     0.042 A 
HETATM   28  C   UNL     1      -6.709  -3.957 -34.899  1.00  0.00     0.004 A 
HETATM   29  C   UNL     1      -6.799  -2.605 -34.562  1.00  0.00     0.017 A 
ENDBRANCH  20  23
ENDBRANCH   3  19
BRANCH   4  30
HETATM   30  O   UNL     1      -8.048   0.235 -31.530  1.00  0.00    -0.354 OA
HETATM   31  C   UNL     1      -9.208   0.614 -32.264  1.00  0.00     0.210 C 
ENDBRANCH   4  30
TORSDOF 6
ENDMDL
MODEL 4
REMARK VINA RESULT:      -8.6      3.857      7.935
REMARK  6 active torsions:
REMARK  status: ('A' for Active; 'I' for Inactive)
REMARK    1  A    between atoms: C_2  and  C_3 
REMARK    2  A    between atoms: C_7  and  C_8 
REMARK       I    between atoms: C_8  and  N_9 
REMARK    3  A    between atoms: N_9  and  C_10 
REMARK    4  A    between atoms: C_12  and  N_13 
REMARK       I    between atoms: N_13  and  C_14 
REMARK    5  A    between atoms: C_14  and  C_15 
REMARK    6  A    between atoms: C_23  and  O_24 
ROOT
HETATM    1  C   UNL     1      -9.352   2.082 -32.279  1.00  0.00     0.037 A 
HETATM    2  C   UNL     1      -8.741   0.912 -32.747  1.00  0.00     0.062 A 
HETATM    3  C   UNL     1      -7.349   0.776 -32.734  1.00  0.00     0.070 A 
HETATM    4  C   UNL     1      -6.548   1.842 -32.277  1.00  0.00     0.095 A 
HETATM    5  C   UNL     1      -7.156   3.019 -31.839  1.00  0.00     0.041 A 
HETATM    6  C   UNL     1      -8.551   3.133 -31.835  1.00  0.00     0.032 A 
ENDROOT
BRANCH   1   7
HETATM    7  N   UNL     1     -10.762   2.119 -32.291  1.00  0.00    -0.322 N 
HETATM    8  C   UNL     1     -11.581   2.657 -33.263  1.00  0.00     0.274 C 
HETATM    9  O   UNL     1     -11.198   3.253 -34.264  1.00  0.00    -0.266 OA
HETATM   10  H   UNL     1     -11.214   1.810 -31.441  1.00  0.00     0.169 HD
BRANCH   8  11
HETATM   11  C   UNL     1     -12.990   2.519 -32.987  1.00  0.00     0.120 A 
HETATM   12  N   UNL     1     -13.711   1.458 -33.467  1.00  0.00    -0.273 N 
HETATM   13  N   UNL     1     -15.010   1.481 -33.132  1.00  0.00    -0.179 NA
HETATM   14  H   UNL     1     -13.363   0.696 -34.040  1.00  0.00     0.189 HD
HETATM   15  C   UNL     1     -15.131   2.576 -32.372  1.00  0.00     0.056 A 
HETATM   16  C   UNL     1     -13.897   3.261 -32.256  1.00  0.00     0.065 A 
BRANCH  15  17
HETATM   17  C   UNL     1     -16.441   2.929 -31.753  1.00  0.00     0.056 C 
HETATM   18  C   UNL     1     -17.617   2.667 -32.680  1.00  0.00     0.011 C 
ENDBRANCH  15  17
ENDBRANCH   8  11
ENDBRANCH   1   7
BRANCH   3  19
HETATM   19  N   UNL     1      -6.679  -0.411 -33.112  1.00  0.00    -0.320 N 
HETATM   20  C   UNL     1      -6.526  -0.934 -34.379  1.00  0.00     0.256 C 
HETATM   21  O   UNL     1      -6.790  -0.374 -35.436  1.00  0.00    -0.267 OA
HETATM   22  H   UNL     1      -6.272  -0.904 -32.324  1.00  0.00     0.169 HD
BRANCH  20  23
HETATM   23  C   UNL     1      -5.966  -2.316 -34.430  1.00  0.00     0.035 A 
HETATM   24  C   UNL     1      -4.685  -2.608 -33.947  1.00  0.00     0.059 A 
HETATM   25  C   UNL     1      -4.229  -3.921 -33.978  1.00  0.00     0.117 A 
HETATM   26  F   UNL     1      -3.004  -4.199 -33.512  1.00  0.00    -0.206 F 
HETATM   27  C   UNL     1      -5.022  -4.951 -34.471  1.00  0.00     0.042 A 
HETATM   28  C   UNL     1      -6.304  -4.667 -34.940  1.00  0.00     0.004 A 
HETATM   29  C   UNL     1      -6.777  -3.353 -34.915  1.00  0.00     0.017 A 
ENDBRANCH  20  23
ENDBRANCH   3  19
BRANCH   4  30
HETATM   30  O   UNL     1      -5.191   1.612 -32.297  1.00  0.00    -0.354 OA
HETATM   31  C   UNL     1      -4.376   2.507 -31.546  1.00  0.00     0.210 C 
ENDBRANCH   4  30
TORSDOF 6
ENDMDL
MODEL 5
REMARK VINA RESULT:      -8.5      2.001      2.339
REMARK  6 active torsions:
REMARK  status: ('A' for Active; 'I' for Inactive)
REMARK    1  A    between atoms: C_2  and  C_3 
REMARK    2  A    between atoms: C_7  and  C_8 
REMARK       I    between atoms: C_8  and  N_9 
REMARK    3  A    between atoms: N_9  and  C_10 
REMARK    4  A    between atoms: C_12  and  N_13 
REMARK       I    between atoms: N_13  and  C_14 
REMARK    5  A    between atoms: C_14  and  C_15 
REMARK    6  A    between atoms: C_23  and  O_24 
ROOT
HETATM    1  C   UNL     1      -5.019   3.362 -32.533  1.00  0.00     0.037 A 
HETATM    2  C   UNL     1      -4.891   1.968 -32.560  1.00  0.00     0.062 A 
HETATM    3  C   UNL     1      -5.800   1.179 -33.272  1.00  0.00     0.070 A 
HETATM    4  C   UNL     1      -6.877   1.790 -33.945  1.00  0.00     0.095 A 
HETATM    5  C   UNL     1      -7.021   3.177 -33.893  1.00  0.00     0.041 A 
HETATM    6  C   UNL     1      -6.091   3.957 -33.196  1.00  0.00     0.032 A 
ENDROOT
BRANCH   1   7
HETATM    7  N   UNL     1      -4.036   4.083 -31.822  1.00  0.00    -0.322 N 
HETATM    8  C   UNL     1      -3.036   4.878 -32.343  1.00  0.00     0.274 C 
HETATM    9  O   UNL     1      -2.806   5.040 -33.537  1.00  0.00    -0.266 OA
HETATM   10  H   UNL     1      -3.999   3.907 -30.826  1.00  0.00     0.169 HD
BRANCH   8  11
HETATM   11  C   UNL     1      -2.197   5.496 -31.346  1.00  0.00     0.120 A 
HETATM   12  N   UNL     1      -1.123   4.839 -30.807  1.00  0.00    -0.273 N 
HETATM   13  N   UNL     1      -0.451   5.545 -29.886  1.00  0.00    -0.179 NA
HETATM   14  H   UNL     1      -0.814   3.897 -31.030  1.00  0.00     0.189 HD
HETATM   15  C   UNL     1      -1.088   6.722 -29.851  1.00  0.00     0.056 A 
HETATM   16  C   UNL     1      -2.188   6.740 -30.742  1.00  0.00     0.065 A 
BRANCH  15  17
HETATM   17  C   UNL     1      -0.603   7.820 -28.966  1.00  0.00     0.056 C 
HETATM   18  C   UNL     1       0.863   7.668 -28.591  1.00  0.00     0.011 C 
ENDBRANCH  15  17
ENDBRANCH   8  11
ENDBRANCH   1   7
BRANCH   3  19
HETATM   19  N   UNL     1      -5.675  -0.223 -33.408  1.00  0.00    -0.320 N 
HETATM   20  C   UNL     1      -4.518  -0.971 -33.475  1.00  0.00     0.256 C 
HETATM   21  O   UNL     1      -3.380  -0.576 -33.250  1.00  0.00    -0.267 OA
HETATM   22  H   UNL     1      -6.571  -0.698 -33.455  1.00  0.00     0.169 HD
BRANCH  20  23
HETATM   23  C   UNL     1      -4.710  -2.403 -33.847  1.00  0.00     0.035 A 
HETATM   24  C   UNL     1      -5.801  -2.822 -34.615  1.00  0.00     0.059 A 
HETATM   25  C   UNL     1      -5.909  -4.162 -34.972  1.00  0.00     0.117 A 
HETATM   26  F   UNL     1      -6.952  -4.561 -35.711  1.00  0.00    -0.206 F 
HETATM   27  C   UNL     1      -4.949  -5.092 -34.587  1.00  0.00     0.042 A 
HETATM   28  C   UNL     1      -3.852  -4.676 -33.834  1.00  0.00     0.004 A 
HETATM   29  C   UNL     1      -3.730  -3.333 -33.468  1.00  0.00     0.017 A 
ENDBRANCH  20  23
ENDBRANCH   3  19
BRANCH   4  30
HETATM   30  O   UNL     1      -7.714   0.933 -34.623  1.00  0.00    -0.354 OA
HETATM   31  C   UNL     1      -9.073   0.891 -34.200  1.00  0.00     0.210 C 
ENDBRANCH   4  30
TORSDOF 6
ENDMDL
MODEL 6
REMARK VINA RESULT:      -8.2      2.961      4.943
REMARK  6 active torsions:
REMARK  status: ('A' for Active; 'I' for Inactive)
REMARK    1  A    between atoms: C_2  and  C_3 
REMARK    2  A    between atoms: C_7  and  C_8 
REMARK       I    between atoms: C_8  and  N_9 
REMARK    3  A    between atoms: N_9  and  C_10 
REMARK    4  A    between atoms: C_12  and  N_13 
REMARK       I    between atoms: N_13  and  C_14 
REMARK    5  A    between atoms: C_14  and  C_15 
REMARK    6  A    between atoms: C_23  and  O_24 
ROOT
HETATM    1  C   UNL     1      -3.892   1.759 -32.139  1.00  0.00     0.037 A 
HETATM    2  C   UNL     1      -5.206   2.021 -32.549  1.00  0.00     0.062 A 
HETATM    3  C   UNL     1      -6.028   0.992 -33.020  1.00  0.00     0.070 A 
HETATM    4  C   UNL     1      -5.520  -0.319 -33.116  1.00  0.00     0.095 A 
HETATM    5  C   UNL     1      -4.202  -0.574 -32.735  1.00  0.00     0.041 A 
HETATM    6  C   UNL     1      -3.396   0.460 -32.243  1.00  0.00     0.032 A 
ENDROOT
BRANCH   1   7
HETATM    7  N   UNL     1      -3.147   2.848 -31.641  1.00  0.00    -0.322 N 
HETATM    8  C   UNL     1      -2.697   3.950 -32.340  1.00  0.00     0.274 C 
HETATM    9  O   UNL     1      -2.831   4.128 -33.546  1.00  0.00    -0.266 OA
HETATM   10  H   UNL     1      -2.816   2.753 -30.689  1.00  0.00     0.169 HD
BRANCH   8  11
HETATM   11  C   UNL     1      -1.973   4.902 -31.535  1.00  0.00     0.120 A 
HETATM   12  N   UNL     1      -2.600   5.650 -30.576  1.00  0.00    -0.273 N 
HETATM   13  N   UNL     1      -1.790   6.497 -29.921  1.00  0.00    -0.179 NA
HETATM   14  H   UNL     1      -3.587   5.628 -30.336  1.00  0.00     0.189 HD
HETATM   15  C   UNL     1      -0.582   6.262 -30.447  1.00  0.00     0.056 A 
HETATM   16  C   UNL     1      -0.644   5.276 -31.463  1.00  0.00     0.065 A 
BRANCH  15  17
HETATM   17  C   UNL     1       0.620   6.985 -29.940  1.00  0.00     0.056 C 
HETATM   18  C   UNL     1       0.434   7.510 -28.525  1.00  0.00     0.011 C 
ENDBRANCH  15  17
ENDBRANCH   8  11
ENDBRANCH   1   7
BRANCH   3  19
HETATM   19  N   UNL     1      -7.386   1.178 -33.367  1.00  0.00    -0.320 N 
HETATM   20  C   UNL     1      -8.485   1.172 -32.532  1.00  0.00     0.256 C 
HETATM   21  O   UNL     1      -8.470   1.182 -31.308  1.00  0.00    -0.267 OA
HETATM   22  H   UNL     1      -7.524   1.335 -34.360  1.00  0.00     0.169 HD
BRANCH  20  23
HETATM   23  C   UNL     1      -9.806   1.168 -33.225  1.00  0.00     0.035 A 
HETATM   24  C   UNL     1     -10.756   0.168 -32.988  1.00  0.00     0.059 A 
HETATM   25  C   UNL     1     -11.990   0.236 -33.627  1.00  0.00     0.117 A 
HETATM   26  F   UNL     1     -12.900  -0.719 -33.396  1.00  0.00    -0.206 F 
HETATM   27  C   UNL     1     -12.301   1.282 -34.489  1.00  0.00     0.042 A 
HETATM   28  C   UNL     1     -11.363   2.287 -34.717  1.00  0.00     0.004 A 
HETATM   29  C   UNL     1     -10.119   2.233 -34.082  1.00  0.00     0.017 A 
ENDBRANCH  20  23
ENDBRANCH   3  19
BRANCH   4  30
HETATM   30  O   UNL     1      -6.404  -1.263 -33.584  1.00  0.00    -0.354 OA
HETATM   31  C   UNL     1      -5.968  -2.069 -34.673  1.00  0.00     0.210 C 
ENDBRANCH   4  30
TORSDOF 6
ENDMDL
MODEL 7
REMARK VINA RESULT:      -8.2      4.090      7.364
REMARK  6 active torsions:
REMARK  status: ('A' for Active; 'I' for Inactive)
REMARK    1  A    between atoms: C_2  and  C_3 
REMARK    2  A    between atoms: C_7  and  C_8 
REMARK       I    between atoms: C_8  and  N_9 
REMARK    3  A    between atoms: N_9  and  C_10 
REMARK    4  A    between atoms: C_12  and  N_13 
REMARK       I    between atoms: N_13  and  C_14 
REMARK    5  A    between atoms: C_14  and  C_15 
REMARK    6  A    between atoms: C_23  and  O_24 
ROOT
HETATM    1  C   UNL     1      -8.252   2.402 -30.826  1.00  0.00     0.037 A 
HETATM    2  C   UNL     1      -7.849   1.285 -31.570  1.00  0.00     0.062 A 
HETATM    3  C   UNL     1      -6.521   0.850 -31.547  1.00  0.00     0.070 A 
HETATM    4  C   UNL     1      -5.566   1.562 -30.793  1.00  0.00     0.095 A 
HETATM    5  C   UNL     1      -5.961   2.691 -30.075  1.00  0.00     0.041 A 
HETATM    6  C   UNL     1      -7.299   3.103 -30.088  1.00  0.00     0.032 A 
ENDROOT
BRANCH   1   7
HETATM    7  N   UNL     1      -9.618   2.748 -30.876  1.00  0.00    -0.322 N 
HETATM    8  C   UNL     1     -10.217   3.694 -31.683  1.00  0.00     0.274 C 
HETATM    9  O   UNL     1      -9.630   4.439 -32.460  1.00  0.00    -0.266 OA
HETATM   10  H   UNL     1     -10.202   2.328 -30.163  1.00  0.00     0.169 HD
BRANCH   8  11
HETATM   11  C   UNL     1     -11.645   3.798 -31.506  1.00  0.00     0.120 A 
HETATM   12  N   UNL     1     -12.199   4.016 -30.273  1.00  0.00    -0.273 N 
HETATM   13  N   UNL     1     -13.539   4.077 -30.275  1.00  0.00    -0.179 NA
HETATM   14  H   UNL     1     -11.702   4.120 -29.393  1.00  0.00     0.189 HD
HETATM   15  C   UNL     1     -13.869   3.932 -31.564  1.00  0.00     0.056 A 
HETATM   16  C   UNL     1     -12.720   3.750 -32.373  1.00  0.00     0.065 A 
BRANCH  15  17
HETATM   17  C   UNL     1     -15.296   3.994 -31.994  1.00  0.00     0.056 C 
HETATM   18  C   UNL     1     -15.991   5.267 -31.537  1.00  0.00     0.011 C 
ENDBRANCH  15  17
ENDBRANCH   8  11
ENDBRANCH   1   7
BRANCH   3  19
HETATM   19  N   UNL     1      -6.072  -0.318 -32.207  1.00  0.00    -0.320 N 
HETATM   20  C   UNL     1      -6.002  -0.553 -33.564  1.00  0.00     0.256 C 
HETATM   21  O   UNL     1      -6.148   0.274 -34.456  1.00  0.00    -0.267 OA
HETATM   22  H   UNL     1      -5.771  -1.044 -31.566  1.00  0.00     0.169 HD
BRANCH  20  23
HETATM   23  C   UNL     1      -5.701  -1.963 -33.948  1.00  0.00     0.035 A 
HETATM   24  C   UNL     1      -6.619  -2.742 -34.661  1.00  0.00     0.059 A 
HETATM   25  C   UNL     1      -6.271  -4.036 -35.032  1.00  0.00     0.117 A 
HETATM   26  F   UNL     1      -7.149  -4.779 -35.718  1.00  0.00    -0.206 F 
HETATM   27  C   UNL     1      -5.026  -4.568 -34.716  1.00  0.00     0.042 A 
HETATM   28  C   UNL     1      -4.103  -3.791 -34.019  1.00  0.00     0.004 A 
HETATM   29  C   UNL     1      -4.438  -2.489 -33.639  1.00  0.00     0.017 A 
ENDBRANCH  20  23
ENDBRANCH   3  19
BRANCH   4  30
HETATM   30  O   UNL     1      -4.288   1.054 -30.827  1.00  0.00    -0.354 OA
HETATM   31  C   UNL     1      -3.281   1.881 -31.400  1.00  0.00     0.210 C 
ENDBRANCH   4  30
TORSDOF 6
ENDMDL
MODEL 8
REMARK VINA RESULT:      -8.0      3.810      9.045
REMARK  6 active torsions:
REMARK  status: ('A' for Active; 'I' for Inactive)
REMARK    1  A    between atoms: C_2  and  C_3 
REMARK    2  A    between atoms: C_7  and  C_8 
REMARK       I    between atoms: C_8  and  N_9 
REMARK    3  A    between atoms: N_9  and  C_10 
REMARK    4  A    between atoms: C_12  and  N_13 
REMARK       I    between atoms: N_13  and  C_14 
REMARK    5  A    between atoms: C_14  and  C_15 
REMARK    6  A    between atoms: C_23  and  O_24 
ROOT
HETATM    1  C   UNL     1      -7.266   0.918 -32.369  1.00  0.00     0.037 A 
HETATM    2  C   UNL     1      -6.338   1.952 -32.556  1.00  0.00     0.062 A 
HETATM    3  C   UNL     1      -4.966   1.713 -32.438  1.00  0.00     0.070 A 
HETATM    4  C   UNL     1      -4.508   0.425 -32.094  1.00  0.00     0.095 A 
HETATM    5  C   UNL     1      -5.433  -0.597 -31.879  1.00  0.00     0.041 A 
HETATM    6  C   UNL     1      -6.804  -0.351 -32.023  1.00  0.00     0.032 A 
ENDROOT
BRANCH   1   7
HETATM    7  N   UNL     1      -8.628   1.239 -32.545  1.00  0.00    -0.322 N 
HETATM    8  C   UNL     1      -9.390   1.075 -33.684  1.00  0.00     0.274 C 
HETATM    9  O   UNL     1      -8.974   0.668 -34.764  1.00  0.00    -0.266 OA
HETATM   10  H   UNL     1      -9.061   1.743 -31.782  1.00  0.00     0.169 HD
BRANCH   8  11
HETATM   11  C   UNL     1     -10.764   1.486 -33.536  1.00  0.00     0.120 A 
HETATM   12  N   UNL     1     -11.101   2.799 -33.345  1.00  0.00    -0.273 N 
HETATM   13  N   UNL     1     -12.419   3.015 -33.215  1.00  0.00    -0.179 NA
HETATM   14  H   UNL     1     -10.463   3.587 -33.285  1.00  0.00     0.189 HD
HETATM   15  C   UNL     1     -12.963   1.802 -33.367  1.00  0.00     0.056 A 
HETATM   16  C   UNL     1     -11.971   0.812 -33.565  1.00  0.00     0.065 A 
BRANCH  15  17
HETATM   17  C   UNL     1     -14.444   1.627 -33.337  1.00  0.00     0.056 C 
HETATM   18  C   UNL     1     -14.937   0.629 -34.372  1.00  0.00     0.011 C 
ENDBRANCH  15  17
ENDBRANCH   8  11
ENDBRANCH   1   7
BRANCH   3  19
HETATM   19  N   UNL     1      -3.980   2.693 -32.698  1.00  0.00    -0.320 N 
HETATM   20  C   UNL     1      -3.717   3.845 -31.986  1.00  0.00     0.256 C 
HETATM   21  O   UNL     1      -4.174   4.144 -30.890  1.00  0.00    -0.267 OA
HETATM   22  H   UNL     1      -3.416   2.481 -33.515  1.00  0.00     0.169 HD
BRANCH  20  23
HETATM   23  C   UNL     1      -2.766   4.790 -32.639  1.00  0.00     0.035 A 
HETATM   24  C   UNL     1      -2.058   5.746 -31.903  1.00  0.00     0.059 A 
HETATM   25  C   UNL     1      -1.150   6.573 -32.555  1.00  0.00     0.117 A 
HETATM   26  F   UNL     1      -0.470   7.485 -31.847  1.00  0.00    -0.206 F 
HETATM   27  C   UNL     1      -0.926   6.464 -33.923  1.00  0.00     0.042 A 
HETATM   28  C   UNL     1      -1.618   5.504 -34.658  1.00  0.00     0.004 A 
HETATM   29  C   UNL     1      -2.533   4.665 -34.017  1.00  0.00     0.017 A 
ENDBRANCH  20  23
ENDBRANCH   3  19
BRANCH   4  30
HETATM   30  O   UNL     1      -3.142   0.286 -32.008  1.00  0.00    -0.354 OA
HETATM   31  C   UNL     1      -2.638  -1.037 -31.856  1.00  0.00     0.210 C 
ENDBRANCH   4  30
TORSDOF 6
ENDMDL
MODEL 9
REMARK VINA RESULT:      -7.7      1.924      2.077
REMARK  6 active torsions:
REMARK  status: ('A' for Active; 'I' for Inactive)
REMARK    1  A    between atoms: C_2  and  C_3 
REMARK    2  A    between atoms: C_7  and  C_8 
REMARK       I    between atoms: C_8  and  N_9 
REMARK    3  A    between atoms: N_9  and  C_10 
REMARK    4  A    between atoms: C_12  and  N_13 
REMARK       I    between atoms: N_13  and  C_14 
REMARK    5  A    between atoms: C_14  and  C_15 
REMARK    6  A    between atoms: C_23  and  O_24 
ROOT
HETATM    1  C   UNL     1      -6.796   3.384 -32.542  1.00  0.00     0.037 A 
HETATM    2  C   UNL     1      -6.340   2.078 -32.765  1.00  0.00     0.062 A 
HETATM    3  C   UNL     1      -7.239   1.014 -32.875  1.00  0.00     0.070 A 
HETATM    4  C   UNL     1      -8.621   1.250 -32.727  1.00  0.00     0.095 A 
HETATM    5  C   UNL     1      -9.073   2.546 -32.476  1.00  0.00     0.041 A 
HETATM    6  C   UNL     1      -8.164   3.607 -32.392  1.00  0.00     0.032 A 
ENDROOT
BRANCH   1   7
HETATM    7  N   UNL     1      -5.822   4.403 -32.484  1.00  0.00    -0.322 N 
HETATM    8  C   UNL     1      -5.230   4.937 -31.357  1.00  0.00     0.274 C 
HETATM    9  O   UNL     1      -5.509   4.640 -30.200  1.00  0.00    -0.266 OA
HETATM   10  H   UNL     1      -5.617   4.863 -33.362  1.00  0.00     0.169 HD
BRANCH   8  11
HETATM   11  C   UNL     1      -4.252   5.960 -31.636  1.00  0.00     0.120 A 
HETATM   12  N   UNL     1      -3.714   6.113 -32.885  1.00  0.00    -0.273 N 
HETATM   13  N   UNL     1      -2.812   7.102 -32.978  1.00  0.00    -0.179 NA
HETATM   14  H   UNL     1      -3.923   5.557 -33.709  1.00  0.00     0.189 HD
HETATM   15  C   UNL     1      -2.791   7.638 -31.752  1.00  0.00     0.056 A 
HETATM   16  C   UNL     1      -3.671   6.957 -30.876  1.00  0.00     0.065 A 
BRANCH  15  17
HETATM   17  C   UNL     1      -1.930   8.819 -31.456  1.00  0.00     0.056 C 
HETATM   18  C   UNL     1      -2.650   9.877 -30.634  1.00  0.00     0.011 C 
ENDBRANCH  15  17
ENDBRANCH   8  11
ENDBRANCH   1   7
BRANCH   3  19
HETATM   19  N   UNL     1      -6.847  -0.309 -33.184  1.00  0.00    -0.320 N 
HETATM   20  C   UNL     1      -5.592  -0.765 -33.529  1.00  0.00     0.256 C 
HETATM   21  O   UNL     1      -4.543  -0.135 -33.459  1.00  0.00    -0.267 OA
HETATM   22  H   UNL     1      -7.613  -0.973 -33.128  1.00  0.00     0.169 HD
BRANCH  20  23
HETATM   23  C   UNL     1      -5.541  -2.173 -34.018  1.00  0.00     0.035 A 
HETATM   24  C   UNL     1      -4.384  -2.951 -33.900  1.00  0.00     0.059 A 
HETATM   25  C   UNL     1      -4.405  -4.273 -34.332  1.00  0.00     0.117 A 
HETATM   26  F   UNL     1      -3.297  -5.017 -34.214  1.00  0.00    -0.206 F 
HETATM   27  C   UNL     1      -5.554  -4.839 -34.871  1.00  0.00     0.042 A 
HETATM   28  C   UNL     1      -6.713  -4.073 -34.978  1.00  0.00     0.004 A 
HETATM   29  C   UNL     1      -6.708  -2.744 -34.548  1.00  0.00     0.017 A 
ENDBRANCH  20  23
ENDBRANCH   3  19
BRANCH   4  30
HETATM   30  O   UNL     1      -9.428   0.142 -32.858  1.00  0.00    -0.354 OA
HETATM   31  C   UNL     1     -10.782   0.373 -33.230  1.00  0.00     0.210 C 
ENDBRANCH   4  30
TORSDOF 6
ENDMDL
MODEL 10
REMARK VINA RESULT:      -7.6      3.617      5.576
REMARK  6 active torsions:
REMARK  status: ('A' for Active; 'I' for Inactive)
REMARK    1  A    between atoms: C_2  and  C_3 
REMARK    2  A    between atoms: C_7  and  C_8 
REMARK       I    between atoms: C_8  and  N_9 
REMARK    3  A    between atoms: N_9  and  C_10 
REMARK    4  A    between atoms: C_12  and  N_13 
REMARK       I    between atoms: N_13  and  C_14 
REMARK    5  A    between atoms: C_14  and  C_15 
REMARK    6  A    between atoms: C_23  and  O_24 
ROOT
HETATM    1  C   UNL     1      -6.965   2.899 -32.187  1.00  0.00     0.037 A 
HETATM    2  C   UNL     1      -6.686   1.742 -32.926  1.00  0.00     0.062 A 
HETATM    3  C   UNL     1      -5.797   0.779 -32.439  1.00  0.00     0.070 A 
HETATM    4  C   UNL     1      -5.147   0.988 -31.206  1.00  0.00     0.095 A 
HETATM    5  C   UNL     1      -5.403   2.154 -30.485  1.00  0.00     0.041 A 
HETATM    6  C   UNL     1      -6.313   3.100 -30.972  1.00  0.00     0.032 A 
ENDROOT
BRANCH   1   7
HETATM    7  N   UNL     1      -7.904   3.799 -32.735  1.00  0.00    -0.322 N 
HETATM    8  C   UNL     1      -7.674   4.787 -33.671  1.00  0.00     0.274 C 
HETATM    9  O   UNL     1      -6.580   5.080 -34.141  1.00  0.00    -0.266 OA
HETATM   10  H   UNL     1      -8.822   3.784 -32.311  1.00  0.00     0.169 HD
BRANCH   8  11
HETATM   11  C   UNL     1      -8.853   5.531 -34.041  1.00  0.00     0.120 A 
HETATM   12  N   UNL     1      -9.077   6.796 -33.569  1.00  0.00    -0.273 N 
HETATM   13  N   UNL     1     -10.223   7.349 -33.997  1.00  0.00    -0.179 NA
HETATM   14  H   UNL     1      -8.480   7.325 -32.940  1.00  0.00     0.189 HD
HETATM   15  C   UNL     1     -10.745   6.423 -34.810  1.00  0.00     0.056 A 
HETATM   16  C   UNL     1      -9.929   5.267 -34.867  1.00  0.00     0.065 A 
BRANCH  15  17
HETATM   17  C   UNL     1     -12.021   6.684 -35.536  1.00  0.00     0.056 C 
HETATM   18  C   UNL     1     -12.948   7.619 -34.775  1.00  0.00     0.011 C 
ENDBRANCH  15  17
ENDBRANCH   8  11
ENDBRANCH   1   7
BRANCH   3  19
HETATM   19  N   UNL     1      -5.541  -0.447 -33.097  1.00  0.00    -0.320 N 
HETATM   20  C   UNL     1      -6.417  -1.215 -33.835  1.00  0.00     0.256 C 
HETATM   21  O   UNL     1      -7.537  -0.888 -34.208  1.00  0.00    -0.267 OA
HETATM   22  H   UNL     1      -4.582  -0.761 -32.990  1.00  0.00     0.169 HD
BRANCH  20  23
HETATM   23  C   UNL     1      -5.911  -2.567 -34.211  1.00  0.00     0.035 A 
HETATM   24  C   UNL     1      -4.615  -2.983 -33.888  1.00  0.00     0.059 A 
HETATM   25  C   UNL     1      -4.209  -4.270 -34.223  1.00  0.00     0.117 A 
HETATM   26  F   UNL     1      -2.969  -4.668 -33.908  1.00  0.00    -0.206 F 
HETATM   27  C   UNL     1      -5.068  -5.155 -34.866  1.00  0.00     0.042 A 
HETATM   28  C   UNL     1      -6.364  -4.750 -35.178  1.00  0.00     0.004 A 
HETATM   29  C   UNL     1      -6.787  -3.460 -34.847  1.00  0.00     0.017 A 
ENDBRANCH  20  23
ENDBRANCH   3  19
BRANCH   4  30
HETATM   30  O   UNL     1      -4.297  -0.018 -30.808  1.00  0.00    -0.354 OA
HETATM   31  C   UNL     1      -2.912   0.164 -31.083  1.00  0.00     0.210 C 
ENDBRANCH   4  30
TORSDOF 6
ENDMDL
