MODEL 1
REMARK VINA RESULT:      -9.7      0.000      0.000
REMARK  6 active torsions:
REMARK  status: ('A' for Active; 'I' for Inactive)
REMARK    1  A    between atoms: O_2  and  C_3 
REMARK    2  A    between atoms: C_5  and  C_6 
REMARK    3  A    between atoms: C_6  and  C_7 
REMARK    4  A    between atoms: C_7  and  C_8 
REMARK       I    between atoms: C_8  and  N_9 
REMARK    5  A    between atoms: N_12  and  C_13 
REMARK    6  A    between atoms: C_17  and  C_18 
ROOT
HETATM    1  C   UNL     1      -1.211   6.823 -32.541  1.00  0.00     0.220 C 
HETATM    2  N   UNL     1      -1.496   5.461 -32.506  1.00  0.00    -0.349 N 
HETATM    3  C   UNL     1      -1.898   4.741 -31.287  1.00  0.00     0.145 C 
HETATM    4  C   UNL     1      -3.437   4.690 -31.195  1.00  0.00     0.144 C 
HETATM    5  N   UNL     1      -4.012   4.084 -32.422  1.00  0.00    -0.363 N 
HETATM    6  C   UNL     1      -3.564   4.763 -33.671  1.00  0.00     0.144 C 
HETATM    7  C   UNL     1      -2.021   4.835 -33.727  1.00  0.00     0.145 C 
HETATM    8  O   UNL     1      -1.216   7.463 -33.592  1.00  0.00    -0.273 OA
ENDROOT
BRANCH   5   9
HETATM    9  C   UNL     1      -4.317   2.751 -32.429  1.00  0.00     0.122 A 
HETATM   10  N   UNL     1      -4.067   1.927 -31.364  1.00  0.00    -0.262 N 
HETATM   11  H   UNL     1      -3.635   2.175 -30.483  1.00  0.00     0.191 HD
HETATM   12  N   UNL     1      -4.404   0.643 -31.561  1.00  0.00    -0.173 NA
HETATM   13  C   UNL     1      -4.862   0.608 -32.822  1.00  0.00     0.090 A 
HETATM   14  C   UNL     1      -4.816   1.908 -33.399  1.00  0.00     0.084 A 
BRANCH  13  15
HETATM   15  C   UNL     1      -5.307  -0.643 -33.446  1.00  0.00    -0.005 A 
HETATM   16  C   UNL     1      -6.671  -0.867 -33.691  1.00  0.00     0.015 A 
HETATM   17  C   UNL     1      -7.111  -2.063 -34.267  1.00  0.00     0.024 A 
HETATM   18  C   UNL     1      -6.186  -3.044 -34.609  1.00  0.00     0.034 A 
HETATM   19 CL   UNL     1      -6.722  -4.517 -35.316  1.00  0.00    -0.084 Cl
HETATM   20  C   UNL     1      -4.827  -2.840 -34.381  1.00  0.00     0.024 A 
HETATM   21  C   UNL     1      -4.389  -1.644 -33.801  1.00  0.00     0.015 A 
ENDBRANCH  13  15
ENDBRANCH   5   9
BRANCH   1  22
HETATM   22  C   UNL     1      -0.898   7.485 -31.211  1.00  0.00     0.107 C 
BRANCH  22  23
HETATM   23  C   UNL     1       0.481   7.101 -30.679  1.00  0.00     0.048 C 
BRANCH  23  24
HETATM   24  C   UNL     1       0.533   7.255 -29.177  1.00  0.00    -0.055 A 
HETATM   25  C   UNL     1      -0.178   6.365 -28.352  1.00  0.00     0.044 A 
HETATM   26  C   UNL     1      -0.095   6.465 -26.962  1.00  0.00     0.068 A 
HETATM   27  C   UNL     1       0.698   7.464 -26.396  1.00  0.00     0.037 A 
HETATM   28  C   UNL     1       1.407   8.353 -27.204  1.00  0.00     0.003 A 
HETATM   29  C   UNL     1       1.329   8.246 -28.592  1.00  0.00     0.007 A 
BRANCH  26  30
HETATM   30  O   UNL     1      -0.728   5.656 -26.058  1.00  0.00    -0.356 OA
HETATM   31  C   UNL     1      -2.004   6.082 -25.596  1.00  0.00     0.210 C 
ENDBRANCH  26  30
ENDBRANCH  23  24
ENDBRANCH  22  23
ENDBRANCH   1  22
TORSDOF 6
ENDMDL
MODEL 2
REMARK VINA RESULT:      -9.7      1.446      2.361
REMARK  6 active torsions:
REMARK  status: ('A' for Active; 'I' for Inactive)
REMARK    1  A    between atoms: O_2  and  C_3 
REMARK    2  A    between atoms: C_5  and  C_6 
REMARK    3  A    between atoms: C_6  and  C_7 
REMARK    4  A    between atoms: C_7  and  C_8 
REMARK       I    between atoms: C_8  and  N_9 
REMARK    5  A    between atoms: N_12  and  C_13 
REMARK    6  A    between atoms: C_17  and  C_18 
ROOT
HETATM    1  C   UNL     1      -3.668   6.841 -32.352  1.00  0.00     0.220 C 
HETATM    2  N   UNL     1      -3.876   5.515 -32.719  1.00  0.00    -0.349 N 
HETATM    3  C   UNL     1      -2.792   4.580 -33.057  1.00  0.00     0.145 C 
HETATM    4  C   UNL     1      -2.381   3.782 -31.802  1.00  0.00     0.144 C 
HETATM    5  N   UNL     1      -3.557   3.091 -31.216  1.00  0.00    -0.363 N 
HETATM    6  C   UNL     1      -4.689   4.017 -30.926  1.00  0.00     0.144 C 
HETATM    7  C   UNL     1      -5.062   4.832 -32.186  1.00  0.00     0.145 C 
HETATM    8  O   UNL     1      -4.522   7.495 -31.755  1.00  0.00    -0.273 OA
ENDROOT
BRANCH   5   9
HETATM    9  C   UNL     1      -3.796   1.785 -31.540  1.00  0.00     0.122 A 
HETATM   10  N   UNL     1      -3.152   0.740 -30.931  1.00  0.00    -0.262 N 
HETATM   11  H   UNL     1      -2.444   0.791 -30.210  1.00  0.00     0.191 HD
HETATM   12  N   UNL     1      -3.490  -0.472 -31.399  1.00  0.00    -0.173 NA
HETATM   13  C   UNL     1      -4.365  -0.217 -32.384  1.00  0.00     0.090 A 
HETATM   14  C   UNL     1      -4.576   1.185 -32.506  1.00  0.00     0.084 A 
BRANCH  13  15
HETATM   15  C   UNL     1      -4.957  -1.293 -33.186  1.00  0.00    -0.005 A 
HETATM   16  C   UNL     1      -4.175  -2.386 -33.594  1.00  0.00     0.015 A 
HETATM   17  C   UNL     1      -4.721  -3.408 -34.376  1.00  0.00     0.024 A 
HETATM   18  C   UNL     1      -6.059  -3.348 -34.752  1.00  0.00     0.034 A 
HETATM   19 CL   UNL     1      -6.735  -4.603 -35.715  1.00  0.00    -0.084 Cl
HETATM   20  C   UNL     1      -6.855  -2.277 -34.353  1.00  0.00     0.024 A 
HETATM   21  C   UNL     1      -6.305  -1.253 -33.573  1.00  0.00     0.015 A 
ENDBRANCH  13  15
ENDBRANCH   5   9
BRANCH   1  22
HETATM   22  C   UNL     1      -2.324   7.444 -32.723  1.00  0.00     0.107 C 
BRANCH  22  23
HETATM   23  C   UNL     1      -1.651   8.139 -31.542  1.00  0.00     0.048 C 
BRANCH  23  24
HETATM   24  C   UNL     1      -0.783   7.167 -30.777  1.00  0.00    -0.055 A 
HETATM   25  C   UNL     1      -0.884   7.081 -29.377  1.00  0.00     0.044 A 
HETATM   26  C   UNL     1      -0.126   6.150 -28.666  1.00  0.00     0.068 A 
HETATM   27  C   UNL     1       0.743   5.305 -29.359  1.00  0.00     0.037 A 
HETATM   28  C   UNL     1       0.852   5.381 -30.747  1.00  0.00     0.003 A 
HETATM   29  C   UNL     1       0.088   6.307 -31.456  1.00  0.00     0.007 A 
BRANCH  26  30
HETATM   30  O   UNL     1      -0.144   5.964 -27.310  1.00  0.00    -0.356 OA
HETATM   31  C   UNL     1       0.087   7.110 -26.500  1.00  0.00     0.210 C 
ENDBRANCH  26  30
ENDBRANCH  23  24
ENDBRANCH  22  23
ENDBRANCH   1  22
TORSDOF 6
ENDMDL
MODEL 3
REMARK VINA RESULT:      -9.3      4.285     10.081
REMARK  6 active torsions:
REMARK  status: ('A' for Active; 'I' for Inactive)
REMARK    1  A    between atoms: O_2  and  C_3 
REMARK    2  A    between atoms: C_5  and  C_6 
REMARK    3  A    between atoms: C_6  and  C_7 
REMARK    4  A    between atoms: C_7  and  C_8 
REMARK       I    between atoms: C_8  and  N_9 
REMARK    5  A    between atoms: N_12  and  C_13 
REMARK    6  A    between atoms: C_17  and  C_18 
ROOT
HETATM    1  C   UNL     1      -5.760   3.725 -33.427  1.00  0.00     0.220 C 
HETATM    2  N   UNL     1      -4.949   4.470 -32.575  1.00  0.00    -0.349 N 
HETATM    3  C   UNL     1      -4.173   3.887 -31.469  1.00  0.00     0.145 C 
HETATM    4  C   UNL     1      -2.742   3.566 -31.948  1.00  0.00     0.144 C 
HETATM    5  N   UNL     1      -2.097   4.779 -32.511  1.00  0.00    -0.363 N 
HETATM    6  C   UNL     1      -2.902   5.416 -33.591  1.00  0.00     0.144 C 
HETATM    7  C   UNL     1      -4.342   5.698 -33.102  1.00  0.00     0.145 C 
HETATM    8  O   UNL     1      -6.118   4.150 -34.524  1.00  0.00    -0.273 OA
ENDROOT
BRANCH   5   9
HETATM    9  C   UNL     1      -1.285   5.535 -31.713  1.00  0.00     0.122 A 
HETATM   10  N   UNL     1      -0.237   6.269 -32.205  1.00  0.00    -0.262 N 
HETATM   11  H   UNL     1       0.068   6.336 -33.167  1.00  0.00     0.191 HD
HETATM   12  N   UNL     1       0.470   6.925 -31.272  1.00  0.00    -0.173 NA
HETATM   13  C   UNL     1      -0.109   6.581 -30.111  1.00  0.00     0.090 A 
HETATM   14  C   UNL     1      -1.207   5.707 -30.348  1.00  0.00     0.084 A 
BRANCH  13  15
HETATM   15  C   UNL     1       0.397   7.068 -28.823  1.00  0.00    -0.005 A 
HETATM   16  C   UNL     1       1.166   8.242 -28.762  1.00  0.00     0.015 A 
HETATM   17  C   UNL     1       1.672   8.706 -27.544  1.00  0.00     0.024 A 
HETATM   18  C   UNL     1       1.406   8.002 -26.374  1.00  0.00     0.034 A 
HETATM   19 CL   UNL     1       2.026   8.569 -24.873  1.00  0.00    -0.084 Cl
HETATM   20  C   UNL     1       0.639   6.840 -26.410  1.00  0.00     0.024 A 
HETATM   21  C   UNL     1       0.137   6.375 -27.631  1.00  0.00     0.015 A 
ENDBRANCH  13  15
ENDBRANCH   5   9
BRANCH   1  22
HETATM   22  C   UNL     1      -6.179   2.351 -32.935  1.00  0.00     0.107 C 
BRANCH  22  23
HETATM   23  C   UNL     1      -6.720   1.470 -34.058  1.00  0.00     0.048 C 
BRANCH  23  24
HETATM   24  C   UNL     1      -6.049   0.116 -34.043  1.00  0.00    -0.055 A 
HETATM   25  C   UNL     1      -4.952  -0.118 -33.195  1.00  0.00     0.044 A 
HETATM   26  C   UNL     1      -4.357  -1.379 -33.134  1.00  0.00     0.068 A 
HETATM   27  C   UNL     1      -4.859  -2.409 -33.930  1.00  0.00     0.037 A 
HETATM   28  C   UNL     1      -5.946  -2.189 -34.776  1.00  0.00     0.003 A 
HETATM   29  C   UNL     1      -6.543  -0.931 -34.830  1.00  0.00     0.007 A 
BRANCH  26  30
HETATM   30  O   UNL     1      -3.297  -1.731 -32.344  1.00  0.00    -0.356 OA
HETATM   31  C   UNL     1      -3.140  -3.116 -32.058  1.00  0.00     0.210 C 
ENDBRANCH  26  30
ENDBRANCH  23  24
ENDBRANCH  22  23
ENDBRANCH   1  22
TORSDOF 6
ENDMDL
MODEL 4
REMARK VINA RESULT:      -9.1      4.303      9.897
REMARK  6 active torsions:
REMARK  status: ('A' for Active; 'I' for Inactive)
REMARK    1  A    between atoms: O_2  and  C_3 
REMARK    2  A    between atoms: C_5  and  C_6 
REMARK    3  A    between atoms: C_6  and  C_7 
REMARK    4  A    between atoms: C_7  and  C_8 
REMARK       I    between atoms: C_8  and  N_9 
REMARK    5  A    between atoms: N_12  and  C_13 
REMARK    6  A    between atoms: C_17  and  C_18 
ROOT
HETATM    1  C   UNL     1      -8.067   1.769 -33.250  1.00  0.00     0.220 C 
HETATM    2  N   UNL     1      -7.318   2.764 -32.628  1.00  0.00    -0.349 N 
HETATM    3  C   UNL     1      -6.182   2.493 -31.733  1.00  0.00     0.145 C 
HETATM    4  C   UNL     1      -4.866   2.520 -32.538  1.00  0.00     0.144 C 
HETATM    5  N   UNL     1      -4.722   3.811 -33.256  1.00  0.00    -0.363 N 
HETATM    6  C   UNL     1      -5.894   4.130 -34.120  1.00  0.00     0.144 C 
HETATM    7  C   UNL     1      -7.205   4.063 -33.302  1.00  0.00     0.145 C 
HETATM    8  O   UNL     1      -8.768   1.999 -34.235  1.00  0.00    -0.273 OA
ENDROOT
BRANCH   5   9
HETATM    9  C   UNL     1      -3.986   4.813 -32.688  1.00  0.00     0.122 A 
HETATM   10  N   UNL     1      -4.007   6.103 -33.151  1.00  0.00    -0.262 N 
HETATM   11  H   UNL     1      -4.529   6.465 -33.938  1.00  0.00     0.191 HD
HETATM   12  N   UNL     1      -3.198   6.946 -32.489  1.00  0.00    -0.173 NA
HETATM   13  C   UNL     1      -2.589   6.174 -31.575  1.00  0.00     0.090 A 
HETATM   14  C   UNL     1      -3.052   4.832 -31.675  1.00  0.00     0.084 A 
BRANCH  13  15
HETATM   15  C   UNL     1      -1.582   6.718 -30.657  1.00  0.00    -0.005 A 
HETATM   16  C   UNL     1      -1.978   7.432 -29.514  1.00  0.00     0.015 A 
HETATM   17  C   UNL     1      -1.029   7.973 -28.641  1.00  0.00     0.024 A 
HETATM   18  C   UNL     1       0.327   7.797 -28.901  1.00  0.00     0.034 A 
HETATM   19 CL   UNL     1       1.498   8.460 -27.831  1.00  0.00    -0.084 Cl
HETATM   20  C   UNL     1       0.741   7.085 -30.025  1.00  0.00     0.024 A 
HETATM   21  C   UNL     1      -0.211   6.548 -30.899  1.00  0.00     0.015 A 
ENDBRANCH  13  15
ENDBRANCH   5   9
BRANCH   1  22
HETATM   22  C   UNL     1      -7.973   0.376 -32.653  1.00  0.00     0.107 C 
BRANCH  22  23
HETATM   23  C   UNL     1      -8.111  -0.720 -33.707  1.00  0.00     0.048 C 
BRANCH  23  24
HETATM   24  C   UNL     1      -6.801  -1.451 -33.889  1.00  0.00    -0.055 A 
HETATM   25  C   UNL     1      -5.631  -0.963 -33.281  1.00  0.00     0.044 A 
HETATM   26  C   UNL     1      -4.426  -1.658 -33.398  1.00  0.00     0.068 A 
HETATM   27  C   UNL     1      -4.392  -2.844 -34.133  1.00  0.00     0.037 A 
HETATM   28  C   UNL     1      -5.546  -3.338 -34.741  1.00  0.00     0.003 A 
HETATM   29  C   UNL     1      -6.749  -2.646 -34.617  1.00  0.00     0.007 A 
BRANCH  26  30
HETATM   30  O   UNL     1      -3.228  -1.293 -32.846  1.00  0.00    -0.356 OA
HETATM   31  C   UNL     1      -3.262  -0.769 -31.524  1.00  0.00     0.210 C 
ENDBRANCH  26  30
ENDBRANCH  23  24
ENDBRANCH  22  23
ENDBRANCH   1  22
TORSDOF 6
ENDMDL
MODEL 5
REMARK VINA RESULT:      -9.1      4.573     10.719
REMARK  6 active torsions:
REMARK  status: ('A' for Active; 'I' for Inactive)
REMARK    1  A    between atoms: O_2  and  C_3 
REMARK    2  A    between atoms: C_5  and  C_6 
REMARK    3  A    between atoms: C_6  and  C_7 
REMARK    4  A    between atoms: C_7  and  C_8 
REMARK       I    between atoms: C_8  and  N_9 
REMARK    5  A    between atoms: N_12  and  C_13 
REMARK    6  A    between atoms: C_17  and  C_18 
ROOT
HETATM    1  C   UNL     1      -5.790   2.719 -32.656  1.00  0.00     0.220 C 
HETATM    2  N   UNL     1      -4.823   3.265 -31.816  1.00  0.00    -0.349 N 
HETATM    3  C   UNL     1      -3.403   2.881 -31.846  1.00  0.00     0.145 C 
HETATM    4  C   UNL     1      -2.622   3.846 -32.762  1.00  0.00     0.144 C 
HETATM    5  N   UNL     1      -2.817   5.252 -32.325  1.00  0.00    -0.363 N 
HETATM    6  C   UNL     1      -4.253   5.636 -32.229  1.00  0.00     0.144 C 
HETATM    7  C   UNL     1      -5.025   4.638 -31.335  1.00  0.00     0.145 C 
HETATM    8  O   UNL     1      -6.869   3.275 -32.857  1.00  0.00    -0.273 OA
ENDROOT
BRANCH   5   9
HETATM    9  C   UNL     1      -1.887   5.832 -31.508  1.00  0.00     0.122 A 
HETATM   10  N   UNL     1      -0.601   5.371 -31.402  1.00  0.00    -0.262 N 
HETATM   11  H   UNL     1      -0.192   4.576 -31.876  1.00  0.00     0.191 HD
HETATM   12  N   UNL     1       0.162   6.046 -30.528  1.00  0.00    -0.173 NA
HETATM   13  C   UNL     1      -0.662   6.967 -30.006  1.00  0.00     0.090 A 
HETATM   14  C   UNL     1      -1.955   6.859 -30.591  1.00  0.00     0.084 A 
BRANCH  13  15
HETATM   15  C   UNL     1      -0.215   7.901 -28.967  1.00  0.00    -0.005 A 
HETATM   16  C   UNL     1      -1.098   8.865 -28.452  1.00  0.00     0.015 A 
HETATM   17  C   UNL     1      -0.679   9.774 -27.477  1.00  0.00     0.024 A 
HETATM   18  C   UNL     1       0.628   9.723 -27.002  1.00  0.00     0.034 A 
HETATM   19 CL   UNL     1       1.149  10.840 -25.803  1.00  0.00    -0.084 Cl
HETATM   20  C   UNL     1       1.519   8.771 -27.494  1.00  0.00     0.024 A 
HETATM   21  C   UNL     1       1.098   7.864 -28.473  1.00  0.00     0.015 A 
ENDBRANCH  13  15
ENDBRANCH   5   9
BRANCH   1  22
HETATM   22  C   UNL     1      -5.443   1.398 -33.320  1.00  0.00     0.107 C 
BRANCH  22  23
HETATM   23  C   UNL     1      -5.906   0.195 -32.503  1.00  0.00     0.048 C 
BRANCH  23  24
HETATM   24  C   UNL     1      -5.885  -1.059 -33.345  1.00  0.00    -0.055 A 
HETATM   25  C   UNL     1      -4.701  -1.808 -33.466  1.00  0.00     0.044 A 
HETATM   26  C   UNL     1      -4.683  -2.996 -34.198  1.00  0.00     0.068 A 
HETATM   27  C   UNL     1      -5.855  -3.434 -34.816  1.00  0.00     0.037 A 
HETATM   28  C   UNL     1      -7.036  -2.700 -34.703  1.00  0.00     0.003 A 
HETATM   29  C   UNL     1      -7.053  -1.517 -33.966  1.00  0.00     0.007 A 
BRANCH  26  30
HETATM   30  O   UNL     1      -3.601  -3.815 -34.379  1.00  0.00    -0.356 OA
HETATM   31  C   UNL     1      -3.464  -4.909 -33.481  1.00  0.00     0.210 C 
ENDBRANCH  26  30
ENDBRANCH  23  24
ENDBRANCH  22  23
ENDBRANCH   1  22
TORSDOF 6
ENDMDL
MODEL 6
REMARK VINA RESULT:      -8.8      4.511     10.201
REMARK  6 active torsions:
REMARK  status: ('A' for Active; 'I' for Inactive)
REMARK    1  A    between atoms: O_2  and  C_3 
REMARK    2  A    between atoms: C_5  and  C_6 
REMARK    3  A    between atoms: C_6  and  C_7 
REMARK    4  A    between atoms: C_7  and  C_8 
REMARK       I    between atoms: C_8  and  N_9 
REMARK    5  A    between atoms: N_12  and  C_13 
REMARK    6  A    between atoms: C_17  and  C_18 
ROOT
HETATM    1  C   UNL     1      -8.143   2.779 -33.156  1.00  0.00     0.220 C 
HETATM    2  N   UNL     1      -6.940   3.287 -32.674  1.00  0.00    -0.349 N 
HETATM    3  C   UNL     1      -5.634   3.026 -33.299  1.00  0.00     0.145 C 
HETATM    4  C   UNL     1      -5.293   4.162 -34.286  1.00  0.00     0.144 C 
HETATM    5  N   UNL     1      -5.336   5.478 -33.600  1.00  0.00    -0.363 N 
HETATM    6  C   UNL     1      -6.632   5.730 -32.909  1.00  0.00     0.144 C 
HETATM    7  C   UNL     1      -6.973   4.565 -31.951  1.00  0.00     0.145 C 
HETATM    8  O   UNL     1      -9.229   3.268 -32.845  1.00  0.00    -0.273 OA
ENDROOT
BRANCH   5   9
HETATM    9  C   UNL     1      -4.177   6.020 -33.120  1.00  0.00     0.122 A 
HETATM   10  N   UNL     1      -3.138   6.389 -33.933  1.00  0.00    -0.262 N 
HETATM   11  H   UNL     1      -3.085   6.303 -34.940  1.00  0.00     0.191 HD
HETATM   12  N   UNL     1      -2.067   6.874 -33.285  1.00  0.00    -0.173 NA
HETATM   13  C   UNL     1      -2.396   6.787 -31.987  1.00  0.00     0.090 A 
HETATM   14  C   UNL     1      -3.707   6.251 -31.845  1.00  0.00     0.084 A 
BRANCH  13  15
HETATM   15  C   UNL     1      -1.466   7.191 -30.927  1.00  0.00    -0.005 A 
HETATM   16  C   UNL     1      -0.177   6.638 -30.867  1.00  0.00     0.015 A 
HETATM   17  C   UNL     1       0.713   6.999 -29.850  1.00  0.00     0.024 A 
HETATM   18  C   UNL     1       0.321   7.925 -28.888  1.00  0.00     0.034 A 
HETATM   19 CL   UNL     1       1.412   8.372 -27.635  1.00  0.00    -0.084 Cl
HETATM   20  C   UNL     1      -0.950   8.492 -28.933  1.00  0.00     0.024 A 
HETATM   21  C   UNL     1      -1.840   8.126 -29.949  1.00  0.00     0.015 A 
ENDBRANCH  13  15
ENDBRANCH   5   9
BRANCH   1  22
HETATM   22  C   UNL     1      -8.050   1.589 -34.094  1.00  0.00     0.107 C 
BRANCH  22  23
HETATM   23  C   UNL     1      -8.296   0.262 -33.378  1.00  0.00     0.048 C 
BRANCH  23  24
HETATM   24  C   UNL     1      -7.069  -0.616 -33.451  1.00  0.00    -0.055 A 
HETATM   25  C   UNL     1      -6.965  -1.602 -34.448  1.00  0.00     0.044 A 
HETATM   26  C   UNL     1      -5.814  -2.384 -34.557  1.00  0.00     0.068 A 
HETATM   27  C   UNL     1      -4.765  -2.182 -33.659  1.00  0.00     0.037 A 
HETATM   28  C   UNL     1      -4.856  -1.207 -32.665  1.00  0.00     0.003 A 
HETATM   29  C   UNL     1      -6.004  -0.423 -32.563  1.00  0.00     0.007 A 
BRANCH  26  30
HETATM   30  O   UNL     1      -5.590  -3.363 -35.487  1.00  0.00    -0.356 OA
HETATM   31  C   UNL     1      -6.349  -4.558 -35.358  1.00  0.00     0.210 C 
ENDBRANCH  26  30
ENDBRANCH  23  24
ENDBRANCH  22  23
ENDBRANCH   1  22
TORSDOF 6
ENDMDL
MODEL 7
REMARK VINA RESULT:      -8.6      1.835      2.521
REMARK  6 active torsions:
REMARK  status: ('A' for Active; 'I' for Inactive)
REMARK    1  A    between atoms: O_2  and  C_3 
REMARK    2  A    between atoms: C_5  and  C_6 
REMARK    3  A    between atoms: C_6  and  C_7 
REMARK    4  A    between atoms: C_7  and  C_8 
REMARK       I    between atoms: C_8  and  N_9 
REMARK    5  A    between atoms: N_12  and  C_13 
REMARK    6  A    between atoms: C_17  and  C_18 
ROOT
HETATM    1  C   UNL     1      -4.110   7.611 -31.022  1.00  0.00     0.220 C 
HETATM    2  N   UNL     1      -4.623   6.588 -31.815  1.00  0.00    -0.349 N 
HETATM    3  C   UNL     1      -3.816   5.809 -32.767  1.00  0.00     0.145 C 
HETATM    4  C   UNL     1      -3.302   4.523 -32.086  1.00  0.00     0.144 C 
HETATM    5  N   UNL     1      -4.435   3.739 -31.535  1.00  0.00    -0.363 N 
HETATM    6  C   UNL     1      -5.299   4.533 -30.616  1.00  0.00     0.144 C 
HETATM    7  C   UNL     1      -5.774   5.833 -31.304  1.00  0.00     0.145 C 
HETATM    8  O   UNL     1      -4.691   8.008 -30.013  1.00  0.00    -0.273 OA
ENDROOT
BRANCH   5   9
HETATM    9  C   UNL     1      -4.964   2.718 -32.274  1.00  0.00     0.122 A 
HETATM   10  N   UNL     1      -6.133   2.840 -32.979  1.00  0.00    -0.262 N 
HETATM   11  H   UNL     1      -6.735   3.651 -33.034  1.00  0.00     0.191 HD
HETATM   12  N   UNL     1      -6.515   1.725 -33.621  1.00  0.00    -0.173 NA
HETATM   13  C   UNL     1      -5.582   0.817 -33.298  1.00  0.00     0.090 A 
HETATM   14  C   UNL     1      -4.599   1.400 -32.451  1.00  0.00     0.084 A 
BRANCH  13  15
HETATM   15  C   UNL     1      -5.655  -0.567 -33.778  1.00  0.00    -0.005 A 
HETATM   16  C   UNL     1      -6.875  -1.098 -34.229  1.00  0.00     0.015 A 
HETATM   17  C   UNL     1      -6.963  -2.422 -34.671  1.00  0.00     0.024 A 
HETATM   18  C   UNL     1      -5.827  -3.225 -34.671  1.00  0.00     0.034 A 
HETATM   19 CL   UNL     1      -5.930  -4.855 -35.212  1.00  0.00    -0.084 Cl
HETATM   20  C   UNL     1      -4.605  -2.717 -34.235  1.00  0.00     0.024 A 
HETATM   21  C   UNL     1      -4.521  -1.393 -33.790  1.00  0.00     0.015 A 
ENDBRANCH  13  15
ENDBRANCH   5   9
BRANCH   1  22
HETATM   22  C   UNL     1      -2.787   8.212 -31.463  1.00  0.00     0.107 C 
BRANCH  22  23
HETATM   23  C   UNL     1      -1.964   8.734 -30.288  1.00  0.00     0.048 C 
BRANCH  23  24
HETATM   24  C   UNL     1      -0.986   7.683 -29.816  1.00  0.00    -0.055 A 
HETATM   25  C   UNL     1      -0.307   7.849 -28.596  1.00  0.00     0.044 A 
HETATM   26  C   UNL     1       0.558   6.861 -28.124  1.00  0.00     0.068 A 
HETATM   27  C   UNL     1       0.749   5.704 -28.881  1.00  0.00     0.037 A 
HETATM   28  C   UNL     1       0.081   5.528 -30.093  1.00  0.00     0.003 A 
HETATM   29  C   UNL     1      -0.788   6.513 -30.558  1.00  0.00     0.007 A 
BRANCH  26  30
HETATM   30  O   UNL     1       1.265   6.901 -26.953  1.00  0.00    -0.356 OA
HETATM   31  C   UNL     1       1.025   8.009 -26.094  1.00  0.00     0.210 C 
ENDBRANCH  26  30
ENDBRANCH  23  24
ENDBRANCH  22  23
ENDBRANCH   1  22
TORSDOF 6
ENDMDL
MODEL 8
REMARK VINA RESULT:      -8.2      8.270     10.619
REMARK  6 active torsions:
REMARK  status: ('A' for Active; 'I' for Inactive)
REMARK    1  A    between atoms: O_2  and  C_3 
REMARK    2  A    between atoms: C_5  and  C_6 
REMARK    3  A    between atoms: C_6  and  C_7 
REMARK    4  A    between atoms: C_7  and  C_8 
REMARK       I    between atoms: C_8  and  N_9 
REMARK    5  A    between atoms: N_12  and  C_13 
REMARK    6  A    between atoms: C_17  and  C_18 
ROOT
HETATM    1  C   UNL     1     -12.774   4.028 -34.243  1.00  0.00     0.220 C 
HETATM    2  N   UNL     1     -11.754   3.230 -34.752  1.00  0.00    -0.349 N 
HETATM    3  C   UNL     1     -10.343   3.643 -34.807  1.00  0.00     0.145 C 
HETATM    4  C   UNL     1      -9.604   3.143 -33.548  1.00  0.00     0.144 C 
HETATM    5  N   UNL     1      -9.755   1.673 -33.405  1.00  0.00    -0.363 N 
HETATM    6  C   UNL     1     -11.178   1.232 -33.412  1.00  0.00     0.144 C 
HETATM    7  C   UNL     1     -11.910   1.772 -34.662  1.00  0.00     0.145 C 
HETATM    8  O   UNL     1     -13.856   3.558 -33.892  1.00  0.00    -0.273 OA
ENDROOT
BRANCH   5   9
HETATM    9  C   UNL     1      -8.772   0.851 -33.882  1.00  0.00     0.122 A 
HETATM   10  N   UNL     1      -8.373   0.854 -35.193  1.00  0.00    -0.262 N 
HETATM   11  H   UNL     1      -8.739   1.423 -35.945  1.00  0.00     0.191 HD
HETATM   12  N   UNL     1      -7.417  -0.041 -35.487  1.00  0.00    -0.173 NA
HETATM   13  C   UNL     1      -7.202  -0.690 -34.332  1.00  0.00     0.090 A 
HETATM   14  C   UNL     1      -8.037  -0.163 -33.307  1.00  0.00     0.084 A 
BRANCH  13  15
HETATM   15  C   UNL     1      -6.237  -1.791 -34.235  1.00  0.00    -0.005 A 
HETATM   16  C   UNL     1      -4.982  -1.583 -33.640  1.00  0.00     0.015 A 
HETATM   17  C   UNL     1      -4.045  -2.618 -33.559  1.00  0.00     0.024 A 
HETATM   18  C   UNL     1      -4.360  -3.874 -34.069  1.00  0.00     0.034 A 
HETATM   19 CL   UNL     1      -3.211  -5.150 -33.973  1.00  0.00    -0.084 Cl
HETATM   20  C   UNL     1      -5.601  -4.104 -34.657  1.00  0.00     0.024 A 
HETATM   21  C   UNL     1      -6.536  -3.066 -34.740  1.00  0.00     0.015 A 
ENDBRANCH  13  15
ENDBRANCH   5   9
BRANCH   1  22
HETATM   22  C   UNL     1     -12.484   5.514 -34.136  1.00  0.00     0.107 C 
BRANCH  22  23
HETATM   23  C   UNL     1     -13.632   6.372 -34.663  1.00  0.00     0.048 C 
BRANCH  23  24
HETATM   24  C   UNL     1     -13.182   7.188 -35.853  1.00  0.00    -0.055 A 
HETATM   25  C   UNL     1     -11.927   7.821 -35.841  1.00  0.00     0.044 A 
HETATM   26  C   UNL     1     -11.479   8.534 -36.954  1.00  0.00     0.068 A 
HETATM   27  C   UNL     1     -12.295   8.618 -38.083  1.00  0.00     0.037 A 
HETATM   28  C   UNL     1     -13.543   7.995 -38.107  1.00  0.00     0.003 A 
HETATM   29  C   UNL     1     -13.985   7.277 -36.996  1.00  0.00     0.007 A 
BRANCH  26  30
HETATM   30  O   UNL     1     -10.279   9.180 -37.067  1.00  0.00    -0.356 OA
HETATM   31  C   UNL     1     -10.033   9.873 -38.285  1.00  0.00     0.210 C 
ENDBRANCH  26  30
ENDBRANCH  23  24
ENDBRANCH  22  23
ENDBRANCH   1  22
TORSDOF 6
ENDMDL
MODEL 9
REMARK VINA RESULT:      -7.9     18.930     21.299
REMARK  6 active torsions:
REMARK  status: ('A' for Active; 'I' for Inactive)
REMARK    1  A    between atoms: O_2  and  C_3 
REMARK    2  A    between atoms: C_5  and  C_6 
REMARK    3  A    between atoms: C_6  and  C_7 
REMARK    4  A    between atoms: C_7  and  C_8 
REMARK       I    between atoms: C_8  and  N_9 
REMARK    5  A    between atoms: N_12  and  C_13 
REMARK    6  A    between atoms: C_17  and  C_18 
ROOT
HETATM    1  C   UNL     1      -6.215 -14.142 -36.901  1.00  0.00     0.220 C 
HETATM    2  N   UNL     1      -5.622 -14.126 -35.643  1.00  0.00    -0.349 N 
HETATM    3  C   UNL     1      -6.315 -13.700 -34.417  1.00  0.00     0.145 C 
HETATM    4  C   UNL     1      -6.923 -14.928 -33.708  1.00  0.00     0.144 C 
HETATM    5  N   UNL     1      -5.876 -15.945 -33.438  1.00  0.00    -0.363 N 
HETATM    6  C   UNL     1      -5.122 -16.341 -34.660  1.00  0.00     0.144 C 
HETATM    7  C   UNL     1      -4.550 -15.094 -35.375  1.00  0.00     0.145 C 
HETATM    8  O   UNL     1      -5.757 -14.806 -37.831  1.00  0.00    -0.273 OA
ENDROOT
BRANCH   5   9
HETATM    9  C   UNL     1      -5.273 -15.973 -32.211  1.00  0.00     0.122 A 
HETATM   10  N   UNL     1      -5.894 -15.542 -31.068  1.00  0.00    -0.262 N 
HETATM   11  H   UNL     1      -6.825 -15.154 -30.984  1.00  0.00     0.191 HD
HETATM   12  N   UNL     1      -5.138 -15.615 -29.962  1.00  0.00    -0.173 NA
HETATM   13  C   UNL     1      -3.955 -16.077 -30.395  1.00  0.00     0.090 A 
HETATM   14  C   UNL     1      -4.000 -16.307 -31.799  1.00  0.00     0.084 A 
BRANCH  13  15
HETATM   15  C   UNL     1      -2.823 -16.270 -29.484  1.00  0.00    -0.005 A 
HETATM   16  C   UNL     1      -2.903 -17.206 -28.440  1.00  0.00     0.015 A 
HETATM   17  C   UNL     1      -1.838 -17.385 -27.551  1.00  0.00     0.024 A 
HETATM   18  C   UNL     1      -0.679 -16.632 -27.705  1.00  0.00     0.034 A 
HETATM   19 CL   UNL     1       0.633 -16.847 -26.614  1.00  0.00    -0.084 Cl
HETATM   20  C   UNL     1      -0.574 -15.702 -28.737  1.00  0.00     0.024 A 
HETATM   21  C   UNL     1      -1.643 -15.522 -29.623  1.00  0.00     0.015 A 
ENDBRANCH  13  15
ENDBRANCH   5   9
BRANCH   1  22
HETATM   22  C   UNL     1      -7.467 -13.300 -37.072  1.00  0.00     0.107 C 
BRANCH  22  23
HETATM   23  C   UNL     1      -7.496 -12.563 -38.409  1.00  0.00     0.048 C 
BRANCH  23  24
HETATM   24  C   UNL     1      -8.738 -12.927 -39.189  1.00  0.00    -0.055 A 
HETATM   25  C   UNL     1      -9.087 -14.277 -39.369  1.00  0.00     0.044 A 
HETATM   26  C   UNL     1     -10.259 -14.624 -40.043  1.00  0.00     0.068 A 
HETATM   27  C   UNL     1     -11.083 -13.615 -40.544  1.00  0.00     0.037 A 
HETATM   28  C   UNL     1     -10.746 -12.272 -40.372  1.00  0.00     0.003 A 
HETATM   29  C   UNL     1      -9.579 -11.928 -39.692  1.00  0.00     0.007 A 
BRANCH  26  30
HETATM   30  O   UNL     1     -10.711 -15.896 -40.271  1.00  0.00    -0.356 OA
HETATM   31  C   UNL     1     -10.712 -16.346 -41.621  1.00  0.00     0.210 C 
ENDBRANCH  26  30
ENDBRANCH  23  24
ENDBRANCH  22  23
ENDBRANCH   1  22
TORSDOF 6
ENDMDL
MODEL 10
REMARK VINA RESULT:      -7.8      6.527     12.422
REMARK  6 active torsions:
REMARK  status: ('A' for Active; 'I' for Inactive)
REMARK    1  A    between atoms: O_2  and  C_3 
REMARK    2  A    between atoms: C_5  and  C_6 
REMARK    3  A    between atoms: C_6  and  C_7 
REMARK    4  A    between atoms: C_7  and  C_8 
REMARK       I    between atoms: C_8  and  N_9 
REMARK    5  A    between atoms: N_12  and  C_13 
REMARK    6  A    between atoms: C_17  and  C_18 
ROOT
HETATM    1  C   UNL     1      -0.973   6.997 -29.168  1.00  0.00     0.220 C 
HETATM    2  N   UNL     1      -0.361   7.051 -27.919  1.00  0.00    -0.349 N 
HETATM    3  C   UNL     1       1.089   7.210 -27.726  1.00  0.00     0.145 C 
HETATM    4  C   UNL     1       1.431   8.704 -27.549  1.00  0.00     0.144 C 
HETATM    5  N   UNL     1       0.647   9.288 -26.431  1.00  0.00    -0.363 N 
HETATM    6  C   UNL     1      -0.821   9.081 -26.582  1.00  0.00     0.144 C 
HETATM    7  C   UNL     1      -1.140   7.582 -26.793  1.00  0.00     0.145 C 
HETATM    8  O   UNL     1      -2.177   7.208 -29.314  1.00  0.00    -0.273 OA
ENDROOT
BRANCH   5   9
HETATM    9  C   UNL     1       1.213   9.371 -25.190  1.00  0.00     0.122 A 
HETATM   10  N   UNL     1       0.555   9.896 -24.108  1.00  0.00    -0.262 N 
HETATM   11  H   UNL     1      -0.379  10.285 -24.087  1.00  0.00     0.191 HD
HETATM   12  N   UNL     1       1.276   9.925 -22.977  1.00  0.00    -0.173 NA
HETATM   13  C   UNL     1       2.473   9.433 -23.332  1.00  0.00     0.090 A 
HETATM   14  C   UNL     1       2.473   9.082 -24.711  1.00  0.00     0.084 A 
BRANCH  13  15
HETATM   15  C   UNL     1       3.578   9.328 -22.373  1.00  0.00    -0.005 A 
HETATM   16  C   UNL     1       3.917   8.084 -21.816  1.00  0.00     0.015 A 
HETATM   17  C   UNL     1       4.955   7.973 -20.885  1.00  0.00     0.024 A 
HETATM   18  C   UNL     1       5.668   9.107 -20.509  1.00  0.00     0.034 A 
HETATM   19 CL   UNL     1       6.945   8.975 -19.364  1.00  0.00    -0.084 Cl
HETATM   20  C   UNL     1       5.354  10.349 -21.055  1.00  0.00     0.024 A 
HETATM   21  C   UNL     1       4.312  10.459 -21.984  1.00  0.00     0.015 A 
ENDBRANCH  13  15
ENDBRANCH   5   9
BRANCH   1  22
HETATM   22  C   UNL     1      -0.077   6.669 -30.349  1.00  0.00     0.107 C 
BRANCH  22  23
HETATM   23  C   UNL     1      -0.334   5.270 -30.904  1.00  0.00     0.048 C 
BRANCH  23  24
HETATM   24  C   UNL     1      -1.274   5.331 -32.086  1.00  0.00    -0.055 A 
HETATM   25  C   UNL     1      -2.468   4.589 -32.077  1.00  0.00     0.044 A 
HETATM   26  C   UNL     1      -3.368   4.678 -33.140  1.00  0.00     0.068 A 
HETATM   27  C   UNL     1      -3.069   5.511 -34.219  1.00  0.00     0.037 A 
HETATM   28  C   UNL     1      -1.887   6.252 -34.240  1.00  0.00     0.003 A 
HETATM   29  C   UNL     1      -0.993   6.166 -33.174  1.00  0.00     0.007 A 
BRANCH  26  30
HETATM   30  O   UNL     1      -4.562   4.017 -33.242  1.00  0.00    -0.356 OA
HETATM   31  C   UNL     1      -5.407   4.378 -34.327  1.00  0.00     0.210 C 
ENDBRANCH  26  30
ENDBRANCH  23  24
ENDBRANCH  22  23
ENDBRANCH   1  22
TORSDOF 6
ENDMDL
