MODEL 1
REMARK VINA RESULT:      -9.1      0.000      0.000
REMARK  6 active torsions:
REMARK  status: ('A' for Active; 'I' for Inactive)
REMARK    1  A    between atoms: C_2  and  C_3 
REMARK    2  A    between atoms: C_7  and  N_8 
REMARK    3  A    between atoms: N_8  and  C_9 
REMARK    4  A    between atoms: C_12  and  N_13 
REMARK       I    between atoms: N_13  and  C_14 
REMARK       I    between atoms: C_14  and  N_15 
REMARK    5  A    between atoms: N_15  and  C_16 
REMARK    6  A    between atoms: N_24  and  C_25 
ROOT
HETATM    1  C   UNL     1      -7.239   0.152 -34.325  1.00  0.00     0.130 A 
HETATM    2  N   UNL     1      -8.543   0.458 -34.221  1.00  0.00    -0.213 NA
HETATM    3  C   UNL     1      -8.758   1.677 -33.689  1.00  0.00     0.169 A 
HETATM    4  C   UNL     1      -7.767   2.559 -33.284  1.00  0.00     0.078 A 
HETATM    5  C   UNL     1      -6.429   2.179 -33.486  1.00  0.00     0.121 A 
HETATM    6  N   UNL     1      -6.201   0.950 -34.003  1.00  0.00    -0.221 NA
HETATM    7  N   UNL     1      -9.975   2.314 -33.451  1.00  0.00    -0.214 N 
HETATM    8  N   UNL     1      -9.788   3.526 -32.845  1.00  0.00    -0.170 NA
HETATM    9  C   UNL     1      -8.464   3.667 -32.748  1.00  0.00     0.069 A 
HETATM   10  C   UNL     1      -7.907   4.892 -32.122  1.00  0.00     0.073 C 
ENDROOT
BRANCH   5  11
HETATM   11  N   UNL     1      -5.363   3.026 -33.174  1.00  0.00    -0.272 NA
HETATM   12  H   UNL     1      -4.881   3.309 -34.018  1.00  0.00     0.129 HD
BRANCH  11  13
HETATM   13  C   UNL     1      -4.453   2.597 -32.101  1.00  0.00     0.062 C 
HETATM   14  C   UNL     1      -3.008   2.842 -32.559  1.00  0.00     0.022 C 
HETATM   15  C   UNL     1      -2.671   4.325 -32.713  1.00  0.00     0.027 C 
HETATM   16  C   UNL     1      -3.105   5.225 -31.548  1.00  0.00     0.086 C 
HETATM   17  C   UNL     1      -4.456   4.860 -30.923  1.00  0.00     0.027 C 
HETATM   18  C   UNL     1      -4.738   3.363 -30.806  1.00  0.00     0.022 C 
BRANCH  16  19
HETATM   19  N   UNL     1      -2.045   5.462 -30.569  1.00  0.00    -0.339 N 
HETATM   20  C   UNL     1      -1.929   6.547 -29.742  1.00  0.00     0.317 C 
HETATM   21  N   UNL     1      -0.854   6.380 -28.898  1.00  0.00    -0.335 N 
HETATM   22  O   UNL     1      -2.680   7.507 -29.731  1.00  0.00    -0.247 OA
HETATM   23  H   UNL     1      -0.655   5.407 -28.718  1.00  0.00     0.165 HD
HETATM   24  H   UNL     1      -1.163   5.013 -30.767  1.00  0.00     0.164 HD
BRANCH  21  25
HETATM   25  C   UNL     1      -0.515   7.305 -27.804  1.00  0.00     0.023 C 
HETATM   26  C   UNL     1      -1.443   7.087 -26.598  1.00  0.00     0.037 C 
HETATM   27  C   UNL     1       0.932   7.004 -27.371  1.00  0.00     0.037 C 
HETATM   28  C   UNL     1      -0.580   8.770 -28.265  1.00  0.00     0.037 C 
ENDBRANCH  21  25
ENDBRANCH  16  19
ENDBRANCH  11  13
ENDBRANCH   5  11
BRANCH   1  29
HETATM   29  C   UNL     1      -6.901  -1.199 -34.896  1.00  0.00     0.076 C 
HETATM   30  C   UNL     1      -5.656  -1.779 -34.244  1.00  0.00     0.013 C 
ENDBRANCH   1  29
BRANCH   7  31
HETATM   31  C   UNL     1     -11.304   1.890 -33.765  1.00  0.00     0.060 A 
HETATM   32  C   UNL     1     -12.223   2.729 -34.403  1.00  0.00     0.032 A 
HETATM   33  C   UNL     1     -13.525   2.283 -34.667  1.00  0.00     0.009 A 
HETATM   34  C   UNL     1     -13.926   0.992 -34.308  1.00  0.00    -0.062 A 
HETATM   35  C   UNL     1     -15.330   0.526 -34.553  1.00  0.00     0.048 C 
HETATM   36  C   UNL     1     -13.011   0.153 -33.666  1.00  0.00     0.009 A 
HETATM   37  C   UNL     1     -11.711   0.595 -33.401  1.00  0.00     0.032 A 
ENDBRANCH   7  31
TORSDOF 6
ENDMDL
MODEL 2
REMARK VINA RESULT:      -9.0      4.224     11.620
REMARK  6 active torsions:
REMARK  status: ('A' for Active; 'I' for Inactive)
REMARK    1  A    between atoms: C_2  and  C_3 
REMARK    2  A    between atoms: C_7  and  N_8 
REMARK    3  A    between atoms: N_8  and  C_9 
REMARK    4  A    between atoms: C_12  and  N_13 
REMARK       I    between atoms: N_13  and  C_14 
REMARK       I    between atoms: C_14  and  N_15 
REMARK    5  A    between atoms: N_15  and  C_16 
REMARK    6  A    between atoms: N_24  and  C_25 
ROOT
HETATM    1  C   UNL     1      -2.367   9.885 -29.992  1.00  0.00     0.130 A 
HETATM    2  N   UNL     1      -1.592   9.620 -28.927  1.00  0.00    -0.213 NA
HETATM    3  C   UNL     1      -0.847   8.507 -29.081  1.00  0.00     0.169 A 
HETATM    4  C   UNL     1      -0.845   7.696 -30.205  1.00  0.00     0.078 A 
HETATM    5  C   UNL     1      -1.643   8.083 -31.295  1.00  0.00     0.121 A 
HETATM    6  N   UNL     1      -2.408   9.189 -31.146  1.00  0.00    -0.221 NA
HETATM    7  N   UNL     1       0.069   7.950 -28.190  1.00  0.00    -0.214 N 
HETATM    8  N   UNL     1       0.588   6.783 -28.680  1.00  0.00    -0.170 NA
HETATM    9  C   UNL     1       0.037   6.636 -29.887  1.00  0.00     0.069 A 
HETATM   10  C   UNL     1       0.386   5.448 -30.706  1.00  0.00     0.073 C 
ENDROOT
BRANCH   5  11
HETATM   11  N   UNL     1      -1.656   7.369 -32.496  1.00  0.00    -0.272 NA
HETATM   12  H   UNL     1      -1.111   7.854 -33.198  1.00  0.00     0.129 HD
BRANCH  11  13
HETATM   13  C   UNL     1      -2.961   6.906 -32.991  1.00  0.00     0.062 C 
HETATM   14  C   UNL     1      -2.724   5.932 -34.154  1.00  0.00     0.022 C 
HETATM   15  C   UNL     1      -2.048   4.632 -33.721  1.00  0.00     0.027 C 
HETATM   16  C   UNL     1      -2.643   3.963 -32.474  1.00  0.00     0.086 C 
HETATM   17  C   UNL     1      -3.095   4.934 -31.377  1.00  0.00     0.027 C 
HETATM   18  C   UNL     1      -3.754   6.219 -31.875  1.00  0.00     0.022 C 
BRANCH  16  19
HETATM   19  N   UNL     1      -3.622   2.922 -32.782  1.00  0.00    -0.339 N 
HETATM   20  C   UNL     1      -3.747   1.711 -32.156  1.00  0.00     0.317 C 
HETATM   21  N   UNL     1      -4.834   1.033 -32.658  1.00  0.00    -0.335 N 
HETATM   22  O   UNL     1      -3.022   1.301 -31.265  1.00  0.00    -0.247 OA
HETATM   23  H   UNL     1      -5.548   1.657 -33.005  1.00  0.00     0.165 HD
HETATM   24  H   UNL     1      -3.970   2.921 -33.729  1.00  0.00     0.164 HD
BRANCH  21  25
HETATM   25  C   UNL     1      -5.323  -0.249 -32.125  1.00  0.00     0.023 C 
HETATM   26  C   UNL     1      -5.954  -0.057 -30.737  1.00  0.00     0.037 C 
HETATM   27  C   UNL     1      -6.405  -0.772 -33.089  1.00  0.00     0.037 C 
HETATM   28  C   UNL     1      -4.199  -1.296 -32.056  1.00  0.00     0.037 C 
ENDBRANCH  21  25
ENDBRANCH  16  19
ENDBRANCH  11  13
ENDBRANCH   5  11
BRANCH   1  29
HETATM   29  C   UNL     1      -3.247  11.103 -29.905  1.00  0.00     0.076 C 
HETATM   30  C   UNL     1      -4.621  10.835 -30.498  1.00  0.00     0.013 C 
ENDBRANCH   1  29
BRANCH   7  31
HETATM   31  C   UNL     1       0.518   8.434 -26.921  1.00  0.00     0.060 A 
HETATM   32  C   UNL     1      -0.346   9.049 -26.009  1.00  0.00     0.032 A 
HETATM   33  C   UNL     1       0.141   9.535 -24.789  1.00  0.00     0.009 A 
HETATM   34  C   UNL     1       1.493   9.405 -24.455  1.00  0.00    -0.062 A 
HETATM   35  C   UNL     1       2.026   9.959 -23.167  1.00  0.00     0.048 C 
HETATM   36  C   UNL     1       2.360   8.795 -25.366  1.00  0.00     0.009 A 
HETATM   37  C   UNL     1       1.877   8.309 -26.586  1.00  0.00     0.032 A 
ENDBRANCH   7  31
TORSDOF 6
ENDMDL
MODEL 3
REMARK VINA RESULT:      -8.6      2.898     10.994
REMARK  6 active torsions:
REMARK  status: ('A' for Active; 'I' for Inactive)
REMARK    1  A    between atoms: C_2  and  C_3 
REMARK    2  A    between atoms: C_7  and  N_8 
REMARK    3  A    between atoms: N_8  and  C_9 
REMARK    4  A    between atoms: C_12  and  N_13 
REMARK       I    between atoms: N_13  and  C_14 
REMARK       I    between atoms: C_14  and  N_15 
REMARK    5  A    between atoms: N_15  and  C_16 
REMARK    6  A    between atoms: N_24  and  C_25 
ROOT
HETATM    1  C   UNL     1      -2.081   6.086 -32.601  1.00  0.00     0.130 A 
HETATM    2  N   UNL     1      -1.629   6.515 -31.411  1.00  0.00    -0.213 NA
HETATM    3  C   UNL     1      -2.605   6.640 -30.489  1.00  0.00     0.169 A 
HETATM    4  C   UNL     1      -3.946   6.360 -30.702  1.00  0.00     0.078 A 
HETATM    5  C   UNL     1      -4.319   5.859 -31.962  1.00  0.00     0.121 A 
HETATM    6  N   UNL     1      -3.351   5.746 -32.899  1.00  0.00    -0.221 NA
HETATM    7  N   UNL     1      -2.491   7.044 -29.160  1.00  0.00    -0.214 N 
HETATM    8  N   UNL     1      -3.717   7.099 -28.555  1.00  0.00    -0.170 NA
HETATM    9  C   UNL     1      -4.583   6.689 -29.483  1.00  0.00     0.069 A 
HETATM   10  C   UNL     1      -6.030   6.633 -29.154  1.00  0.00     0.073 C 
ENDROOT
BRANCH   5  11
HETATM   11  N   UNL     1      -5.634   5.484 -32.250  1.00  0.00    -0.272 NA
HETATM   12  H   UNL     1      -6.271   5.889 -31.576  1.00  0.00     0.129 HD
BRANCH  11  13
HETATM   13  C   UNL     1      -5.887   4.058 -32.505  1.00  0.00     0.062 C 
HETATM   14  C   UNL     1      -6.611   3.466 -31.287  1.00  0.00     0.022 C 
HETATM   15  C   UNL     1      -8.020   4.028 -31.094  1.00  0.00     0.027 C 
HETATM   16  C   UNL     1      -8.888   4.078 -32.359  1.00  0.00     0.086 C 
HETATM   17  C   UNL     1      -8.137   4.455 -33.641  1.00  0.00     0.027 C 
HETATM   18  C   UNL     1      -6.731   3.871 -33.768  1.00  0.00     0.022 C 
BRANCH  16  19
HETATM   19  N   UNL     1      -9.767   2.920 -32.508  1.00  0.00    -0.339 N 
HETATM   20  C   UNL     1     -11.025   2.917 -33.049  1.00  0.00     0.317 C 
HETATM   21  N   UNL     1     -11.510   1.630 -33.101  1.00  0.00    -0.335 N 
HETATM   22  O   UNL     1     -11.620   3.901 -33.452  1.00  0.00    -0.247 OA
HETATM   23  H   UNL     1     -10.772   0.945 -33.179  1.00  0.00     0.165 HD
HETATM   24  H   UNL     1      -9.612   2.170 -31.851  1.00  0.00     0.164 HD
BRANCH  21  25
HETATM   25  C   UNL     1     -12.785   1.256 -33.733  1.00  0.00     0.023 C 
HETATM   26  C   UNL     1     -12.755   1.554 -35.241  1.00  0.00     0.037 C 
HETATM   27  C   UNL     1     -12.977  -0.260 -33.537  1.00  0.00     0.037 C 
HETATM   28  C   UNL     1     -13.973   1.976 -33.074  1.00  0.00     0.037 C 
ENDBRANCH  21  25
ENDBRANCH  16  19
ENDBRANCH  11  13
ENDBRANCH   5  11
BRANCH   1  29
HETATM   29  C   UNL     1      -1.063   5.931 -33.699  1.00  0.00     0.076 C 
HETATM   30  C   UNL     1      -1.645   5.187 -34.890  1.00  0.00     0.013 C 
ENDBRANCH   1  29
BRANCH   7  31
HETATM   31  C   UNL     1      -1.323   7.362 -28.399  1.00  0.00     0.060 A 
HETATM   32  C   UNL     1      -0.178   7.911 -28.984  1.00  0.00     0.032 A 
HETATM   33  C   UNL     1       0.955   8.181 -28.207  1.00  0.00     0.009 A 
HETATM   34  C   UNL     1       0.961   7.917 -26.833  1.00  0.00    -0.062 A 
HETATM   35  C   UNL     1       2.186   8.167 -26.005  1.00  0.00     0.048 C 
HETATM   36  C   UNL     1      -0.180   7.363 -26.246  1.00  0.00     0.009 A 
HETATM   37  C   UNL     1      -1.313   7.092 -27.020  1.00  0.00     0.032 A 
ENDBRANCH   7  31
TORSDOF 6
ENDMDL
MODEL 4
REMARK VINA RESULT:      -8.5      4.099      6.992
REMARK  6 active torsions:
REMARK  status: ('A' for Active; 'I' for Inactive)
REMARK    1  A    between atoms: C_2  and  C_3 
REMARK    2  A    between atoms: C_7  and  N_8 
REMARK    3  A    between atoms: N_8  and  C_9 
REMARK    4  A    between atoms: C_12  and  N_13 
REMARK       I    between atoms: N_13  and  C_14 
REMARK       I    between atoms: C_14  and  N_15 
REMARK    5  A    between atoms: N_15  and  C_16 
REMARK    6  A    between atoms: N_24  and  C_25 
ROOT
HETATM    1  C   UNL     1      -8.351   2.572 -33.623  1.00  0.00     0.130 A 
HETATM    2  N   UNL     1      -7.672   1.426 -33.802  1.00  0.00    -0.213 NA
HETATM    3  C   UNL     1      -6.451   1.442 -33.233  1.00  0.00     0.169 A 
HETATM    4  C   UNL     1      -5.914   2.505 -32.522  1.00  0.00     0.078 A 
HETATM    5  C   UNL     1      -6.719   3.641 -32.333  1.00  0.00     0.121 A 
HETATM    6  N   UNL     1      -7.940   3.643 -32.914  1.00  0.00    -0.221 NA
HETATM    7  N   UNL     1      -5.494   0.429 -33.213  1.00  0.00    -0.214 N 
HETATM    8  N   UNL     1      -4.352   0.841 -32.582  1.00  0.00    -0.170 NA
HETATM    9  C   UNL     1      -4.609   2.085 -32.171  1.00  0.00     0.069 A 
HETATM   10  C   UNL     1      -3.561   2.842 -31.442  1.00  0.00     0.073 C 
ENDROOT
BRANCH   5  11
HETATM   11  N   UNL     1      -6.294   4.734 -31.574  1.00  0.00    -0.272 NA
HETATM   12  H   UNL     1      -5.420   5.094 -31.936  1.00  0.00     0.129 HD
BRANCH  11  13
HETATM   13  C   UNL     1      -6.298   4.581 -30.112  1.00  0.00     0.062 C 
HETATM   14  C   UNL     1      -5.981   5.943 -29.477  1.00  0.00     0.022 C 
HETATM   15  C   UNL     1      -7.077   6.983 -29.709  1.00  0.00     0.027 C 
HETATM   16  C   UNL     1      -8.510   6.502 -29.442  1.00  0.00     0.086 C 
HETATM   17  C   UNL     1      -8.793   5.057 -29.870  1.00  0.00     0.027 C 
HETATM   18  C   UNL     1      -7.655   4.069 -29.621  1.00  0.00     0.022 C 
BRANCH  16  19
HETATM   19  N   UNL     1      -8.994   6.827 -28.102  1.00  0.00    -0.339 N 
HETATM   20  C   UNL     1      -9.967   7.737 -27.787  1.00  0.00     0.317 C 
HETATM   21  N   UNL     1     -10.215   7.708 -26.433  1.00  0.00    -0.335 N 
HETATM   22  O   UNL     1     -10.551   8.448 -28.586  1.00  0.00    -0.247 OA
HETATM   23  H   UNL     1     -10.019   6.805 -26.026  1.00  0.00     0.165 HD
HETATM   24  H   UNL     1      -8.336   6.668 -27.353  1.00  0.00     0.164 HD
BRANCH  21  25
HETATM   25  C   UNL     1     -11.285   8.476 -25.776  1.00  0.00     0.023 C 
HETATM   26  C   UNL     1     -12.620   8.296 -26.517  1.00  0.00     0.037 C 
HETATM   27  C   UNL     1     -11.440   7.929 -24.344  1.00  0.00     0.037 C 
HETATM   28  C   UNL     1     -10.929   9.969 -25.680  1.00  0.00     0.037 C 
ENDBRANCH  21  25
ENDBRANCH  16  19
ENDBRANCH  11  13
ENDBRANCH   5  11
BRANCH   1  29
HETATM   29  C   UNL     1      -9.723   2.652 -34.238  1.00  0.00     0.076 C 
HETATM   30  C   UNL     1     -10.554   1.426 -33.895  1.00  0.00     0.013 C 
ENDBRANCH   1  29
BRANCH   7  31
HETATM   31  C   UNL     1      -5.568  -0.907 -33.717  1.00  0.00     0.060 A 
HETATM   32  C   UNL     1      -4.432  -1.707 -33.879  1.00  0.00     0.032 A 
HETATM   33  C   UNL     1      -4.546  -3.001 -34.403  1.00  0.00     0.009 A 
HETATM   34  C   UNL     1      -5.793  -3.520 -34.764  1.00  0.00    -0.062 A 
HETATM   35  C   UNL     1      -5.915  -4.889 -35.363  1.00  0.00     0.048 C 
HETATM   36  C   UNL     1      -6.929  -2.721 -34.608  1.00  0.00     0.009 A 
HETATM   37  C   UNL     1      -6.820  -1.429 -34.085  1.00  0.00     0.032 A 
ENDBRANCH   7  31
TORSDOF 6
ENDMDL
MODEL 5
REMARK VINA RESULT:      -8.4      2.855      9.694
REMARK  6 active torsions:
REMARK  status: ('A' for Active; 'I' for Inactive)
REMARK    1  A    between atoms: C_2  and  C_3 
REMARK    2  A    between atoms: C_7  and  N_8 
REMARK    3  A    between atoms: N_8  and  C_9 
REMARK    4  A    between atoms: C_12  and  N_13 
REMARK       I    between atoms: N_13  and  C_14 
REMARK       I    between atoms: C_14  and  N_15 
REMARK    5  A    between atoms: N_15  and  C_16 
REMARK    6  A    between atoms: N_24  and  C_25 
ROOT
HETATM    1  C   UNL     1      -3.459   0.893 -31.788  1.00  0.00     0.130 A 
HETATM    2  N   UNL     1      -2.948   2.120 -31.589  1.00  0.00    -0.213 NA
HETATM    3  C   UNL     1      -3.702   3.099 -32.128  1.00  0.00     0.169 A 
HETATM    4  C   UNL     1      -4.890   2.905 -32.818  1.00  0.00     0.078 A 
HETATM    5  C   UNL     1      -5.378   1.592 -32.926  1.00  0.00     0.121 A 
HETATM    6  N   UNL     1      -4.622   0.600 -32.404  1.00  0.00    -0.221 NA
HETATM    7  N   UNL     1      -3.480   4.474 -32.100  1.00  0.00    -0.214 N 
HETATM    8  N   UNL     1      -4.441   5.144 -32.808  1.00  0.00    -0.170 NA
HETATM    9  C   UNL     1      -5.281   4.199 -33.236  1.00  0.00     0.069 A 
HETATM   10  C   UNL     1      -6.456   4.588 -34.055  1.00  0.00     0.073 C 
ENDROOT
BRANCH   5  11
HETATM   11  N   UNL     1      -6.599   1.304 -33.542  1.00  0.00    -0.272 NA
HETATM   12  H   UNL     1      -6.916   2.099 -34.082  1.00  0.00     0.129 HD
BRANCH  11  13
HETATM   13  C   UNL     1      -7.653   0.712 -32.705  1.00  0.00     0.062 C 
HETATM   14  C   UNL     1      -8.108   1.761 -31.680  1.00  0.00     0.022 C 
HETATM   15  C   UNL     1      -8.816   2.956 -32.317  1.00  0.00     0.027 C 
HETATM   16  C   UNL     1      -9.891   2.609 -33.355  1.00  0.00     0.086 C 
HETATM   17  C   UNL     1      -9.555   1.414 -34.255  1.00  0.00     0.027 C 
HETATM   18  C   UNL     1      -8.838   0.257 -33.562  1.00  0.00     0.022 C 
BRANCH  16  19
HETATM   19  N   UNL     1     -11.244   2.569 -32.803  1.00  0.00    -0.339 N 
HETATM   20  C   UNL     1     -12.036   3.647 -32.510  1.00  0.00     0.317 C 
HETATM   21  N   UNL     1     -13.274   3.218 -32.088  1.00  0.00    -0.335 N 
HETATM   22  O   UNL     1     -11.708   4.814 -32.630  1.00  0.00    -0.247 OA
HETATM   23  H   UNL     1     -13.523   2.321 -32.479  1.00  0.00     0.165 HD
HETATM   24  H   UNL     1     -11.466   1.749 -32.257  1.00  0.00     0.164 HD
BRANCH  21  25
HETATM   25  C   UNL     1     -14.404   4.118 -31.806  1.00  0.00     0.023 C 
HETATM   26  C   UNL     1     -15.731   3.342 -31.803  1.00  0.00     0.037 C 
HETATM   27  C   UNL     1     -14.184   4.718 -30.404  1.00  0.00     0.037 C 
HETATM   28  C   UNL     1     -14.470   5.275 -32.816  1.00  0.00     0.037 C 
ENDBRANCH  21  25
ENDBRANCH  16  19
ENDBRANCH  11  13
ENDBRANCH   5  11
BRANCH   1  29
HETATM   29  C   UNL     1      -2.676  -0.267 -31.233  1.00  0.00     0.076 C 
HETATM   30  C   UNL     1      -3.116  -1.580 -31.860  1.00  0.00     0.013 C 
ENDBRANCH   1  29
BRANCH   7  31
HETATM   31  C   UNL     1      -2.452   5.221 -31.444  1.00  0.00     0.060 A 
HETATM   32  C   UNL     1      -1.095   5.016 -31.713  1.00  0.00     0.032 A 
HETATM   33  C   UNL     1      -0.118   5.749 -31.026  1.00  0.00     0.009 A 
HETATM   34  C   UNL     1      -0.480   6.702 -30.069  1.00  0.00    -0.062 A 
HETATM   35  C   UNL     1       0.564   7.460 -29.303  1.00  0.00     0.048 C 
HETATM   36  C   UNL     1      -1.835   6.905 -29.795  1.00  0.00     0.009 A 
HETATM   37  C   UNL     1      -2.813   6.176 -30.478  1.00  0.00     0.032 A 
ENDBRANCH   7  31
TORSDOF 6
ENDMDL
MODEL 6
REMARK VINA RESULT:      -8.3      4.022      7.643
REMARK  6 active torsions:
REMARK  status: ('A' for Active; 'I' for Inactive)
REMARK    1  A    between atoms: C_2  and  C_3 
REMARK    2  A    between atoms: C_7  and  N_8 
REMARK    3  A    between atoms: N_8  and  C_9 
REMARK    4  A    between atoms: C_12  and  N_13 
REMARK       I    between atoms: N_13  and  C_14 
REMARK       I    between atoms: C_14  and  N_15 
REMARK    5  A    between atoms: N_15  and  C_16 
REMARK    6  A    between atoms: N_24  and  C_25 
ROOT
HETATM    1  C   UNL     1      -4.699   6.530 -28.901  1.00  0.00     0.130 A 
HETATM    2  N   UNL     1      -4.886   5.720 -29.956  1.00  0.00    -0.213 NA
HETATM    3  C   UNL     1      -3.808   5.647 -30.762  1.00  0.00     0.169 A 
HETATM    4  C   UNL     1      -2.610   6.316 -30.558  1.00  0.00     0.078 A 
HETATM    5  C   UNL     1      -2.485   7.095 -29.395  1.00  0.00     0.121 A 
HETATM    6  N   UNL     1      -3.565   7.188 -28.587  1.00  0.00    -0.221 NA
HETATM    7  N   UNL     1      -3.649   4.900 -31.928  1.00  0.00    -0.214 N 
HETATM    8  N   UNL     1      -2.429   5.131 -32.501  1.00  0.00    -0.170 NA
HETATM    9  C   UNL     1      -1.812   5.980 -31.676  1.00  0.00     0.069 A 
HETATM   10  C   UNL     1      -0.443   6.450 -32.007  1.00  0.00     0.073 C 
ENDROOT
BRANCH   5  11
HETATM   11  N   UNL     1      -1.295   7.750 -29.066  1.00  0.00    -0.272 NA
HETATM   12  H   UNL     1      -1.066   8.437 -29.774  1.00  0.00     0.129 HD
BRANCH  11  13
HETATM   13  C   UNL     1      -0.150   6.914 -28.676  1.00  0.00     0.062 C 
HETATM   14  C   UNL     1       1.115   7.784 -28.682  1.00  0.00     0.022 C 
HETATM   15  C   UNL     1       1.104   8.865 -27.601  1.00  0.00     0.027 C 
HETATM   16  C   UNL     1       0.692   8.393 -26.200  1.00  0.00     0.086 C 
HETATM   17  C   UNL     1      -0.430   7.349 -26.177  1.00  0.00     0.027 C 
HETATM   18  C   UNL     1      -0.370   6.303 -27.289  1.00  0.00     0.022 C 
BRANCH  16  19
HETATM   19  N   UNL     1       1.826   8.060 -25.340  1.00  0.00    -0.339 N 
HETATM   20  C   UNL     1       2.644   8.947 -24.692  1.00  0.00     0.317 C 
HETATM   21  N   UNL     1       3.546   8.265 -23.907  1.00  0.00    -0.335 N 
HETATM   22  O   UNL     1       2.571  10.161 -24.773  1.00  0.00    -0.247 OA
HETATM   23  H   UNL     1       3.188   7.373 -23.598  1.00  0.00     0.165 HD
HETATM   24  H   UNL     1       2.267   7.172 -25.528  1.00  0.00     0.164 HD
BRANCH  21  25
HETATM   25  C   UNL     1       4.494   8.916 -22.987  1.00  0.00     0.023 C 
HETATM   26  C   UNL     1       3.784   9.984 -22.139  1.00  0.00     0.037 C 
HETATM   27  C   UNL     1       5.049   7.831 -22.046  1.00  0.00     0.037 C 
HETATM   28  C   UNL     1       5.676   9.541 -23.746  1.00  0.00     0.037 C 
ENDBRANCH  21  25
ENDBRANCH  16  19
ENDBRANCH  11  13
ENDBRANCH   5  11
BRANCH   1  29
HETATM   29  C   UNL     1      -5.857   6.685 -27.951  1.00  0.00     0.076 C 
HETATM   30  C   UNL     1      -6.842   5.536 -28.089  1.00  0.00     0.013 C 
ENDBRANCH   1  29
BRANCH   7  31
HETATM   31  C   UNL     1      -4.541   3.965 -32.541  1.00  0.00     0.060 A 
HETATM   32  C   UNL     1      -4.530   2.604 -32.221  1.00  0.00     0.032 A 
HETATM   33  C   UNL     1      -5.401   1.717 -32.867  1.00  0.00     0.009 A 
HETATM   34  C   UNL     1      -6.302   2.175 -33.833  1.00  0.00    -0.062 A 
HETATM   35  C   UNL     1      -7.208   1.222 -34.555  1.00  0.00     0.048 C 
HETATM   36  C   UNL     1      -6.312   3.534 -34.159  1.00  0.00     0.009 A 
HETATM   37  C   UNL     1      -5.443   4.422 -33.517  1.00  0.00     0.032 A 
ENDBRANCH   7  31
TORSDOF 6
ENDMDL
MODEL 7
REMARK VINA RESULT:      -8.3      2.103      3.550
REMARK  6 active torsions:
REMARK  status: ('A' for Active; 'I' for Inactive)
REMARK    1  A    between atoms: C_2  and  C_3 
REMARK    2  A    between atoms: C_7  and  N_8 
REMARK    3  A    between atoms: N_8  and  C_9 
REMARK    4  A    between atoms: C_12  and  N_13 
REMARK       I    between atoms: N_13  and  C_14 
REMARK       I    between atoms: C_14  and  N_15 
REMARK    5  A    between atoms: N_15  and  C_16 
REMARK    6  A    between atoms: N_24  and  C_25 
ROOT
HETATM    1  C   UNL     1      -9.442   4.859 -34.220  1.00  0.00     0.130 A 
HETATM    2  N   UNL     1     -10.582   4.200 -33.952  1.00  0.00    -0.213 NA
HETATM    3  C   UNL     1     -10.381   2.909 -33.622  1.00  0.00     0.169 A 
HETATM    4  C   UNL     1      -9.144   2.287 -33.547  1.00  0.00     0.078 A 
HETATM    5  C   UNL     1      -8.001   3.069 -33.786  1.00  0.00     0.121 A 
HETATM    6  N   UNL     1      -8.192   4.362 -34.134  1.00  0.00    -0.221 NA
HETATM    7  N   UNL     1     -11.328   1.948 -33.276  1.00  0.00    -0.214 N 
HETATM    8  N   UNL     1     -10.742   0.731 -33.060  1.00  0.00    -0.170 NA
HETATM    9  C   UNL     1      -9.434   0.940 -33.225  1.00  0.00     0.069 A 
HETATM   10  C   UNL     1      -8.490  -0.194 -33.065  1.00  0.00     0.073 C 
ENDROOT
BRANCH   5  11
HETATM   11  N   UNL     1      -6.709   2.550 -33.667  1.00  0.00    -0.272 NA
HETATM   12  H   UNL     1      -6.600   1.741 -34.265  1.00  0.00     0.129 HD
BRANCH  11  13
HETATM   13  C   UNL     1      -6.188   2.343 -32.308  1.00  0.00     0.062 C 
HETATM   14  C   UNL     1      -4.739   1.847 -32.411  1.00  0.00     0.022 C 
HETATM   15  C   UNL     1      -3.784   2.896 -32.980  1.00  0.00     0.027 C 
HETATM   16  C   UNL     1      -3.909   4.300 -32.373  1.00  0.00     0.086 C 
HETATM   17  C   UNL     1      -5.343   4.737 -32.053  1.00  0.00     0.027 C 
HETATM   18  C   UNL     1      -6.250   3.641 -31.497  1.00  0.00     0.022 C 
BRANCH  16  19
HETATM   19  N   UNL     1      -2.959   4.554 -31.292  1.00  0.00    -0.339 N 
HETATM   20  C   UNL     1      -1.646   4.920 -31.430  1.00  0.00     0.317 C 
HETATM   21  N   UNL     1      -1.092   5.155 -30.192  1.00  0.00    -0.335 N 
HETATM   22  O   UNL     1      -1.060   5.049 -32.491  1.00  0.00    -0.247 OA
HETATM   23  H   UNL     1      -1.778   5.455 -29.515  1.00  0.00     0.165 HD
HETATM   24  H   UNL     1      -3.152   4.077 -30.423  1.00  0.00     0.164 HD
BRANCH  21  25
HETATM   25  C   UNL     1       0.268   5.678 -29.985  1.00  0.00     0.023 C 
HETATM   26  C   UNL     1       0.430   7.053 -30.653  1.00  0.00     0.037 C 
HETATM   27  C   UNL     1       0.480   5.841 -28.468  1.00  0.00     0.037 C 
HETATM   28  C   UNL     1       1.334   4.703 -30.514  1.00  0.00     0.037 C 
ENDBRANCH  21  25
ENDBRANCH  16  19
ENDBRANCH  11  13
ENDBRANCH   5  11
BRANCH   1  29
HETATM   29  C   UNL     1      -9.570   6.306 -34.613  1.00  0.00     0.076 C 
HETATM   30  C   UNL     1     -10.878   6.900 -34.116  1.00  0.00     0.013 C 
ENDBRANCH   1  29
BRANCH   7  31
HETATM   31  C   UNL     1     -12.743   2.079 -33.107  1.00  0.00     0.060 A 
HETATM   32  C   UNL     1     -13.308   3.071 -32.300  1.00  0.00     0.032 A 
HETATM   33  C   UNL     1     -14.698   3.146 -32.139  1.00  0.00     0.009 A 
HETATM   34  C   UNL     1     -15.544   2.241 -32.787  1.00  0.00    -0.062 A 
HETATM   35  C   UNL     1     -17.029   2.293 -32.586  1.00  0.00     0.048 C 
HETATM   36  C   UNL     1     -14.981   1.245 -33.591  1.00  0.00     0.009 A 
HETATM   37  C   UNL     1     -13.594   1.167 -33.754  1.00  0.00     0.032 A 
ENDBRANCH   7  31
TORSDOF 6
ENDMDL
MODEL 8
REMARK VINA RESULT:      -8.2      2.194      5.318
REMARK  6 active torsions:
REMARK  status: ('A' for Active; 'I' for Inactive)
REMARK    1  A    between atoms: C_2  and  C_3 
REMARK    2  A    between atoms: C_7  and  N_8 
REMARK    3  A    between atoms: N_8  and  C_9 
REMARK    4  A    between atoms: C_12  and  N_13 
REMARK       I    between atoms: N_13  and  C_14 
REMARK       I    between atoms: C_14  and  N_15 
REMARK    5  A    between atoms: N_15  and  C_16 
REMARK    6  A    between atoms: N_24  and  C_25 
ROOT
HETATM    1  C   UNL     1      -9.550   1.297 -33.255  1.00  0.00     0.130 A 
HETATM    2  N   UNL     1      -8.605   0.384 -33.536  1.00  0.00    -0.213 NA
HETATM    3  C   UNL     1      -7.352   0.853 -33.374  1.00  0.00     0.169 A 
HETATM    4  C   UNL     1      -7.026   2.135 -32.956  1.00  0.00     0.078 A 
HETATM    5  C   UNL     1      -8.080   3.005 -32.627  1.00  0.00     0.121 A 
HETATM    6  N   UNL     1      -9.342   2.550 -32.802  1.00  0.00    -0.221 NA
HETATM    7  N   UNL     1      -6.147   0.180 -33.563  1.00  0.00    -0.214 N 
HETATM    8  N   UNL     1      -5.079   1.010 -33.352  1.00  0.00    -0.170 NA
HETATM    9  C   UNL     1      -5.613   2.179 -32.990  1.00  0.00     0.069 A 
HETATM   10  C   UNL     1      -4.718   3.324 -32.687  1.00  0.00     0.073 C 
ENDROOT
BRANCH   5  11
HETATM   11  N   UNL     1      -7.852   4.292 -32.132  1.00  0.00    -0.272 NA
HETATM   12  H   UNL     1      -6.892   4.566 -32.298  1.00  0.00     0.129 HD
BRANCH  11  13
HETATM   13  C   UNL     1      -8.311   4.579 -30.766  1.00  0.00     0.062 C 
HETATM   14  C   UNL     1      -7.398   3.837 -29.778  1.00  0.00     0.022 C 
HETATM   15  C   UNL     1      -5.965   4.369 -29.770  1.00  0.00     0.027 C 
HETATM   16  C   UNL     1      -5.828   5.896 -29.702  1.00  0.00     0.086 C 
HETATM   17  C   UNL     1      -6.874   6.672 -30.510  1.00  0.00     0.027 C 
HETATM   18  C   UNL     1      -8.284   6.084 -30.487  1.00  0.00     0.022 C 
BRANCH  16  19
HETATM   19  N   UNL     1      -5.635   6.404 -28.345  1.00  0.00    -0.339 N 
HETATM   20  C   UNL     1      -4.506   7.003 -27.853  1.00  0.00     0.317 C 
HETATM   21  N   UNL     1      -4.725   7.427 -26.562  1.00  0.00    -0.335 N 
HETATM   22  O   UNL     1      -3.469   7.165 -28.472  1.00  0.00    -0.247 OA
HETATM   23  H   UNL     1      -5.697   7.638 -26.387  1.00  0.00     0.165 HD
HETATM   24  H   UNL     1      -6.197   5.962 -27.632  1.00  0.00     0.164 HD
BRANCH  21  25
HETATM   25  C   UNL     1      -3.759   8.214 -25.779  1.00  0.00     0.023 C 
HETATM   26  C   UNL     1      -3.326   9.471 -26.552  1.00  0.00     0.037 C 
HETATM   27  C   UNL     1      -4.460   8.654 -24.479  1.00  0.00     0.037 C 
HETATM   28  C   UNL     1      -2.528   7.377 -25.397  1.00  0.00     0.037 C 
ENDBRANCH  21  25
ENDBRANCH  16  19
ENDBRANCH  11  13
ENDBRANCH   5  11
BRANCH   1  29
HETATM   29  C   UNL     1     -10.983   0.867 -33.421  1.00  0.00     0.076 C 
HETATM   30  C   UNL     1     -11.679   1.675 -34.505  1.00  0.00     0.013 C 
ENDBRANCH   1  29
BRANCH   7  31
HETATM   31  C   UNL     1      -5.908  -1.189 -33.903  1.00  0.00     0.060 A 
HETATM   32  C   UNL     1      -4.632  -1.757 -33.857  1.00  0.00     0.032 A 
HETATM   33  C   UNL     1      -4.438  -3.094 -34.226  1.00  0.00     0.009 A 
HETATM   34  C   UNL     1      -5.514  -3.886 -34.638  1.00  0.00    -0.062 A 
HETATM   35  C   UNL     1      -5.304  -5.307 -35.072  1.00  0.00     0.048 C 
HETATM   36  C   UNL     1      -6.790  -3.320 -34.690  1.00  0.00     0.009 A 
HETATM   37  C   UNL     1      -6.988  -1.985 -34.322  1.00  0.00     0.032 A 
ENDBRANCH   7  31
TORSDOF 6
ENDMDL
MODEL 9
REMARK VINA RESULT:      -8.1      4.454     10.182
REMARK  6 active torsions:
REMARK  status: ('A' for Active; 'I' for Inactive)
REMARK    1  A    between atoms: C_2  and  C_3 
REMARK    2  A    between atoms: C_7  and  N_8 
REMARK    3  A    between atoms: N_8  and  C_9 
REMARK    4  A    between atoms: C_12  and  N_13 
REMARK       I    between atoms: N_13  and  C_14 
REMARK       I    between atoms: C_14  and  N_15 
REMARK    5  A    between atoms: N_15  and  C_16 
REMARK    6  A    between atoms: N_24  and  C_25 
ROOT
HETATM    1  C   UNL     1      -6.341   3.692 -34.031  1.00  0.00     0.130 A 
HETATM    2  N   UNL     1      -6.175   2.362 -33.938  1.00  0.00    -0.213 NA
HETATM    3  C   UNL     1      -7.338   1.692 -33.818  1.00  0.00     0.169 A 
HETATM    4  C   UNL     1      -8.597   2.273 -33.794  1.00  0.00     0.078 A 
HETATM    5  C   UNL     1      -8.678   3.667 -33.957  1.00  0.00     0.121 A 
HETATM    6  N   UNL     1      -7.517   4.351 -34.062  1.00  0.00    -0.221 NA
HETATM    7  N   UNL     1      -7.536   0.316 -33.713  1.00  0.00    -0.214 N 
HETATM    8  N   UNL     1      -8.862   0.019 -33.550  1.00  0.00    -0.170 NA
HETATM    9  C   UNL     1      -9.491   1.195 -33.599  1.00  0.00     0.069 A 
HETATM   10  C   UNL     1     -10.967   1.236 -33.447  1.00  0.00     0.073 C 
ENDROOT
BRANCH   5  11
HETATM   11  N   UNL     1      -9.904   4.336 -34.015  1.00  0.00    -0.272 NA
HETATM   12  H   UNL     1     -10.602   3.838 -33.478  1.00  0.00     0.129 HD
BRANCH  11  13
HETATM   13  C   UNL     1     -10.380   4.755 -35.342  1.00  0.00     0.062 C 
HETATM   14  C   UNL     1     -11.627   3.931 -35.695  1.00  0.00     0.022 C 
HETATM   15  C   UNL     1     -12.824   4.240 -34.795  1.00  0.00     0.027 C 
HETATM   16  C   UNL     1     -13.117   5.730 -34.574  1.00  0.00     0.086 C 
HETATM   17  C   UNL     1     -11.873   6.616 -34.438  1.00  0.00     0.027 C 
HETATM   18  C   UNL     1     -10.708   6.250 -35.356  1.00  0.00     0.022 C 
BRANCH  16  19
HETATM   19  N   UNL     1     -14.128   6.266 -35.483  1.00  0.00    -0.339 N 
HETATM   20  C   UNL     1     -15.051   7.235 -35.193  1.00  0.00     0.317 C 
HETATM   21  N   UNL     1     -15.777   7.543 -36.321  1.00  0.00    -0.335 N 
HETATM   22  O   UNL     1     -15.193   7.769 -34.107  1.00  0.00    -0.247 OA
HETATM   23  H   UNL     1     -15.254   7.383 -37.170  1.00  0.00     0.165 HD
HETATM   24  H   UNL     1     -14.418   5.646 -36.224  1.00  0.00     0.164 HD
BRANCH  21  25
HETATM   25  C   UNL     1     -16.772   8.626 -36.389  1.00  0.00     0.023 C 
HETATM   26  C   UNL     1     -16.124   9.982 -36.069  1.00  0.00     0.037 C 
HETATM   27  C   UNL     1     -17.316   8.670 -37.830  1.00  0.00     0.037 C 
HETATM   28  C   UNL     1     -17.954   8.366 -35.441  1.00  0.00     0.037 C 
ENDBRANCH  21  25
ENDBRANCH  16  19
ENDBRANCH  11  13
ENDBRANCH   5  11
BRANCH   1  29
HETATM   29  C   UNL     1      -5.094   4.525 -34.154  1.00  0.00     0.076 C 
HETATM   30  C   UNL     1      -5.192   5.792 -33.319  1.00  0.00     0.013 C 
ENDBRANCH   1  29
BRANCH   7  31
HETATM   31  C   UNL     1      -6.585  -0.751 -33.776  1.00  0.00     0.060 A 
HETATM   32  C   UNL     1      -5.398  -0.736 -33.038  1.00  0.00     0.032 A 
HETATM   33  C   UNL     1      -4.480  -1.788 -33.150  1.00  0.00     0.009 A 
HETATM   34  C   UNL     1      -4.737  -2.875 -33.993  1.00  0.00    -0.062 A 
HETATM   35  C   UNL     1      -3.739  -3.984 -34.147  1.00  0.00     0.048 C 
HETATM   36  C   UNL     1      -5.921  -2.890 -34.735  1.00  0.00     0.009 A 
HETATM   37  C   UNL     1      -6.839  -1.841 -34.625  1.00  0.00     0.032 A 
ENDBRANCH   7  31
TORSDOF 6
ENDMDL
MODEL 10
REMARK VINA RESULT:      -8.0      3.451     10.050
REMARK  6 active torsions:
REMARK  status: ('A' for Active; 'I' for Inactive)
REMARK    1  A    between atoms: C_2  and  C_3 
REMARK    2  A    between atoms: C_7  and  N_8 
REMARK    3  A    between atoms: N_8  and  C_9 
REMARK    4  A    between atoms: C_12  and  N_13 
REMARK       I    between atoms: N_13  and  C_14 
REMARK       I    between atoms: C_14  and  N_15 
REMARK    5  A    between atoms: N_15  and  C_16 
REMARK    6  A    between atoms: N_24  and  C_25 
ROOT
HETATM    1  C   UNL     1      -6.393   0.472 -33.757  1.00  0.00     0.130 A 
HETATM    2  N   UNL     1      -5.521   1.463 -33.504  1.00  0.00    -0.213 NA
HETATM    3  C   UNL     1      -6.077   2.688 -33.585  1.00  0.00     0.169 A 
HETATM    4  C   UNL     1      -7.405   2.945 -33.887  1.00  0.00     0.078 A 
HETATM    5  C   UNL     1      -8.259   1.845 -34.078  1.00  0.00     0.121 A 
HETATM    6  N   UNL     1      -7.709   0.611 -34.017  1.00  0.00    -0.221 NA
HETATM    7  N   UNL     1      -5.473   3.926 -33.373  1.00  0.00    -0.214 N 
HETATM    8  N   UNL     1      -6.351   4.950 -33.603  1.00  0.00    -0.170 NA
HETATM    9  C   UNL     1      -7.506   4.356 -33.911  1.00  0.00     0.069 A 
HETATM   10  C   UNL     1      -8.691   5.192 -34.229  1.00  0.00     0.073 C 
ENDROOT
BRANCH   5  11
HETATM   11  N   UNL     1      -9.627   2.001 -34.319  1.00  0.00    -0.272 NA
HETATM   12  H   UNL     1      -9.817   2.929 -34.674  1.00  0.00     0.129 HD
BRANCH  11  13
HETATM   13  C   UNL     1     -10.550   1.584 -33.253  1.00  0.00     0.062 C 
HETATM   14  C   UNL     1     -10.868   2.806 -32.378  1.00  0.00     0.022 C 
HETATM   15  C   UNL     1     -11.667   3.880 -33.115  1.00  0.00     0.027 C 
HETATM   16  C   UNL     1     -12.873   3.371 -33.917  1.00  0.00     0.086 C 
HETATM   17  C   UNL     1     -12.653   2.031 -34.628  1.00  0.00     0.027 C 
HETATM   18  C   UNL     1     -11.838   1.004 -33.844  1.00  0.00     0.022 C 
BRANCH  16  19
HETATM   19  N   UNL     1     -14.136   3.452 -33.186  1.00  0.00    -0.339 N 
HETATM   20  C   UNL     1     -14.767   4.596 -32.775  1.00  0.00     0.317 C 
HETATM   21  N   UNL     1     -15.974   4.282 -32.194  1.00  0.00    -0.335 N 
HETATM   22  O   UNL     1     -14.339   5.727 -32.924  1.00  0.00    -0.247 OA
HETATM   23  H   UNL     1     -16.364   3.425 -32.558  1.00  0.00     0.165 HD
HETATM   24  H   UNL     1     -14.365   2.644 -32.625  1.00  0.00     0.164 HD
BRANCH  21  25
HETATM   25  C   UNL     1     -16.958   5.283 -31.748  1.00  0.00     0.023 C 
HETATM   26  C   UNL     1     -18.237   4.599 -31.237  1.00  0.00     0.037 C 
HETATM   27  C   UNL     1     -16.326   6.074 -30.587  1.00  0.00     0.037 C 
HETATM   28  C   UNL     1     -17.300   6.275 -32.872  1.00  0.00     0.037 C 
ENDBRANCH  21  25
ENDBRANCH  16  19
ENDBRANCH  11  13
ENDBRANCH   5  11
BRANCH   1  29
HETATM   29  C   UNL     1      -5.858  -0.934 -33.705  1.00  0.00     0.076 C 
HETATM   30  C   UNL     1      -6.811  -1.912 -34.373  1.00  0.00     0.013 C 
ENDBRANCH   1  29
BRANCH   7  31
HETATM   31  C   UNL     1      -4.142   4.232 -32.949  1.00  0.00     0.060 A 
HETATM   32  C   UNL     1      -3.673   3.909 -31.672  1.00  0.00     0.032 A 
HETATM   33  C   UNL     1      -2.371   4.252 -31.286  1.00  0.00     0.009 A 
HETATM   34  C   UNL     1      -1.514   4.915 -32.171  1.00  0.00    -0.062 A 
HETATM   35  C   UNL     1      -0.133   5.320 -31.749  1.00  0.00     0.048 C 
HETATM   36  C   UNL     1      -1.981   5.244 -33.447  1.00  0.00     0.009 A 
HETATM   37  C   UNL     1      -3.280   4.903 -33.834  1.00  0.00     0.032 A 
ENDBRANCH   7  31
TORSDOF 6
ENDMDL
