MODEL 1
REMARK VINA RESULT:      -8.8      0.000      0.000
REMARK  6 active torsions:
REMARK  status: ('A' for Active; 'I' for Inactive)
REMARK    1  A    between atoms: C_2  and  O_3 
REMARK    2  A    between atoms: O_3  and  C_4 
REMARK    3  A    between atoms: C_7  and  N_8 
REMARK    4  A    between atoms: C_11  and  N_12 
REMARK    5  A    between atoms: C_16  and  O_17 
REMARK    6  A    between atoms: C_16  and  C_18 
ROOT
HETATM    1  N   UNL     1      -4.548   1.950 -31.784  1.00  0.00    -0.251 N 
HETATM    2  C   UNL     1      -3.732   2.946 -32.276  1.00  0.00     0.262 C 
HETATM    3  O   UNL     1      -3.121   3.003 -33.333  1.00  0.00    -0.270 OA
HETATM    4  C   UNL     1      -3.685   4.053 -31.238  1.00  0.00     0.289 C 
HETATM    5  C   UNL     1      -5.042   3.904 -30.590  1.00  0.00     0.146 C 
HETATM    6  C   UNL     1      -5.299   2.433 -30.733  1.00  0.00     0.233 C 
HETATM    7  O   UNL     1      -6.082   1.861 -29.993  1.00  0.00    -0.273 OA
ENDROOT
BRANCH   4   8
HETATM    8  N   UNL     1      -3.445   5.513 -31.723  1.00  0.00    -0.058 N 
HETATM    9  H   UNL     1      -3.985   5.652 -32.591  1.00  0.00     0.281 HD
HETATM   10  C   UNL     1      -3.933   6.503 -30.678  1.00  0.00     0.239 C 
HETATM   11  C   UNL     1      -3.652   7.935 -31.097  1.00  0.00     0.071 C 
HETATM   12  C   UNL     1      -2.158   8.183 -31.361  1.00  0.00     0.088 C 
HETATM   13  C   UNL     1      -1.775   7.215 -32.490  1.00  0.00     0.071 C 
HETATM   14  C   UNL     1      -1.988   5.761 -32.099  1.00  0.00     0.239 C 
BRANCH  12  15
HETATM   15  O   UNL     1      -2.060   9.502 -31.901  1.00  0.00    -0.385 OA
HETATM   16  H   UNL     1      -2.948   9.897 -31.976  1.00  0.00     0.211 HD
ENDBRANCH  12  15
BRANCH  12  17
HETATM   17  C   UNL     1      -1.247   8.112 -30.129  1.00  0.00    -0.024 A 
HETATM   18  C   UNL     1      -0.069   7.338 -30.140  1.00  0.00     0.011 A 
HETATM   19  C   UNL     1       0.769   7.261 -29.021  1.00  0.00     0.020 A 
HETATM   20  C   UNL     1       0.459   7.982 -27.874  1.00  0.00     0.011 A 
HETATM   21 BR   UNL     1       1.583   7.877 -26.362  1.00  0.00    -0.051 Br
HETATM   22  C   UNL     1      -0.669   8.792 -27.847  1.00  0.00     0.020 A 
HETATM   23  C   UNL     1      -1.506   8.866 -28.969  1.00  0.00     0.011 A 
ENDBRANCH  12  17
ENDBRANCH   4   8
BRANCH   1  24
HETATM   24  C   UNL     1      -4.581   0.604 -32.272  1.00  0.00     0.045 A 
HETATM   25  C   UNL     1      -5.515   0.200 -33.240  1.00  0.00     0.033 A 
HETATM   26  C   UNL     1      -5.488  -1.089 -33.788  1.00  0.00     0.039 A 
HETATM   27  C   UNL     1      -4.520  -2.008 -33.396  1.00  0.00     0.068 A 
HETATM   28  C   UNL     1      -3.620  -1.651 -32.401  1.00  0.00     0.039 A 
HETATM   29  C   UNL     1      -3.652  -0.360 -31.848  1.00  0.00     0.033 A 
BRANCH  27  30
HETATM   30  O   UNL     1      -4.562  -3.211 -34.038  1.00  0.00    -0.352 OA
BRANCH  30  31
HETATM   31  C   UNL     1      -5.452  -3.296 -35.153  1.00  0.00     0.171 C 
HETATM   32  C   UNL     1      -6.342  -4.509 -34.949  1.00  0.00     0.034 C 
ENDBRANCH  30  31
ENDBRANCH  27  30
ENDBRANCH   1  24
TORSDOF 6
ENDMDL
MODEL 2
REMARK VINA RESULT:      -8.5      3.485      4.097
REMARK  6 active torsions:
REMARK  status: ('A' for Active; 'I' for Inactive)
REMARK    1  A    between atoms: C_2  and  O_3 
REMARK    2  A    between atoms: O_3  and  C_4 
REMARK    3  A    between atoms: C_7  and  N_8 
REMARK    4  A    between atoms: C_11  and  N_12 
REMARK    5  A    between atoms: C_16  and  O_17 
REMARK    6  A    between atoms: C_16  and  C_18 
ROOT
HETATM    1  N   UNL     1      -7.023   2.795 -32.207  1.00  0.00    -0.251 N 
HETATM    2  C   UNL     1      -6.115   3.117 -33.194  1.00  0.00     0.262 C 
HETATM    3  O   UNL     1      -6.258   3.142 -34.407  1.00  0.00    -0.270 OA
HETATM    4  C   UNL     1      -4.803   3.459 -32.513  1.00  0.00     0.289 C 
HETATM    5  C   UNL     1      -5.291   4.001 -31.190  1.00  0.00     0.146 C 
HETATM    6  C   UNL     1      -6.560   3.227 -30.983  1.00  0.00     0.233 C 
HETATM    7  O   UNL     1      -7.026   3.080 -29.865  1.00  0.00    -0.273 OA
ENDROOT
BRANCH   4   8
HETATM    8  N   UNL     1      -3.842   4.463 -33.217  1.00  0.00    -0.058 N 
HETATM    9  H   UNL     1      -4.070   4.468 -34.222  1.00  0.00     0.281 HD
HETATM   10  C   UNL     1      -4.043   5.864 -32.662  1.00  0.00     0.239 C 
HETATM   11  C   UNL     1      -3.074   6.852 -33.285  1.00  0.00     0.071 C 
HETATM   12  C   UNL     1      -1.606   6.439 -33.079  1.00  0.00     0.088 C 
HETATM   13  C   UNL     1      -1.470   5.064 -33.752  1.00  0.00     0.071 C 
HETATM   14  C   UNL     1      -2.384   4.023 -33.125  1.00  0.00     0.239 C 
BRANCH  12  15
HETATM   15  O   UNL     1      -0.821   7.351 -33.848  1.00  0.00    -0.385 OA
HETATM   16  H   UNL     1      -0.289   6.861 -34.502  1.00  0.00     0.211 HD
ENDBRANCH  12  15
BRANCH  12  17
HETATM   17  C   UNL     1      -1.102   6.489 -31.631  1.00  0.00    -0.024 A 
HETATM   18  C   UNL     1      -0.133   5.577 -31.167  1.00  0.00     0.011 A 
HETATM   19  C   UNL     1       0.333   5.610 -29.848  1.00  0.00     0.020 A 
HETATM   20  C   UNL     1      -0.141   6.578 -28.971  1.00  0.00     0.011 A 
HETATM   21 BR   UNL     1       0.482   6.623 -27.190  1.00  0.00    -0.051 Br
HETATM   22  C   UNL     1      -1.060   7.522 -29.411  1.00  0.00     0.020 A 
HETATM   23  C   UNL     1      -1.524   7.486 -30.732  1.00  0.00     0.011 A 
ENDBRANCH  12  17
ENDBRANCH   4   8
BRANCH   1  24
HETATM   24  C   UNL     1      -8.247   2.085 -32.423  1.00  0.00     0.045 A 
HETATM   25  C   UNL     1      -9.442   2.761 -32.719  1.00  0.00     0.033 A 
HETATM   26  C   UNL     1     -10.620   2.066 -33.025  1.00  0.00     0.039 A 
HETATM   27  C   UNL     1     -10.636   0.676 -33.056  1.00  0.00     0.068 A 
HETATM   28  C   UNL     1      -9.482  -0.017 -32.713  1.00  0.00     0.039 A 
HETATM   29  C   UNL     1      -8.304   0.682 -32.401  1.00  0.00     0.033 A 
BRANCH  27  30
HETATM   30  O   UNL     1     -11.825   0.113 -33.418  1.00  0.00    -0.352 OA
BRANCH  30  31
HETATM   31  C   UNL     1     -12.714   0.949 -34.161  1.00  0.00     0.171 C 
HETATM   32  C   UNL     1     -14.114   0.378 -34.028  1.00  0.00     0.034 C 
ENDBRANCH  30  31
ENDBRANCH  27  30
ENDBRANCH   1  24
TORSDOF 6
ENDMDL
MODEL 3
REMARK VINA RESULT:      -8.5      3.494      9.692
REMARK  6 active torsions:
REMARK  status: ('A' for Active; 'I' for Inactive)
REMARK    1  A    between atoms: C_2  and  O_3 
REMARK    2  A    between atoms: O_3  and  C_4 
REMARK    3  A    between atoms: C_7  and  N_8 
REMARK    4  A    between atoms: C_11  and  N_12 
REMARK    5  A    between atoms: C_16  and  O_17 
REMARK    6  A    between atoms: C_16  and  C_18 
ROOT
HETATM    1  N   UNL     1      -3.130   5.322 -32.455  1.00  0.00    -0.251 N 
HETATM    2  C   UNL     1      -3.897   4.268 -32.004  1.00  0.00     0.262 C 
HETATM    3  O   UNL     1      -4.069   3.860 -30.865  1.00  0.00    -0.270 OA
HETATM    4  C   UNL     1      -4.550   3.627 -33.215  1.00  0.00     0.289 C 
HETATM    5  C   UNL     1      -4.670   4.811 -34.145  1.00  0.00     0.146 C 
HETATM    6  C   UNL     1      -3.488   5.645 -33.746  1.00  0.00     0.233 C 
HETATM    7  O   UNL     1      -3.012   6.462 -34.517  1.00  0.00    -0.273 OA
ENDROOT
BRANCH   4   8
HETATM    8  N   UNL     1      -5.920   2.912 -33.027  1.00  0.00    -0.058 N 
HETATM    9  H   UNL     1      -6.617   3.627 -32.767  1.00  0.00     0.281 HD
HETATM   10  C   UNL     1      -6.355   2.252 -34.325  1.00  0.00     0.239 C 
HETATM   11  C   UNL     1      -7.658   1.493 -34.153  1.00  0.00     0.071 C 
HETATM   12  C   UNL     1      -7.567   0.421 -33.053  1.00  0.00     0.088 C 
HETATM   13  C   UNL     1      -7.222   1.184 -31.765  1.00  0.00     0.071 C 
HETATM   14  C   UNL     1      -5.896   1.919 -31.869  1.00  0.00     0.239 C 
BRANCH  12  15
HETATM   15  O   UNL     1      -8.890  -0.093 -32.885  1.00  0.00    -0.385 OA
HETATM   16  H   UNL     1      -8.874  -1.067 -32.920  1.00  0.00     0.211 HD
ENDBRANCH  12  15
BRANCH  12  17
HETATM   17  C   UNL     1      -6.639  -0.762 -33.358  1.00  0.00    -0.024 A 
HETATM   18  C   UNL     1      -7.000  -1.744 -34.302  1.00  0.00     0.011 A 
HETATM   19  C   UNL     1      -6.165  -2.830 -34.586  1.00  0.00     0.020 A 
HETATM   20  C   UNL     1      -4.934  -2.941 -33.951  1.00  0.00     0.011 A 
HETATM   21 BR   UNL     1      -3.806  -4.406 -34.328  1.00  0.00    -0.051 Br
HETATM   22  C   UNL     1      -4.527  -1.964 -33.051  1.00  0.00     0.020 A 
HETATM   23  C   UNL     1      -5.366  -0.878 -32.769  1.00  0.00     0.011 A 
ENDBRANCH  12  17
ENDBRANCH   4   8
BRANCH   1  24
HETATM   24  C   UNL     1      -2.091   5.957 -31.702  1.00  0.00     0.045 A 
HETATM   25  C   UNL     1      -2.342   7.108 -30.938  1.00  0.00     0.033 A 
HETATM   26  C   UNL     1      -1.352   7.677 -30.125  1.00  0.00     0.039 A 
HETATM   27  C   UNL     1      -0.087   7.106 -30.043  1.00  0.00     0.068 A 
HETATM   28  C   UNL     1       0.203   6.000 -30.831  1.00  0.00     0.039 A 
HETATM   29  C   UNL     1      -0.789   5.435 -31.649  1.00  0.00     0.033 A 
BRANCH  27  30
HETATM   30  O   UNL     1       0.775   7.717 -29.179  1.00  0.00    -0.352 OA
BRANCH  30  31
HETATM   31  C   UNL     1       0.834   7.171 -27.860  1.00  0.00     0.171 C 
HETATM   32  C   UNL     1       1.581   8.156 -26.979  1.00  0.00     0.034 C 
ENDBRANCH  30  31
ENDBRANCH  27  30
ENDBRANCH   1  24
TORSDOF 6
ENDMDL
MODEL 4
REMARK VINA RESULT:      -8.2      3.850      9.712
REMARK  6 active torsions:
REMARK  status: ('A' for Active; 'I' for Inactive)
REMARK    1  A    between atoms: C_2  and  O_3 
REMARK    2  A    between atoms: O_3  and  C_4 
REMARK    3  A    between atoms: C_7  and  N_8 
REMARK    4  A    between atoms: C_11  and  N_12 
REMARK    5  A    between atoms: C_16  and  O_17 
REMARK    6  A    between atoms: C_16  and  C_18 
ROOT
HETATM    1  N   UNL     1      -2.893   6.183 -31.774  1.00  0.00    -0.251 N 
HETATM    2  C   UNL     1      -3.970   5.457 -31.310  1.00  0.00     0.262 C 
HETATM    3  O   UNL     1      -4.403   5.344 -30.173  1.00  0.00    -0.270 OA
HETATM    4  C   UNL     1      -4.594   4.754 -32.502  1.00  0.00     0.289 C 
HETATM    5  C   UNL     1      -4.261   5.716 -33.618  1.00  0.00     0.146 C 
HETATM    6  C   UNL     1      -2.967   6.310 -33.145  1.00  0.00     0.233 C 
HETATM    7  O   UNL     1      -2.187   6.815 -33.934  1.00  0.00    -0.273 OA
ENDROOT
BRANCH   4   8
HETATM    8  N   UNL     1      -6.118   4.438 -32.461  1.00  0.00    -0.058 N 
HETATM    9  H   UNL     1      -6.606   5.273 -32.103  1.00  0.00     0.281 HD
HETATM   10  C   UNL     1      -6.632   4.131 -33.858  1.00  0.00     0.239 C 
HETATM   11  C   UNL     1      -8.102   3.756 -33.839  1.00  0.00     0.071 C 
HETATM   12  C   UNL     1      -8.385   2.550 -32.927  1.00  0.00     0.088 C 
HETATM   13  C   UNL     1      -7.928   2.981 -31.525  1.00  0.00     0.071 C 
HETATM   14  C   UNL     1      -6.446   3.316 -31.480  1.00  0.00     0.239 C 
BRANCH  12  15
HETATM   15  O   UNL     1      -9.806   2.414 -32.872  1.00  0.00    -0.385 OA
HETATM   16  H   UNL     1     -10.044   1.633 -32.339  1.00  0.00     0.211 HD
ENDBRANCH  12  15
BRANCH  12  17
HETATM   17  C   UNL     1      -7.803   1.212 -33.401  1.00  0.00    -0.024 A 
HETATM   18  C   UNL     1      -7.222   0.309 -32.488  1.00  0.00     0.011 A 
HETATM   19  C   UNL     1      -6.684  -0.913 -32.907  1.00  0.00     0.020 A 
HETATM   20  C   UNL     1      -6.743  -1.271 -34.248  1.00  0.00     0.011 A 
HETATM   21 BR   UNL     1      -6.015  -2.916 -34.818  1.00  0.00    -0.051 Br
HETATM   22  C   UNL     1      -7.353  -0.425 -35.166  1.00  0.00     0.020 A 
HETATM   23  C   UNL     1      -7.890   0.798 -34.743  1.00  0.00     0.011 A 
ENDBRANCH  12  17
ENDBRANCH   4   8
BRANCH   1  24
HETATM   24  C   UNL     1      -1.839   6.696 -30.953  1.00  0.00     0.045 A 
HETATM   25  C   UNL     1      -2.002   7.873 -30.203  1.00  0.00     0.033 A 
HETATM   26  C   UNL     1      -1.007   8.325 -29.326  1.00  0.00     0.039 A 
HETATM   27  C   UNL     1       0.174   7.609 -29.162  1.00  0.00     0.068 A 
HETATM   28  C   UNL     1       0.383   6.473 -29.932  1.00  0.00     0.039 A 
HETATM   29  C   UNL     1      -0.613   6.024 -30.815  1.00  0.00     0.033 A 
BRANCH  27  30
HETATM   30  O   UNL     1       1.043   8.119 -28.242  1.00  0.00    -0.352 OA
BRANCH  30  31
HETATM   31  C   UNL     1       1.281   7.310 -27.088  1.00  0.00     0.171 C 
HETATM   32  C   UNL     1       1.980   8.169 -26.050  1.00  0.00     0.034 C 
ENDBRANCH  30  31
ENDBRANCH  27  30
ENDBRANCH   1  24
TORSDOF 6
ENDMDL
MODEL 5
REMARK VINA RESULT:      -8.1      4.851      9.789
REMARK  6 active torsions:
REMARK  status: ('A' for Active; 'I' for Inactive)
REMARK    1  A    between atoms: C_2  and  O_3 
REMARK    2  A    between atoms: O_3  and  C_4 
REMARK    3  A    between atoms: C_7  and  N_8 
REMARK    4  A    between atoms: C_11  and  N_12 
REMARK    5  A    between atoms: C_16  and  O_17 
REMARK    6  A    between atoms: C_16  and  C_18 
ROOT
HETATM    1  N   UNL     1      -4.243   4.217 -32.657  1.00  0.00    -0.251 N 
HETATM    2  C   UNL     1      -4.658   2.948 -32.313  1.00  0.00     0.262 C 
HETATM    3  O   UNL     1      -4.382   2.276 -31.330  1.00  0.00    -0.270 OA
HETATM    4  C   UNL     1      -5.578   2.453 -33.414  1.00  0.00     0.289 C 
HETATM    5  C   UNL     1      -6.168   3.753 -33.909  1.00  0.00     0.146 C 
HETATM    6  C   UNL     1      -5.053   4.723 -33.651  1.00  0.00     0.233 C 
HETATM    7  O   UNL     1      -4.982   5.771 -34.271  1.00  0.00    -0.273 OA
ENDROOT
BRANCH   4   8
HETATM    8  N   UNL     1      -6.691   1.428 -33.046  1.00  0.00    -0.058 N 
HETATM    9  H   UNL     1      -6.232   0.578 -32.684  1.00  0.00     0.281 HD
HETATM   10  C   UNL     1      -7.595   1.996 -31.965  1.00  0.00     0.239 C 
HETATM   11  C   UNL     1      -8.728   1.043 -31.631  1.00  0.00     0.071 C 
HETATM   12  C   UNL     1      -9.581   0.697 -32.864  1.00  0.00     0.088 C 
HETATM   13  C   UNL     1      -8.612   0.043 -33.862  1.00  0.00     0.071 C 
HETATM   14  C   UNL     1      -7.486   0.980 -34.269  1.00  0.00     0.239 C 
BRANCH  12  15
HETATM   15  O   UNL     1     -10.492  -0.322 -32.449  1.00  0.00    -0.385 OA
HETATM   16  H   UNL     1     -10.141  -1.199 -32.691  1.00  0.00     0.211 HD
ENDBRANCH  12  15
BRANCH  12  17
HETATM   17  C   UNL     1     -10.404   1.854 -33.445  1.00  0.00    -0.024 A 
HETATM   18  C   UNL     1     -11.164   1.687 -34.620  1.00  0.00     0.011 A 
HETATM   19  C   UNL     1     -11.916   2.735 -35.162  1.00  0.00     0.020 A 
HETATM   20  C   UNL     1     -11.946   3.968 -34.522  1.00  0.00     0.011 A 
HETATM   21 BR   UNL     1     -12.956   5.385 -35.253  1.00  0.00    -0.051 Br
HETATM   22  C   UNL     1     -11.247   4.152 -33.336  1.00  0.00     0.020 A 
HETATM   23  C   UNL     1     -10.495   3.100 -32.796  1.00  0.00     0.011 A 
ENDBRANCH  12  17
ENDBRANCH   4   8
BRANCH   1  24
HETATM   24  C   UNL     1      -3.115   4.890 -32.088  1.00  0.00     0.045 A 
HETATM   25  C   UNL     1      -3.268   5.820 -31.046  1.00  0.00     0.033 A 
HETATM   26  C   UNL     1      -2.159   6.409 -30.423  1.00  0.00     0.039 A 
HETATM   27  C   UNL     1      -0.867   6.078 -30.813  1.00  0.00     0.068 A 
HETATM   28  C   UNL     1      -0.689   5.203 -31.877  1.00  0.00     0.039 A 
HETATM   29  C   UNL     1      -1.802   4.618 -32.504  1.00  0.00     0.033 A 
BRANCH  27  30
HETATM   30  O   UNL     1       0.131   6.675 -30.098  1.00  0.00    -0.352 OA
BRANCH  30  31
HETATM   31  C   UNL     1      -0.287   7.507 -29.014  1.00  0.00     0.171 C 
HETATM   32  C   UNL     1       0.958   8.037 -28.326  1.00  0.00     0.034 C 
ENDBRANCH  30  31
ENDBRANCH  27  30
ENDBRANCH   1  24
TORSDOF 6
ENDMDL
MODEL 6
REMARK VINA RESULT:      -7.9      2.317      3.249
REMARK  6 active torsions:
REMARK  status: ('A' for Active; 'I' for Inactive)
REMARK    1  A    between atoms: C_2  and  O_3 
REMARK    2  A    between atoms: O_3  and  C_4 
REMARK    3  A    between atoms: C_7  and  N_8 
REMARK    4  A    between atoms: C_11  and  N_12 
REMARK    5  A    between atoms: C_16  and  O_17 
REMARK    6  A    between atoms: C_16  and  C_18 
ROOT
HETATM    1  N   UNL     1      -5.344   2.610 -32.347  1.00  0.00    -0.251 N 
HETATM    2  C   UNL     1      -6.246   3.456 -31.736  1.00  0.00     0.262 C 
HETATM    3  O   UNL     1      -7.408   3.256 -31.415  1.00  0.00    -0.270 OA
HETATM    4  C   UNL     1      -5.543   4.780 -31.502  1.00  0.00     0.289 C 
HETATM    5  C   UNL     1      -4.111   4.329 -31.339  1.00  0.00     0.146 C 
HETATM    6  C   UNL     1      -4.066   3.108 -32.211  1.00  0.00     0.233 C 
HETATM    7  O   UNL     1      -3.007   2.701 -32.660  1.00  0.00    -0.273 OA
ENDROOT
BRANCH   4   8
HETATM    8  N   UNL     1      -6.001   5.659 -30.301  1.00  0.00    -0.058 N 
HETATM    9  H   UNL     1      -7.025   5.763 -30.356  1.00  0.00     0.281 HD
HETATM   10  C   UNL     1      -5.646   4.984 -28.986  1.00  0.00     0.239 C 
HETATM   11  C   UNL     1      -6.023   5.849 -27.798  1.00  0.00     0.071 C 
HETATM   12  C   UNL     1      -5.350   7.231 -27.846  1.00  0.00     0.088 C 
HETATM   13  C   UNL     1      -5.838   7.879 -29.151  1.00  0.00     0.071 C 
HETATM   14  C   UNL     1      -5.437   7.075 -30.378  1.00  0.00     0.239 C 
BRANCH  12  15
HETATM   15  O   UNL     1      -5.915   7.990 -26.775  1.00  0.00    -0.385 OA
HETATM   16  H   UNL     1      -6.807   7.655 -26.566  1.00  0.00     0.211 HD
ENDBRANCH  12  15
BRANCH  12  17
HETATM   17  C   UNL     1      -3.827   7.232 -27.669  1.00  0.00    -0.024 A 
HETATM   18  C   UNL     1      -2.978   7.738 -28.675  1.00  0.00     0.011 A 
HETATM   19  C   UNL     1      -1.587   7.741 -28.527  1.00  0.00     0.020 A 
HETATM   20  C   UNL     1      -1.015   7.264 -27.355  1.00  0.00     0.011 A 
HETATM   21 BR   UNL     1       0.862   7.262 -27.154  1.00  0.00    -0.051 Br
HETATM   22  C   UNL     1      -1.824   6.804 -26.324  1.00  0.00     0.020 A 
HETATM   23  C   UNL     1      -3.217   6.802 -26.475  1.00  0.00     0.011 A 
ENDBRANCH  12  17
ENDBRANCH   4   8
BRANCH   1  24
HETATM   24  C   UNL     1      -5.692   1.412 -33.048  1.00  0.00     0.045 A 
HETATM   25  C   UNL     1      -5.335   0.146 -32.555  1.00  0.00     0.033 A 
HETATM   26  C   UNL     1      -5.757  -1.031 -33.189  1.00  0.00     0.039 A 
HETATM   27  C   UNL     1      -6.558  -0.979 -34.324  1.00  0.00     0.068 A 
HETATM   28  C   UNL     1      -6.879   0.260 -34.863  1.00  0.00     0.039 A 
HETATM   29  C   UNL     1      -6.450   1.439 -34.230  1.00  0.00     0.033 A 
BRANCH  27  30
HETATM   30  O   UNL     1      -6.948  -2.189 -34.820  1.00  0.00    -0.352 OA
BRANCH  30  31
HETATM   31  C   UNL     1      -5.938  -3.197 -34.881  1.00  0.00     0.171 C 
HETATM   32  C   UNL     1      -6.602  -4.501 -35.286  1.00  0.00     0.034 C 
ENDBRANCH  30  31
ENDBRANCH  27  30
ENDBRANCH   1  24
TORSDOF 6
ENDMDL
MODEL 7
REMARK VINA RESULT:      -7.6      2.939      4.127
REMARK  6 active torsions:
REMARK  status: ('A' for Active; 'I' for Inactive)
REMARK    1  A    between atoms: C_2  and  O_3 
REMARK    2  A    between atoms: O_3  and  C_4 
REMARK    3  A    between atoms: C_7  and  N_8 
REMARK    4  A    between atoms: C_11  and  N_12 
REMARK    5  A    between atoms: C_16  and  O_17 
REMARK    6  A    between atoms: C_16  and  C_18 
ROOT
HETATM    1  N   UNL     1      -7.174   1.105 -32.031  1.00  0.00    -0.251 N 
HETATM    2  C   UNL     1      -6.518   2.168 -31.448  1.00  0.00     0.262 C 
HETATM    3  O   UNL     1      -5.416   2.636 -31.694  1.00  0.00    -0.270 OA
HETATM    4  C   UNL     1      -7.423   2.724 -30.363  1.00  0.00     0.289 C 
HETATM    5  C   UNL     1      -8.787   2.390 -30.920  1.00  0.00     0.146 C 
HETATM    6  C   UNL     1      -8.511   1.137 -31.697  1.00  0.00     0.233 C 
HETATM    7  O   UNL     1      -9.407   0.349 -31.950  1.00  0.00    -0.273 OA
ENDROOT
BRANCH   4   8
HETATM    8  N   UNL     1      -7.310   4.236 -30.007  1.00  0.00    -0.058 N 
HETATM    9  H   UNL     1      -8.093   4.473 -29.378  1.00  0.00     0.281 HD
HETATM   10  C   UNL     1      -6.001   4.513 -29.287  1.00  0.00     0.239 C 
HETATM   11  C   UNL     1      -5.835   5.991 -28.984  1.00  0.00     0.071 C 
HETATM   12  C   UNL     1      -5.900   6.857 -30.254  1.00  0.00     0.088 C 
HETATM   13  C   UNL     1      -7.286   6.591 -30.861  1.00  0.00     0.071 C 
HETATM   14  C   UNL     1      -7.481   5.129 -31.232  1.00  0.00     0.239 C 
BRANCH  12  15
HETATM   15  O   UNL     1      -5.900   8.216 -29.813  1.00  0.00    -0.385 OA
HETATM   16  H   UNL     1      -4.983   8.525 -29.690  1.00  0.00     0.211 HD
ENDBRANCH  12  15
BRANCH  12  17
HETATM   17  C   UNL     1      -4.734   6.682 -31.234  1.00  0.00    -0.024 A 
HETATM   18  C   UNL     1      -3.417   7.027 -30.867  1.00  0.00     0.011 A 
HETATM   19  C   UNL     1      -2.345   6.875 -31.753  1.00  0.00     0.020 A 
HETATM   20  C   UNL     1      -2.564   6.346 -33.019  1.00  0.00     0.011 A 
HETATM   21 BR   UNL     1      -1.121   6.144 -34.219  1.00  0.00    -0.051 Br
HETATM   22  C   UNL     1      -3.841   5.950 -33.395  1.00  0.00     0.020 A 
HETATM   23  C   UNL     1      -4.912   6.104 -32.506  1.00  0.00     0.011 A 
ENDBRANCH  12  17
ENDBRANCH   4   8
BRANCH   1  24
HETATM   24  C   UNL     1      -6.547   0.099 -32.834  1.00  0.00     0.045 A 
HETATM   25  C   UNL     1      -5.538  -0.728 -32.313  1.00  0.00     0.033 A 
HETATM   26  C   UNL     1      -4.990  -1.775 -33.066  1.00  0.00     0.039 A 
HETATM   27  C   UNL     1      -5.442  -2.035 -34.355  1.00  0.00     0.068 A 
HETATM   28  C   UNL     1      -6.399  -1.197 -34.913  1.00  0.00     0.039 A 
HETATM   29  C   UNL     1      -6.943  -0.144 -34.159  1.00  0.00     0.033 A 
BRANCH  27  30
HETATM   30  O   UNL     1      -4.871  -3.111 -34.969  1.00  0.00    -0.352 OA
BRANCH  30  31
HETATM   31  C   UNL     1      -5.384  -4.391 -34.595  1.00  0.00     0.171 C 
HETATM   32  C   UNL     1      -6.649  -4.641 -35.396  1.00  0.00     0.034 C 
ENDBRANCH  30  31
ENDBRANCH  27  30
ENDBRANCH   1  24
TORSDOF 6
ENDMDL
MODEL 8
REMARK VINA RESULT:      -7.5      3.958      9.127
REMARK  6 active torsions:
REMARK  status: ('A' for Active; 'I' for Inactive)
REMARK    1  A    between atoms: C_2  and  O_3 
REMARK    2  A    between atoms: O_3  and  C_4 
REMARK    3  A    between atoms: C_7  and  N_8 
REMARK    4  A    between atoms: C_11  and  N_12 
REMARK    5  A    between atoms: C_16  and  O_17 
REMARK    6  A    between atoms: C_16  and  C_18 
ROOT
HETATM    1  N   UNL     1      -5.568   6.086 -32.339  1.00  0.00    -0.251 N 
HETATM    2  C   UNL     1      -6.168   4.899 -32.703  1.00  0.00     0.262 C 
HETATM    3  O   UNL     1      -5.707   3.768 -32.734  1.00  0.00    -0.270 OA
HETATM    4  C   UNL     1      -7.600   5.214 -33.099  1.00  0.00     0.289 C 
HETATM    5  C   UNL     1      -7.884   6.420 -32.235  1.00  0.00     0.146 C 
HETATM    6  C   UNL     1      -6.527   7.050 -32.119  1.00  0.00     0.233 C 
HETATM    7  O   UNL     1      -6.410   8.234 -31.850  1.00  0.00    -0.273 OA
ENDROOT
BRANCH   4   8
HETATM    8  N   UNL     1      -8.682   4.111 -32.907  1.00  0.00    -0.058 N 
HETATM    9  H   UNL     1      -9.578   4.578 -32.704  1.00  0.00     0.281 HD
HETATM   10  C   UNL     1      -8.832   3.290 -34.177  1.00  0.00     0.239 C 
HETATM   11  C   UNL     1      -9.835   2.166 -33.997  1.00  0.00     0.071 C 
HETATM   12  C   UNL     1      -9.457   1.227 -32.839  1.00  0.00     0.088 C 
HETATM   13  C   UNL     1      -9.423   2.116 -31.586  1.00  0.00     0.071 C 
HETATM   14  C   UNL     1      -8.393   3.228 -31.696  1.00  0.00     0.239 C 
BRANCH  12  15
HETATM   15  O   UNL     1     -10.556   0.329 -32.676  1.00  0.00    -0.385 OA
HETATM   16  H   UNL     1     -10.251  -0.591 -32.783  1.00  0.00     0.211 HD
ENDBRANCH  12  15
BRANCH  12  17
HETATM   17  C   UNL     1      -8.192   0.387 -33.054  1.00  0.00    -0.024 A 
HETATM   18  C   UNL     1      -7.273   0.175 -32.006  1.00  0.00     0.011 A 
HETATM   19  C   UNL     1      -6.113  -0.587 -32.191  1.00  0.00     0.020 A 
HETATM   20  C   UNL     1      -5.863  -1.177 -33.423  1.00  0.00     0.011 A 
HETATM   21 BR   UNL     1      -4.297  -2.201 -33.677  1.00  0.00    -0.051 Br
HETATM   22  C   UNL     1      -6.772  -1.028 -34.462  1.00  0.00     0.020 A 
HETATM   23  C   UNL     1      -7.932  -0.265 -34.274  1.00  0.00     0.011 A 
ENDBRANCH  12  17
ENDBRANCH   4   8
BRANCH   1  24
HETATM   24  C   UNL     1      -4.154   6.290 -32.242  1.00  0.00     0.045 A 
HETATM   25  C   UNL     1      -3.507   6.348 -30.997  1.00  0.00     0.033 A 
HETATM   26  C   UNL     1      -2.113   6.452 -30.901  1.00  0.00     0.039 A 
HETATM   27  C   UNL     1      -1.323   6.488 -32.044  1.00  0.00     0.068 A 
HETATM   28  C   UNL     1      -1.942   6.487 -33.288  1.00  0.00     0.039 A 
HETATM   29  C   UNL     1      -3.340   6.389 -33.382  1.00  0.00     0.033 A 
BRANCH  27  30
HETATM   30  O   UNL     1       0.022   6.536 -31.824  1.00  0.00    -0.352 OA
BRANCH  30  31
HETATM   31  C   UNL     1       0.454   6.206 -30.503  1.00  0.00     0.171 C 
HETATM   32  C   UNL     1       1.172   4.870 -30.565  1.00  0.00     0.034 C 
ENDBRANCH  30  31
ENDBRANCH  27  30
ENDBRANCH   1  24
TORSDOF 6
ENDMDL
MODEL 9
REMARK VINA RESULT:      -7.4      7.015      9.215
REMARK  6 active torsions:
REMARK  status: ('A' for Active; 'I' for Inactive)
REMARK    1  A    between atoms: C_2  and  O_3 
REMARK    2  A    between atoms: O_3  and  C_4 
REMARK    3  A    between atoms: C_7  and  N_8 
REMARK    4  A    between atoms: C_11  and  N_12 
REMARK    5  A    between atoms: C_16  and  O_17 
REMARK    6  A    between atoms: C_16  and  C_18 
ROOT
HETATM    1  N   UNL     1      -7.461   1.579 -33.789  1.00  0.00    -0.251 N 
HETATM    2  C   UNL     1      -8.833   1.443 -33.812  1.00  0.00     0.262 C 
HETATM    3  O   UNL     1      -9.527   0.480 -33.522  1.00  0.00    -0.270 OA
HETATM    4  C   UNL     1      -9.414   2.761 -34.291  1.00  0.00     0.289 C 
HETATM    5  C   UNL     1      -8.372   3.738 -33.800  1.00  0.00     0.146 C 
HETATM    6  C   UNL     1      -7.119   2.913 -33.854  1.00  0.00     0.233 C 
HETATM    7  O   UNL     1      -6.024   3.445 -33.925  1.00  0.00    -0.273 OA
ENDROOT
BRANCH   4   8
HETATM    8  N   UNL     1     -10.839   3.162 -33.807  1.00  0.00    -0.058 N 
HETATM    9  H   UNL     1     -11.154   2.454 -33.127  1.00  0.00     0.281 HD
HETATM   10  C   UNL     1     -10.802   4.518 -33.122  1.00  0.00     0.239 C 
HETATM   11  C   UNL     1     -12.189   4.964 -32.697  1.00  0.00     0.071 C 
HETATM   12  C   UNL     1     -13.169   5.029 -33.881  1.00  0.00     0.088 C 
HETATM   13  C   UNL     1     -13.220   3.603 -34.450  1.00  0.00     0.071 C 
HETATM   14  C   UNL     1     -11.861   3.130 -34.940  1.00  0.00     0.239 C 
BRANCH  12  15
HETATM   15  O   UNL     1     -14.457   5.294 -33.322  1.00  0.00    -0.385 OA
HETATM   16  H   UNL     1     -14.479   6.196 -32.953  1.00  0.00     0.211 HD
ENDBRANCH  12  15
BRANCH  12  17
HETATM   17  C   UNL     1     -12.877   6.117 -34.923  1.00  0.00    -0.024 A 
HETATM   18  C   UNL     1     -11.674   6.851 -34.889  1.00  0.00     0.011 A 
HETATM   19  C   UNL     1     -11.396   7.848 -35.831  1.00  0.00     0.020 A 
HETATM   20  C   UNL     1     -12.307   8.113 -36.846  1.00  0.00     0.011 A 
HETATM   21 BR   UNL     1     -11.939   9.460 -38.115  1.00  0.00    -0.051 Br
HETATM   22  C   UNL     1     -13.481   7.375 -36.936  1.00  0.00     0.020 A 
HETATM   23  C   UNL     1     -13.755   6.377 -35.992  1.00  0.00     0.011 A 
ENDBRANCH  12  17
ENDBRANCH   4   8
BRANCH   1  24
HETATM   24  C   UNL     1      -6.533   0.490 -33.741  1.00  0.00     0.045 A 
HETATM   25  C   UNL     1      -5.594   0.374 -32.703  1.00  0.00     0.033 A 
HETATM   26  C   UNL     1      -4.749  -0.740 -32.603  1.00  0.00     0.039 A 
HETATM   27  C   UNL     1      -4.826  -1.775 -33.526  1.00  0.00     0.068 A 
HETATM   28  C   UNL     1      -5.708  -1.660 -34.593  1.00  0.00     0.039 A 
HETATM   29  C   UNL     1      -6.550  -0.540 -34.696  1.00  0.00     0.033 A 
BRANCH  27  30
HETATM   30  O   UNL     1      -3.991  -2.829 -33.294  1.00  0.00    -0.352 OA
BRANCH  30  31
HETATM   31  C   UNL     1      -4.076  -3.913 -34.222  1.00  0.00     0.171 C 
HETATM   32  C   UNL     1      -3.901  -5.206 -33.447  1.00  0.00     0.034 C 
ENDBRANCH  30  31
ENDBRANCH  27  30
ENDBRANCH   1  24
TORSDOF 6
ENDMDL
MODEL 10
REMARK VINA RESULT:      -7.4      6.339     10.079
REMARK  6 active torsions:
REMARK  status: ('A' for Active; 'I' for Inactive)
REMARK    1  A    between atoms: C_2  and  O_3 
REMARK    2  A    between atoms: O_3  and  C_4 
REMARK    3  A    between atoms: C_7  and  N_8 
REMARK    4  A    between atoms: C_11  and  N_12 
REMARK    5  A    between atoms: C_16  and  O_17 
REMARK    6  A    between atoms: C_16  and  C_18 
ROOT
HETATM    1  N   UNL     1      -6.003   3.472 -32.113  1.00  0.00    -0.251 N 
HETATM    2  C   UNL     1      -6.868   3.761 -33.147  1.00  0.00     0.262 C 
HETATM    3  O   UNL     1      -6.641   4.258 -34.240  1.00  0.00    -0.270 OA
HETATM    4  C   UNL     1      -8.261   3.348 -32.706  1.00  0.00     0.289 C 
HETATM    5  C   UNL     1      -7.945   2.209 -31.765  1.00  0.00     0.146 C 
HETATM    6  C   UNL     1      -6.607   2.614 -31.220  1.00  0.00     0.233 C 
HETATM    7  O   UNL     1      -6.210   2.178 -30.152  1.00  0.00    -0.273 OA
ENDROOT
BRANCH   4   8
HETATM    8  N   UNL     1      -9.286   2.916 -33.795  1.00  0.00    -0.058 N 
HETATM    9  H   UNL     1      -8.767   2.440 -34.548  1.00  0.00     0.281 HD
HETATM   10  C   UNL     1     -10.301   1.947 -33.211  1.00  0.00     0.239 C 
HETATM   11  C   UNL     1     -11.352   1.559 -34.235  1.00  0.00     0.071 C 
HETATM   12  C   UNL     1     -12.096   2.782 -34.799  1.00  0.00     0.088 C 
HETATM   13  C   UNL     1     -11.013   3.654 -35.453  1.00  0.00     0.071 C 
HETATM   14  C   UNL     1      -9.964   4.114 -34.453  1.00  0.00     0.239 C 
BRANCH  12  15
HETATM   15  O   UNL     1     -12.923   2.294 -35.857  1.00  0.00    -0.385 OA
HETATM   16  H   UNL     1     -13.806   2.704 -35.803  1.00  0.00     0.211 HD
ENDBRANCH  12  15
BRANCH  12  17
HETATM   17  C   UNL     1     -12.995   3.526 -33.804  1.00  0.00    -0.024 A 
HETATM   18  C   UNL     1     -13.216   4.913 -33.922  1.00  0.00     0.011 A 
HETATM   19  C   UNL     1     -14.031   5.605 -33.019  1.00  0.00     0.020 A 
HETATM   20  C   UNL     1     -14.667   4.916 -31.994  1.00  0.00     0.011 A 
HETATM   21 BR   UNL     1     -15.764   5.846 -30.771  1.00  0.00    -0.051 Br
HETATM   22  C   UNL     1     -14.509   3.540 -31.879  1.00  0.00     0.020 A 
HETATM   23  C   UNL     1     -13.692   2.851 -32.784  1.00  0.00     0.011 A 
ENDBRANCH  12  17
ENDBRANCH   4   8
BRANCH   1  24
HETATM   24  C   UNL     1      -4.686   4.016 -31.975  1.00  0.00     0.045 A 
HETATM   25  C   UNL     1      -3.599   3.492 -32.695  1.00  0.00     0.033 A 
HETATM   26  C   UNL     1      -2.329   4.082 -32.635  1.00  0.00     0.039 A 
HETATM   27  C   UNL     1      -2.110   5.218 -31.864  1.00  0.00     0.068 A 
HETATM   28  C   UNL     1      -3.153   5.722 -31.099  1.00  0.00     0.039 A 
HETATM   29  C   UNL     1      -4.424   5.127 -31.156  1.00  0.00     0.033 A 
BRANCH  27  30
HETATM   30  O   UNL     1      -0.847   5.732 -31.926  1.00  0.00    -0.352 OA
BRANCH  30  31
HETATM   31  C   UNL     1      -0.029   5.525 -30.773  1.00  0.00     0.171 C 
HETATM   32  C   UNL     1       0.369   6.886 -30.232  1.00  0.00     0.034 C 
ENDBRANCH  30  31
ENDBRANCH  27  30
ENDBRANCH   1  24
TORSDOF 6
ENDMDL
