MODEL 1
REMARK VINA RESULT:      -9.0      0.000      0.000
REMARK  6 active torsions:
REMARK  status: ('A' for Active; 'I' for Inactive)
REMARK    1  A    between atoms: O_2  and  C_3 
REMARK    2  A    between atoms: C_6  and  C_7 
REMARK    3  A    between atoms: C_7  and  N_8 
REMARK       I    between atoms: N_8  and  C_9 
REMARK    4  A    between atoms: C_9  and  C_10 
REMARK    5  A    between atoms: C_10  and  O_11 
REMARK    6  A    between atoms: N_12  and  C_13 
ROOT
HETATM    1  C   UNL     1      -7.908   1.441 -33.655  1.00  0.00     0.256 C 
HETATM    2  N   UNL     1      -9.037   1.474 -32.716  1.00  0.00    -0.254 N 
HETATM    3  C   UNL     1      -8.725   1.794 -31.390  1.00  0.00     0.330 C 
HETATM    4  O   UNL     1      -9.509   2.196 -30.532  1.00  0.00    -0.246 OA
HETATM    5  N   UNL     1      -7.436   1.513 -30.988  1.00  0.00    -0.308 N 
HETATM    6  C   UNL     1      -6.539   0.750 -31.735  1.00  0.00     0.048 A 
HETATM    7  C   UNL     1      -6.795   0.584 -33.095  1.00  0.00     0.034 A 
HETATM    8  C   UNL     1      -5.445   0.139 -31.130  1.00  0.00     0.030 A 
HETATM    9  C   UNL     1      -4.619  -0.690 -31.891  1.00  0.00     0.002 A 
HETATM   10  C   UNL     1      -4.888  -0.896 -33.245  1.00  0.00     0.001 A 
HETATM   11  C   UNL     1      -5.970  -0.257 -33.852  1.00  0.00     0.015 A 
HETATM   12  H   UNL     1      -7.285   1.638 -29.994  1.00  0.00     0.170 HD
ENDROOT
BRANCH   1  13
HETATM   13  C   UNL     1      -7.424   2.942 -33.901  1.00  0.00     0.279 C 
HETATM   14  N   UNL     1      -6.059   3.147 -33.984  1.00  0.00    -0.352 N 
HETATM   15  H   UNL     1      -5.431   2.354 -33.999  1.00  0.00     0.162 HD
HETATM   16  O   UNL     1      -8.218   3.862 -34.111  1.00  0.00    -0.268 OA
BRANCH  14  17
HETATM   17  C   UNL     1      -5.497   4.451 -34.249  1.00  0.00     0.161 C 
BRANCH  17  18
HETATM   18  C   UNL     1      -4.140   4.601 -33.608  1.00  0.00    -0.040 A 
HETATM   19  C   UNL     1      -3.838   3.948 -32.408  1.00  0.00     0.011 A 
HETATM   20  C   UNL     1      -2.563   4.056 -31.846  1.00  0.00     0.037 A 
HETATM   21  C   UNL     1      -1.566   4.805 -32.474  1.00  0.00     0.068 A 
HETATM   22  C   UNL     1      -1.860   5.467 -33.665  1.00  0.00     0.037 A 
HETATM   23  C   UNL     1      -3.137   5.360 -34.231  1.00  0.00     0.011 A 
BRANCH  21  24
HETATM   24  O   UNL     1      -0.361   4.815 -31.826  1.00  0.00    -0.356 OA
HETATM   25  C   UNL     1      -0.367   5.239 -30.469  1.00  0.00     0.210 C 
ENDBRANCH  21  24
ENDBRANCH  17  18
ENDBRANCH  14  17
ENDBRANCH   1  13
BRANCH   1  26
HETATM   26  O   UNL     1      -8.275   0.957 -34.950  1.00  0.00    -0.359 OA
HETATM   27  H   UNL     1      -9.170   1.315 -35.098  1.00  0.00     0.213 HD
ENDBRANCH   1  26
BRANCH   2  28
HETATM   28  C   UNL     1     -10.394   1.415 -33.153  1.00  0.00     0.043 A 
HETATM   29  C   UNL     1     -11.116   2.576 -33.459  1.00  0.00     0.031 A 
HETATM   30  C   UNL     1     -12.465   2.507 -33.832  1.00  0.00     0.026 A 
HETATM   31  C   UNL     1     -13.105   1.274 -33.890  1.00  0.00     0.034 A 
HETATM   32 CL   UNL     1     -14.764   1.187 -34.335  1.00  0.00    -0.084 Cl
HETATM   33  C   UNL     1     -12.410   0.110 -33.579  1.00  0.00     0.026 A 
HETATM   34  C   UNL     1     -11.063   0.183 -33.208  1.00  0.00     0.031 A 
ENDBRANCH   2  28
TORSDOF 6
ENDMDL
MODEL 2
REMARK VINA RESULT:      -8.9      2.835      7.393
REMARK  6 active torsions:
REMARK  status: ('A' for Active; 'I' for Inactive)
REMARK    1  A    between atoms: O_2  and  C_3 
REMARK    2  A    between atoms: C_6  and  C_7 
REMARK    3  A    between atoms: C_7  and  N_8 
REMARK       I    between atoms: N_8  and  C_9 
REMARK    4  A    between atoms: C_9  and  C_10 
REMARK    5  A    between atoms: C_10  and  O_11 
REMARK    6  A    between atoms: N_12  and  C_13 
ROOT
HETATM    1  C   UNL     1      -5.956   2.006 -33.127  1.00  0.00     0.256 C 
HETATM    2  N   UNL     1      -5.296   0.762 -32.711  1.00  0.00    -0.254 N 
HETATM    3  C   UNL     1      -4.634   0.797 -31.480  1.00  0.00     0.330 C 
HETATM    4  O   UNL     1      -4.311  -0.171 -30.795  1.00  0.00    -0.246 OA
HETATM    5  N   UNL     1      -4.200   2.039 -31.064  1.00  0.00    -0.308 N 
HETATM    6  C   UNL     1      -4.187   3.170 -31.880  1.00  0.00     0.048 A 
HETATM    7  C   UNL     1      -4.988   3.163 -33.020  1.00  0.00     0.034 A 
HETATM    8  C   UNL     1      -3.366   4.255 -31.583  1.00  0.00     0.030 A 
HETATM    9  C   UNL     1      -3.314   5.332 -32.470  1.00  0.00     0.002 A 
HETATM   10  C   UNL     1      -4.080   5.320 -33.635  1.00  0.00     0.001 A 
HETATM   11  C   UNL     1      -4.922   4.241 -33.912  1.00  0.00     0.015 A 
HETATM   12  H   UNL     1      -3.616   2.008 -30.236  1.00  0.00     0.170 HD
ENDROOT
BRANCH   1  13
HETATM   13  C   UNL     1      -7.234   2.225 -32.197  1.00  0.00     0.279 C 
HETATM   14  N   UNL     1      -8.267   2.976 -32.729  1.00  0.00    -0.352 N 
HETATM   15  H   UNL     1      -8.233   3.261 -33.700  1.00  0.00     0.162 HD
HETATM   16  O   UNL     1      -7.351   1.673 -31.100  1.00  0.00    -0.268 OA
BRANCH  14  17
HETATM   17  C   UNL     1      -9.494   3.208 -32.005  1.00  0.00     0.161 C 
BRANCH  17  18
HETATM   18  C   UNL     1     -10.683   2.666 -32.757  1.00  0.00    -0.040 A 
HETATM   19  C   UNL     1     -11.763   3.495 -33.085  1.00  0.00     0.011 A 
HETATM   20  C   UNL     1     -12.839   2.994 -33.823  1.00  0.00     0.037 A 
HETATM   21  C   UNL     1     -12.854   1.667 -34.255  1.00  0.00     0.068 A 
HETATM   22  C   UNL     1     -11.788   0.832 -33.926  1.00  0.00     0.037 A 
HETATM   23  C   UNL     1     -10.708   1.330 -33.188  1.00  0.00     0.011 A 
BRANCH  21  24
HETATM   24  O   UNL     1     -13.959   1.312 -34.980  1.00  0.00    -0.356 OA
HETATM   25  C   UNL     1     -15.061   0.788 -34.251  1.00  0.00     0.210 C 
ENDBRANCH  21  24
ENDBRANCH  17  18
ENDBRANCH  14  17
ENDBRANCH   1  13
BRANCH   1  26
HETATM   26  O   UNL     1      -6.476   1.943 -34.458  1.00  0.00    -0.359 OA
HETATM   27  H   UNL     1      -5.743   2.258 -35.019  1.00  0.00     0.213 HD
ENDBRANCH   1  26
BRANCH   2  28
HETATM   28  C   UNL     1      -5.505  -0.475 -33.392  1.00  0.00     0.043 A 
HETATM   29  C   UNL     1      -6.787  -1.015 -33.557  1.00  0.00     0.031 A 
HETATM   30  C   UNL     1      -6.971  -2.257 -34.177  1.00  0.00     0.026 A 
HETATM   31  C   UNL     1      -5.870  -2.976 -34.628  1.00  0.00     0.034 A 
HETATM   32 CL   UNL     1      -6.091  -4.508 -35.378  1.00  0.00    -0.084 Cl
HETATM   33  C   UNL     1      -4.586  -2.465 -34.464  1.00  0.00     0.026 A 
HETATM   34  C   UNL     1      -4.407  -1.223 -33.845  1.00  0.00     0.031 A 
ENDBRANCH   2  28
TORSDOF 6
ENDMDL
MODEL 3
REMARK VINA RESULT:      -8.6      3.565      4.651
REMARK  6 active torsions:
REMARK  status: ('A' for Active; 'I' for Inactive)
REMARK    1  A    between atoms: O_2  and  C_3 
REMARK    2  A    between atoms: C_6  and  C_7 
REMARK    3  A    between atoms: C_7  and  N_8 
REMARK       I    between atoms: N_8  and  C_9 
REMARK    4  A    between atoms: C_9  and  C_10 
REMARK    5  A    between atoms: C_10  and  O_11 
REMARK    6  A    between atoms: N_12  and  C_13 
ROOT
HETATM    1  C   UNL     1      -5.856   2.340 -32.549  1.00  0.00     0.256 C 
HETATM    2  N   UNL     1      -6.246   2.174 -31.143  1.00  0.00    -0.254 N 
HETATM    3  C   UNL     1      -5.926   0.946 -30.555  1.00  0.00     0.330 C 
HETATM    4  O   UNL     1      -5.851   0.710 -29.351  1.00  0.00    -0.246 OA
HETATM    5  N   UNL     1      -5.802  -0.122 -31.419  1.00  0.00    -0.308 N 
HETATM    6  C   UNL     1      -6.189  -0.086 -32.758  1.00  0.00     0.048 A 
HETATM    7  C   UNL     1      -6.343   1.161 -33.361  1.00  0.00     0.034 A 
HETATM    8  C   UNL     1      -6.452  -1.261 -33.457  1.00  0.00     0.030 A 
HETATM    9  C   UNL     1      -6.922  -1.183 -34.769  1.00  0.00     0.002 A 
HETATM   10  C   UNL     1      -7.120   0.060 -35.371  1.00  0.00     0.001 A 
HETATM   11  C   UNL     1      -6.826   1.234 -34.674  1.00  0.00     0.015 A 
HETATM   12  H   UNL     1      -5.697  -1.014 -30.949  1.00  0.00     0.170 HD
ENDROOT
BRANCH   1  13
HETATM   13  C   UNL     1      -4.266   2.476 -32.611  1.00  0.00     0.279 C 
HETATM   14  N   UNL     1      -3.763   3.725 -32.922  1.00  0.00    -0.352 N 
HETATM   15  H   UNL     1      -4.389   4.518 -32.989  1.00  0.00     0.162 HD
HETATM   16  O   UNL     1      -3.515   1.549 -32.298  1.00  0.00    -0.268 OA
BRANCH  14  17
HETATM   17  C   UNL     1      -2.344   3.988 -32.965  1.00  0.00     0.161 C 
BRANCH  17  18
HETATM   18  C   UNL     1      -1.945   5.010 -31.931  1.00  0.00    -0.040 A 
HETATM   19  C   UNL     1      -0.596   5.273 -31.667  1.00  0.00     0.011 A 
HETATM   20  C   UNL     1      -0.236   6.256 -30.740  1.00  0.00     0.037 A 
HETATM   21  C   UNL     1      -1.210   6.999 -30.071  1.00  0.00     0.068 A 
HETATM   22  C   UNL     1      -2.556   6.738 -30.322  1.00  0.00     0.037 A 
HETATM   23  C   UNL     1      -2.920   5.754 -31.250  1.00  0.00     0.011 A 
BRANCH  21  24
HETATM   24  O   UNL     1      -0.722   7.937 -29.204  1.00  0.00    -0.356 OA
HETATM   25  C   UNL     1       0.602   7.738 -28.724  1.00  0.00     0.210 C 
ENDBRANCH  21  24
ENDBRANCH  17  18
ENDBRANCH  14  17
ENDBRANCH   1  13
BRANCH   1  26
HETATM   26  O   UNL     1      -6.351   3.551 -33.126  1.00  0.00    -0.359 OA
HETATM   27  H   UNL     1      -7.318   3.429 -33.152  1.00  0.00     0.213 HD
ENDBRANCH   1  26
BRANCH   2  28
HETATM   28  C   UNL     1      -6.710   3.265 -30.348  1.00  0.00     0.043 A 
HETATM   29  C   UNL     1      -8.070   3.593 -30.275  1.00  0.00     0.031 A 
HETATM   30  C   UNL     1      -8.505   4.701 -29.537  1.00  0.00     0.026 A 
HETATM   31  C   UNL     1      -7.579   5.498 -28.874  1.00  0.00     0.034 A 
HETATM   32 CL   UNL     1      -8.108   6.867 -27.977  1.00  0.00    -0.084 Cl
HETATM   33  C   UNL     1      -6.222   5.197 -28.941  1.00  0.00     0.026 A 
HETATM   34  C   UNL     1      -5.792   4.090 -29.680  1.00  0.00     0.031 A 
ENDBRANCH   2  28
TORSDOF 6
ENDMDL
MODEL 4
REMARK VINA RESULT:      -8.6      3.437      8.173
REMARK  6 active torsions:
REMARK  status: ('A' for Active; 'I' for Inactive)
REMARK    1  A    between atoms: O_2  and  C_3 
REMARK    2  A    between atoms: C_6  and  C_7 
REMARK    3  A    between atoms: C_7  and  N_8 
REMARK       I    between atoms: N_8  and  C_9 
REMARK    4  A    between atoms: C_9  and  C_10 
REMARK    5  A    between atoms: C_10  and  O_11 
REMARK    6  A    between atoms: N_12  and  C_13 
ROOT
HETATM    1  C   UNL     1      -5.733   2.465 -32.037  1.00  0.00     0.256 C 
HETATM    2  N   UNL     1      -5.022   3.493 -32.809  1.00  0.00    -0.254 N 
HETATM    3  C   UNL     1      -5.603   3.858 -34.028  1.00  0.00     0.330 C 
HETATM    4  O   UNL     1      -5.385   4.889 -34.661  1.00  0.00    -0.246 OA
HETATM    5  N   UNL     1      -6.404   2.907 -34.625  1.00  0.00    -0.308 N 
HETATM    6  C   UNL     1      -6.474   1.579 -34.206  1.00  0.00     0.048 A 
HETATM    7  C   UNL     1      -6.035   1.274 -32.919  1.00  0.00     0.034 A 
HETATM    8  C   UNL     1      -6.932   0.583 -35.064  1.00  0.00     0.030 A 
HETATM    9  C   UNL     1      -6.906  -0.747 -34.641  1.00  0.00     0.002 A 
HETATM   10  C   UNL     1      -6.430  -1.070 -33.370  1.00  0.00     0.001 A 
HETATM   11  C   UNL     1      -5.999  -0.063 -32.504  1.00  0.00     0.015 A 
HETATM   12  H   UNL     1      -6.702   3.157 -35.561  1.00  0.00     0.170 HD
ENDROOT
BRANCH   1  13
HETATM   13  C   UNL     1      -7.070   3.116 -31.456  1.00  0.00     0.279 C 
HETATM   14  N   UNL     1      -8.261   2.694 -32.018  1.00  0.00    -0.352 N 
HETATM   15  H   UNL     1      -8.261   1.929 -32.681  1.00  0.00     0.162 HD
HETATM   16  O   UNL     1      -7.061   3.879 -30.486  1.00  0.00    -0.268 OA
BRANCH  14  17
HETATM   17  C   UNL     1      -9.539   3.174 -31.550  1.00  0.00     0.161 C 
BRANCH  17  18
HETATM   18  C   UNL     1     -10.663   2.675 -32.422  1.00  0.00    -0.040 A 
HETATM   19  C   UNL     1     -11.863   3.390 -32.523  1.00  0.00     0.011 A 
HETATM   20  C   UNL     1     -12.882   2.944 -33.369  1.00  0.00     0.037 A 
HETATM   21  C   UNL     1     -12.720   1.789 -34.137  1.00  0.00     0.068 A 
HETATM   22  C   UNL     1     -11.532   1.067 -34.036  1.00  0.00     0.037 A 
HETATM   23  C   UNL     1     -10.509   1.510 -33.189  1.00  0.00     0.011 A 
BRANCH  21  24
HETATM   24  O   UNL     1     -13.786   1.474 -34.933  1.00  0.00    -0.356 OA
HETATM   25  C   UNL     1     -14.854   0.761 -34.321  1.00  0.00     0.210 C 
ENDBRANCH  21  24
ENDBRANCH  17  18
ENDBRANCH  14  17
ENDBRANCH   1  13
BRANCH   1  26
HETATM   26  O   UNL     1      -5.005   2.031 -30.885  1.00  0.00    -0.359 OA
HETATM   27  H   UNL     1      -4.755   2.857 -30.432  1.00  0.00     0.213 HD
ENDBRANCH   1  26
BRANCH   2  28
HETATM   28  C   UNL     1      -3.941   4.244 -32.261  1.00  0.00     0.043 A 
HETATM   29  C   UNL     1      -4.162   5.331 -31.404  1.00  0.00     0.031 A 
HETATM   30  C   UNL     1      -3.093   6.095 -30.920  1.00  0.00     0.026 A 
HETATM   31  C   UNL     1      -1.792   5.785 -31.298  1.00  0.00     0.034 A 
HETATM   32 CL   UNL     1      -0.478   6.729 -30.716  1.00  0.00    -0.084 Cl
HETATM   33  C   UNL     1      -1.550   4.717 -32.157  1.00  0.00     0.026 A 
HETATM   34  C   UNL     1      -2.620   3.956 -32.639  1.00  0.00     0.031 A 
ENDBRANCH   2  28
TORSDOF 6
ENDMDL
MODEL 5
REMARK VINA RESULT:      -8.3      3.812      7.536
REMARK  6 active torsions:
REMARK  status: ('A' for Active; 'I' for Inactive)
REMARK    1  A    between atoms: O_2  and  C_3 
REMARK    2  A    between atoms: C_6  and  C_7 
REMARK    3  A    between atoms: C_7  and  N_8 
REMARK       I    between atoms: N_8  and  C_9 
REMARK    4  A    between atoms: C_9  and  C_10 
REMARK    5  A    between atoms: C_10  and  O_11 
REMARK    6  A    between atoms: N_12  and  C_13 
ROOT
HETATM    1  C   UNL     1      -5.753   2.395 -32.417  1.00  0.00     0.256 C 
HETATM    2  N   UNL     1      -5.394   3.530 -31.557  1.00  0.00    -0.254 N 
HETATM    3  C   UNL     1      -6.040   3.591 -30.318  1.00  0.00     0.330 C 
HETATM    4  O   UNL     1      -5.673   4.230 -29.333  1.00  0.00    -0.246 OA
HETATM    5  N   UNL     1      -7.268   2.968 -30.245  1.00  0.00    -0.308 N 
HETATM    6  C   UNL     1      -7.967   2.500 -31.357  1.00  0.00     0.048 A 
HETATM    7  C   UNL     1      -7.257   2.295 -32.538  1.00  0.00     0.034 A 
HETATM    8  C   UNL     1      -9.342   2.285 -31.298  1.00  0.00     0.030 A 
HETATM    9  C   UNL     1     -10.022   1.901 -32.455  1.00  0.00     0.002 A 
HETATM   10  C   UNL     1      -9.329   1.732 -33.653  1.00  0.00     0.001 A 
HETATM   11  C   UNL     1      -7.946   1.922 -33.699  1.00  0.00     0.015 A 
HETATM   12  H   UNL     1      -7.761   3.141 -29.377  1.00  0.00     0.170 HD
ENDROOT
BRANCH   1  13
HETATM   13  C   UNL     1      -5.128   1.071 -31.779  1.00  0.00     0.279 C 
HETATM   14  N   UNL     1      -3.992   0.568 -32.384  1.00  0.00    -0.352 N 
HETATM   15  H   UNL     1      -3.537   1.095 -33.119  1.00  0.00     0.162 HD
HETATM   16  O   UNL     1      -5.567   0.573 -30.739  1.00  0.00    -0.268 OA
BRANCH  14  17
HETATM   17  C   UNL     1      -3.307  -0.597 -31.875  1.00  0.00     0.161 C 
BRANCH  17  18
HETATM   18  C   UNL     1      -3.759  -1.849 -32.583  1.00  0.00    -0.040 A 
HETATM   19  C   UNL     1      -4.704  -1.788 -33.615  1.00  0.00     0.011 A 
HETATM   20  C   UNL     1      -5.081  -2.948 -34.296  1.00  0.00     0.037 A 
HETATM   21  C   UNL     1      -4.519  -4.184 -33.972  1.00  0.00     0.068 A 
HETATM   22  C   UNL     1      -3.584  -4.256 -32.941  1.00  0.00     0.037 A 
HETATM   23  C   UNL     1      -3.203  -3.096 -32.256  1.00  0.00     0.011 A 
BRANCH  21  24
HETATM   24  O   UNL     1      -4.965  -5.234 -34.726  1.00  0.00    -0.356 OA
HETATM   25  C   UNL     1      -6.084  -4.988 -35.568  1.00  0.00     0.210 C 
ENDBRANCH  21  24
ENDBRANCH  17  18
ENDBRANCH  14  17
ENDBRANCH   1  13
BRANCH   1  26
HETATM   26  O   UNL     1      -5.175   2.481 -33.723  1.00  0.00    -0.359 OA
HETATM   27  H   UNL     1      -5.701   1.861 -34.261  1.00  0.00     0.213 HD
ENDBRANCH   1  26
BRANCH   2  28
HETATM   28  C   UNL     1      -4.294   4.390 -31.850  1.00  0.00     0.043 A 
HETATM   29  C   UNL     1      -4.478   5.629 -32.477  1.00  0.00     0.031 A 
HETATM   30  C   UNL     1      -3.384   6.437 -32.810  1.00  0.00     0.026 A 
HETATM   31  C   UNL     1      -2.093   6.005 -32.529  1.00  0.00     0.034 A 
HETATM   32 CL   UNL     1      -0.746   6.989 -32.948  1.00  0.00    -0.084 Cl
HETATM   33  C   UNL     1      -1.886   4.773 -31.917  1.00  0.00     0.026 A 
HETATM   34  C   UNL     1      -2.981   3.969 -31.585  1.00  0.00     0.031 A 
ENDBRANCH   2  28
TORSDOF 6
ENDMDL
MODEL 6
REMARK VINA RESULT:      -8.2      4.509      6.861
REMARK  6 active torsions:
REMARK  status: ('A' for Active; 'I' for Inactive)
REMARK    1  A    between atoms: O_2  and  C_3 
REMARK    2  A    between atoms: C_6  and  C_7 
REMARK    3  A    between atoms: C_7  and  N_8 
REMARK       I    between atoms: N_8  and  C_9 
REMARK    4  A    between atoms: C_9  and  C_10 
REMARK    5  A    between atoms: C_10  and  O_11 
REMARK    6  A    between atoms: N_12  and  C_13 
ROOT
HETATM    1  C   UNL     1      -5.410   2.106 -32.152  1.00  0.00     0.256 C 
HETATM    2  N   UNL     1      -4.984   3.301 -32.892  1.00  0.00    -0.254 N 
HETATM    3  C   UNL     1      -5.836   3.728 -33.915  1.00  0.00     0.330 C 
HETATM    4  O   UNL     1      -5.862   4.845 -34.427  1.00  0.00    -0.246 OA
HETATM    5  N   UNL     1      -6.638   2.756 -34.478  1.00  0.00    -0.308 N 
HETATM    6  C   UNL     1      -6.481   1.390 -34.244  1.00  0.00     0.048 A 
HETATM    7  C   UNL     1      -5.759   0.998 -33.119  1.00  0.00     0.034 A 
HETATM    8  C   UNL     1      -6.997   0.450 -35.132  1.00  0.00     0.030 A 
HETATM    9  C   UNL     1      -6.745  -0.905 -34.912  1.00  0.00     0.002 A 
HETATM   10  C   UNL     1      -5.989  -1.309 -33.812  1.00  0.00     0.001 A 
HETATM   11  C   UNL     1      -5.499  -0.362 -32.910  1.00  0.00     0.015 A 
HETATM   12  H   UNL     1      -7.145   3.072 -35.296  1.00  0.00     0.170 HD
ENDROOT
BRANCH   1  13
HETATM   13  C   UNL     1      -6.661   2.504 -31.243  1.00  0.00     0.279 C 
HETATM   14  N   UNL     1      -6.409   3.346 -30.175  1.00  0.00    -0.352 N 
HETATM   15  H   UNL     1      -5.492   3.762 -30.068  1.00  0.00     0.162 HD
HETATM   16  O   UNL     1      -7.813   2.169 -31.529  1.00  0.00    -0.268 OA
BRANCH  14  17
HETATM   17  C   UNL     1      -7.462   3.814 -29.306  1.00  0.00     0.161 C 
BRANCH  17  18
HETATM   18  C   UNL     1      -7.142   5.176 -28.743  1.00  0.00    -0.040 A 
HETATM   19  C   UNL     1      -5.843   5.492 -28.328  1.00  0.00     0.011 A 
HETATM   20  C   UNL     1      -5.546   6.772 -27.852  1.00  0.00     0.037 A 
HETATM   21  C   UNL     1      -6.532   7.759 -27.790  1.00  0.00     0.068 A 
HETATM   22  C   UNL     1      -7.830   7.450 -28.193  1.00  0.00     0.037 A 
HETATM   23  C   UNL     1      -8.131   6.169 -28.672  1.00  0.00     0.011 A 
BRANCH  21  24
HETATM   24  O   UNL     1      -6.104   8.970 -27.319  1.00  0.00    -0.356 OA
HETATM   25  C   UNL     1      -4.703   9.121 -27.123  1.00  0.00     0.210 C 
ENDBRANCH  21  24
ENDBRANCH  17  18
ENDBRANCH  14  17
ENDBRANCH   1  13
BRANCH   1  26
HETATM   26  O   UNL     1      -4.420   1.639 -31.230  1.00  0.00    -0.359 OA
HETATM   27  H   UNL     1      -3.590   1.654 -31.740  1.00  0.00     0.213 HD
ENDBRANCH   1  26
BRANCH   2  28
HETATM   28  C   UNL     1      -3.898   4.119 -32.458  1.00  0.00     0.043 A 
HETATM   29  C   UNL     1      -4.078   5.133 -31.508  1.00  0.00     0.031 A 
HETATM   30  C   UNL     1      -3.016   5.966 -31.134  1.00  0.00     0.026 A 
HETATM   31  C   UNL     1      -1.765   5.797 -31.717  1.00  0.00     0.034 A 
HETATM   32 CL   UNL     1      -0.461   6.826 -31.269  1.00  0.00    -0.084 Cl
HETATM   33  C   UNL     1      -1.567   4.803 -32.671  1.00  0.00     0.026 A 
HETATM   34  C   UNL     1      -2.630   3.974 -33.042  1.00  0.00     0.031 A 
ENDBRANCH   2  28
TORSDOF 6
ENDMDL
MODEL 7
REMARK VINA RESULT:      -8.2      3.116      7.368
REMARK  6 active torsions:
REMARK  status: ('A' for Active; 'I' for Inactive)
REMARK    1  A    between atoms: O_2  and  C_3 
REMARK    2  A    between atoms: C_6  and  C_7 
REMARK    3  A    between atoms: C_7  and  N_8 
REMARK       I    between atoms: N_8  and  C_9 
REMARK    4  A    between atoms: C_9  and  C_10 
REMARK    5  A    between atoms: C_10  and  O_11 
REMARK    6  A    between atoms: N_12  and  C_13 
ROOT
HETATM    1  C   UNL     1      -6.667   2.827 -32.690  1.00  0.00     0.256 C 
HETATM    2  N   UNL     1      -7.157   1.475 -32.395  1.00  0.00    -0.254 N 
HETATM    3  C   UNL     1      -8.264   1.393 -31.544  1.00  0.00     0.330 C 
HETATM    4  O   UNL     1      -9.026   0.436 -31.426  1.00  0.00    -0.246 OA
HETATM    5  N   UNL     1      -8.434   2.448 -30.671  1.00  0.00    -0.308 N 
HETATM    6  C   UNL     1      -7.473   3.433 -30.449  1.00  0.00     0.048 A 
HETATM    7  C   UNL     1      -6.470   3.597 -31.403  1.00  0.00     0.034 A 
HETATM    8  C   UNL     1      -7.493   4.202 -29.288  1.00  0.00     0.030 A 
HETATM    9  C   UNL     1      -6.464   5.117 -29.058  1.00  0.00     0.002 A 
HETATM   10  C   UNL     1      -5.433   5.261 -29.986  1.00  0.00     0.001 A 
HETATM   11  C   UNL     1      -5.435   4.508 -31.162  1.00  0.00     0.015 A 
HETATM   12  H   UNL     1      -9.166   2.295 -29.988  1.00  0.00     0.170 HD
ENDROOT
BRANCH   1  13
HETATM   13  C   UNL     1      -7.729   3.543 -33.643  1.00  0.00     0.279 C 
HETATM   14  N   UNL     1      -8.927   2.884 -33.842  1.00  0.00    -0.352 N 
HETATM   15  H   UNL     1      -9.137   2.050 -33.308  1.00  0.00     0.162 HD
HETATM   16  O   UNL     1      -7.543   4.674 -34.101  1.00  0.00    -0.268 OA
BRANCH  14  17
HETATM   17  C   UNL     1      -9.986   3.448 -34.646  1.00  0.00     0.161 C 
BRANCH  17  18
HETATM   18  C   UNL     1     -11.335   2.934 -34.213  1.00  0.00    -0.040 A 
HETATM   19  C   UNL     1     -11.607   1.560 -34.194  1.00  0.00     0.011 A 
HETATM   20  C   UNL     1     -12.844   1.091 -33.747  1.00  0.00     0.037 A 
HETATM   21  C   UNL     1     -13.827   1.977 -33.301  1.00  0.00     0.068 A 
HETATM   22  C   UNL     1     -13.568   3.346 -33.323  1.00  0.00     0.037 A 
HETATM   23  C   UNL     1     -12.329   3.820 -33.771  1.00  0.00     0.011 A 
BRANCH  21  24
HETATM   24  O   UNL     1     -14.984   1.384 -32.876  1.00  0.00    -0.356 OA
HETATM   25  C   UNL     1     -15.860   2.182 -32.089  1.00  0.00     0.210 C 
ENDBRANCH  21  24
ENDBRANCH  17  18
ENDBRANCH  14  17
ENDBRANCH   1  13
BRANCH   1  26
HETATM   26  O   UNL     1      -5.446   2.828 -33.435  1.00  0.00    -0.359 OA
HETATM   27  H   UNL     1      -5.683   2.422 -34.289  1.00  0.00     0.213 HD
ENDBRANCH   1  26
BRANCH   2  28
HETATM   28  C   UNL     1      -6.694   0.326 -33.103  1.00  0.00     0.043 A 
HETATM   29  C   UNL     1      -7.332  -0.124 -34.267  1.00  0.00     0.031 A 
HETATM   30  C   UNL     1      -6.903  -1.286 -34.920  1.00  0.00     0.026 A 
HETATM   31  C   UNL     1      -5.837  -2.016 -34.406  1.00  0.00     0.034 A 
HETATM   32 CL   UNL     1      -5.314  -3.450 -35.198  1.00  0.00    -0.084 Cl
HETATM   33  C   UNL     1      -5.196  -1.594 -33.245  1.00  0.00     0.026 A 
HETATM   34  C   UNL     1      -5.628  -0.432 -32.596  1.00  0.00     0.031 A 
ENDBRANCH   2  28
TORSDOF 6
ENDMDL
MODEL 8
REMARK VINA RESULT:      -8.1      2.758      5.444
REMARK  6 active torsions:
REMARK  status: ('A' for Active; 'I' for Inactive)
REMARK    1  A    between atoms: O_2  and  C_3 
REMARK    2  A    between atoms: C_6  and  C_7 
REMARK    3  A    between atoms: C_7  and  N_8 
REMARK       I    between atoms: N_8  and  C_9 
REMARK    4  A    between atoms: C_9  and  C_10 
REMARK    5  A    between atoms: C_10  and  O_11 
REMARK    6  A    between atoms: N_12  and  C_13 
ROOT
HETATM    1  C   UNL     1      -9.050   0.336 -32.805  1.00  0.00     0.256 C 
HETATM    2  N   UNL     1      -7.958   0.309 -33.787  1.00  0.00    -0.254 N 
HETATM    3  C   UNL     1      -7.809   1.455 -34.574  1.00  0.00     0.330 C 
HETATM    4  O   UNL     1      -6.804   1.786 -35.200  1.00  0.00    -0.246 OA
HETATM    5  N   UNL     1      -8.945   2.217 -34.753  1.00  0.00    -0.308 N 
HETATM    6  C   UNL     1     -10.225   1.796 -34.395  1.00  0.00     0.048 A 
HETATM    7  C   UNL     1     -10.339   0.752 -33.479  1.00  0.00     0.034 A 
HETATM    8  C   UNL     1     -11.354   2.376 -34.967  1.00  0.00     0.030 A 
HETATM    9  C   UNL     1     -12.616   1.870 -34.651  1.00  0.00     0.002 A 
HETATM   10  C   UNL     1     -12.740   0.798 -33.767  1.00  0.00     0.001 A 
HETATM   11  C   UNL     1     -11.606   0.240 -33.174  1.00  0.00     0.015 A 
HETATM   12  H   UNL     1      -8.831   2.964 -35.428  1.00  0.00     0.170 HD
ENDROOT
BRANCH   1  13
HETATM   13  C   UNL     1      -8.646   1.350 -31.640  1.00  0.00     0.279 C 
HETATM   14  N   UNL     1      -7.438   1.119 -31.009  1.00  0.00    -0.352 N 
HETATM   15  H   UNL     1      -6.812   0.407 -31.365  1.00  0.00     0.162 HD
HETATM   16  O   UNL     1      -9.318   2.350 -31.378  1.00  0.00    -0.268 OA
BRANCH  14  17
HETATM   17  C   UNL     1      -6.939   1.990 -29.971  1.00  0.00     0.161 C 
BRANCH  17  18
HETATM   18  C   UNL     1      -5.712   2.738 -30.427  1.00  0.00    -0.040 A 
HETATM   19  C   UNL     1      -4.644   2.063 -31.029  1.00  0.00     0.011 A 
HETATM   20  C   UNL     1      -3.531   2.771 -31.491  1.00  0.00     0.037 A 
HETATM   21  C   UNL     1      -3.467   4.161 -31.372  1.00  0.00     0.068 A 
HETATM   22  C   UNL     1      -4.523   4.841 -30.766  1.00  0.00     0.037 A 
HETATM   23  C   UNL     1      -5.640   4.135 -30.303  1.00  0.00     0.011 A 
BRANCH  21  24
HETATM   24  O   UNL     1      -2.331   4.729 -31.878  1.00  0.00    -0.356 OA
HETATM   25  C   UNL     1      -2.073   4.521 -33.261  1.00  0.00     0.210 C 
ENDBRANCH  21  24
ENDBRANCH  17  18
ENDBRANCH  14  17
ENDBRANCH   1  13
BRANCH   1  26
HETATM   26  O   UNL     1      -9.241  -0.921 -32.149  1.00  0.00    -0.359 OA
HETATM   27  H   UNL     1      -8.842  -0.796 -31.268  1.00  0.00     0.213 HD
ENDBRANCH   1  26
BRANCH   2  28
HETATM   28  C   UNL     1      -6.963  -0.714 -33.790  1.00  0.00     0.043 A 
HETATM   29  C   UNL     1      -5.780  -0.588 -33.050  1.00  0.00     0.031 A 
HETATM   30  C   UNL     1      -4.786  -1.574 -33.108  1.00  0.00     0.026 A 
HETATM   31  C   UNL     1      -4.964  -2.690 -33.918  1.00  0.00     0.034 A 
HETATM   32 CL   UNL     1      -3.741  -3.896 -34.002  1.00  0.00    -0.084 Cl
HETATM   33  C   UNL     1      -6.126  -2.829 -34.671  1.00  0.00     0.026 A 
HETATM   34  C   UNL     1      -7.116  -1.843 -34.610  1.00  0.00     0.031 A 
ENDBRANCH   2  28
TORSDOF 6
ENDMDL
MODEL 9
REMARK VINA RESULT:      -8.1      3.400      7.117
REMARK  6 active torsions:
REMARK  status: ('A' for Active; 'I' for Inactive)
REMARK    1  A    between atoms: O_2  and  C_3 
REMARK    2  A    between atoms: C_6  and  C_7 
REMARK    3  A    between atoms: C_7  and  N_8 
REMARK       I    between atoms: N_8  and  C_9 
REMARK    4  A    between atoms: C_9  and  C_10 
REMARK    5  A    between atoms: C_10  and  O_11 
REMARK    6  A    between atoms: N_12  and  C_13 
ROOT
HETATM    1  C   UNL     1      -7.077   1.261 -33.779  1.00  0.00     0.256 C 
HETATM    2  N   UNL     1      -6.483   0.171 -32.993  1.00  0.00    -0.254 N 
HETATM    3  C   UNL     1      -6.481   0.344 -31.605  1.00  0.00     0.330 C 
HETATM    4  O   UNL     1      -6.352  -0.539 -30.759  1.00  0.00    -0.246 OA
HETATM    5  N   UNL     1      -6.508   1.648 -31.158  1.00  0.00    -0.308 N 
HETATM    6  C   UNL     1      -6.312   2.755 -31.984  1.00  0.00     0.048 A 
HETATM    7  C   UNL     1      -6.481   2.585 -33.357  1.00  0.00     0.034 A 
HETATM    8  C   UNL     1      -5.920   3.981 -31.454  1.00  0.00     0.030 A 
HETATM    9  C   UNL     1      -5.648   5.042 -32.319  1.00  0.00     0.002 A 
HETATM   10  C   UNL     1      -5.775   4.874 -33.698  1.00  0.00     0.001 A 
HETATM   11  C   UNL     1      -6.196   3.649 -34.221  1.00  0.00     0.015 A 
HETATM   12  H   UNL     1      -6.377   1.738 -30.157  1.00  0.00     0.170 HD
ENDROOT
BRANCH   1  13
HETATM   13  C   UNL     1      -8.657   1.232 -33.553  1.00  0.00     0.279 C 
HETATM   14  N   UNL     1      -9.441   1.690 -34.596  1.00  0.00    -0.352 N 
HETATM   15  H   UNL     1      -9.013   1.918 -35.485  1.00  0.00     0.162 HD
HETATM   16  O   UNL     1      -9.167   0.733 -32.547  1.00  0.00    -0.268 OA
BRANCH  14  17
HETATM   17  C   UNL     1     -10.883   1.674 -34.532  1.00  0.00     0.161 C 
BRANCH  17  18
HETATM   18  C   UNL     1     -11.446   3.072 -34.511  1.00  0.00    -0.040 A 
HETATM   19  C   UNL     1     -10.919   4.069 -35.341  1.00  0.00     0.011 A 
HETATM   20  C   UNL     1     -11.477   5.350 -35.348  1.00  0.00     0.037 A 
HETATM   21  C   UNL     1     -12.574   5.657 -34.541  1.00  0.00     0.068 A 
HETATM   22  C   UNL     1     -13.100   4.673 -33.706  1.00  0.00     0.037 A 
HETATM   23  C   UNL     1     -12.543   3.389 -33.696  1.00  0.00     0.011 A 
BRANCH  21  24
HETATM   24  O   UNL     1     -13.031   6.942 -34.657  1.00  0.00    -0.356 OA
HETATM   25  C   UNL     1     -12.176   7.868 -35.315  1.00  0.00     0.210 C 
ENDBRANCH  21  24
ENDBRANCH  17  18
ENDBRANCH  14  17
ENDBRANCH   1  13
BRANCH   1  26
HETATM   26  O   UNL     1      -6.904   1.089 -35.189  1.00  0.00    -0.359 OA
HETATM   27  H   UNL     1      -6.355   0.288 -35.269  1.00  0.00     0.213 HD
ENDBRANCH   1  26
BRANCH   2  28
HETATM   28  C   UNL     1      -6.139  -1.086 -33.573  1.00  0.00     0.043 A 
HETATM   29  C   UNL     1      -7.116  -1.950 -34.085  1.00  0.00     0.031 A 
HETATM   30  C   UNL     1      -6.769  -3.205 -34.599  1.00  0.00     0.026 A 
HETATM   31  C   UNL     1      -5.440  -3.613 -34.594  1.00  0.00     0.034 A 
HETATM   32 CL   UNL     1      -5.012  -5.160 -35.213  1.00  0.00    -0.084 Cl
HETATM   33  C   UNL     1      -4.454  -2.776 -34.080  1.00  0.00     0.026 A 
HETATM   34  C   UNL     1      -4.805  -1.523 -33.568  1.00  0.00     0.031 A 
ENDBRANCH   2  28
TORSDOF 6
ENDMDL
MODEL 10
REMARK VINA RESULT:      -8.1      5.820      9.677
REMARK  6 active torsions:
REMARK  status: ('A' for Active; 'I' for Inactive)
REMARK    1  A    between atoms: O_2  and  C_3 
REMARK    2  A    between atoms: C_6  and  C_7 
REMARK    3  A    between atoms: C_7  and  N_8 
REMARK       I    between atoms: N_8  and  C_9 
REMARK    4  A    between atoms: C_9  and  C_10 
REMARK    5  A    between atoms: C_10  and  O_11 
REMARK    6  A    between atoms: N_12  and  C_13 
ROOT
HETATM    1  C   UNL     1      -0.670   7.196 -27.857  1.00  0.00     0.256 C 
HETATM    2  N   UNL     1      -1.946   7.889 -28.077  1.00  0.00    -0.254 N 
HETATM    3  C   UNL     1      -1.859   9.228 -28.473  1.00  0.00     0.330 C 
HETATM    4  O   UNL     1      -2.741   9.887 -29.019  1.00  0.00    -0.246 OA
HETATM    5  N   UNL     1      -0.710   9.894 -28.101  1.00  0.00    -0.308 N 
HETATM    6  C   UNL     1       0.221   9.388 -27.194  1.00  0.00     0.048 A 
HETATM    7  C   UNL     1       0.212   8.017 -26.944  1.00  0.00     0.034 A 
HETATM    8  C   UNL     1       1.104  10.235 -26.530  1.00  0.00     0.030 A 
HETATM    9  C   UNL     1       1.962   9.704 -25.565  1.00  0.00     0.002 A 
HETATM   10  C   UNL     1       1.935   8.340 -25.276  1.00  0.00     0.001 A 
HETATM   11  C   UNL     1       1.066   7.492 -25.966  1.00  0.00     0.015 A 
HETATM   12  H   UNL     1      -0.738  10.889 -28.291  1.00  0.00     0.170 HD
ENDROOT
BRANCH   1  13
HETATM   13  C   UNL     1       0.018   6.959 -29.278  1.00  0.00     0.279 C 
HETATM   14  N   UNL     1      -0.312   5.792 -29.941  1.00  0.00    -0.352 N 
HETATM   15  H   UNL     1      -1.042   5.194 -29.573  1.00  0.00     0.162 HD
HETATM   16  O   UNL     1       0.730   7.814 -29.813  1.00  0.00    -0.268 OA
BRANCH  14  17
HETATM   17  C   UNL     1       0.208   5.484 -31.252  1.00  0.00     0.161 C 
BRANCH  17  18
HETATM   18  C   UNL     1      -0.887   5.474 -32.287  1.00  0.00    -0.040 A 
HETATM   19  C   UNL     1      -1.877   4.484 -32.273  1.00  0.00     0.011 A 
HETATM   20  C   UNL     1      -2.915   4.510 -33.209  1.00  0.00     0.037 A 
HETATM   21  C   UNL     1      -2.992   5.525 -34.164  1.00  0.00     0.068 A 
HETATM   22  C   UNL     1      -2.006   6.510 -34.191  1.00  0.00     0.037 A 
HETATM   23  C   UNL     1      -0.965   6.488 -33.255  1.00  0.00     0.011 A 
BRANCH  21  24
HETATM   24  O   UNL     1      -4.065   5.440 -35.008  1.00  0.00    -0.356 OA
HETATM   25  C   UNL     1      -5.211   4.755 -34.519  1.00  0.00     0.210 C 
ENDBRANCH  21  24
ENDBRANCH  17  18
ENDBRANCH  14  17
ENDBRANCH   1  13
BRANCH   1  26
HETATM   26  O   UNL     1      -0.835   5.886 -27.306  1.00  0.00    -0.359 OA
HETATM   27  H   UNL     1      -0.093   5.791 -26.681  1.00  0.00     0.213 HD
ENDBRANCH   1  26
BRANCH   2  28
HETATM   28  C   UNL     1      -3.192   7.196 -28.117  1.00  0.00     0.043 A 
HETATM   29  C   UNL     1      -3.715   6.694 -29.316  1.00  0.00     0.031 A 
HETATM   30  C   UNL     1      -4.966   6.066 -29.349  1.00  0.00     0.026 A 
HETATM   31  C   UNL     1      -5.712   5.945 -28.182  1.00  0.00     0.034 A 
HETATM   32 CL   UNL     1      -7.255   5.186 -28.221  1.00  0.00    -0.084 Cl
HETATM   33  C   UNL     1      -5.218   6.447 -26.982  1.00  0.00     0.026 A 
HETATM   34  C   UNL     1      -3.967   7.073 -26.953  1.00  0.00     0.031 A 
ENDBRANCH   2  28
TORSDOF 6
ENDMDL
