MODEL 1
REMARK VINA RESULT:      -9.0      0.000      0.000
REMARK  3 active torsions:
REMARK  status: ('A' for Active; 'I' for Inactive)
REMARK    1  A    between atoms: N_7  and  C_9 
REMARK    2  A    between atoms: C_9  and  C_10 
REMARK    3  A    between atoms: C_13  and  C_14 
ROOT
HETATM    1  C   UNL     1      -1.814   7.482 -33.468  1.00  0.00     0.269 C 
HETATM    2  N   UNL     1      -1.747   6.033 -33.888  1.00  0.00    -0.074 N 
HETATM    3  H   UNL     1      -1.043   6.063 -34.644  1.00  0.00     0.279 HD
HETATM    4  C   UNL     1      -2.979   5.458 -34.538  1.00  0.00     0.245 C 
HETATM    5  C   UNL     1      -4.074   4.943 -33.548  1.00  0.00     0.008 C 
HETATM    6  C   UNL     1      -5.082   4.112 -34.408  1.00  0.00     0.246 C 
HETATM    7  N   UNL     1      -6.389   3.779 -33.725  1.00  0.00    -0.063 N 
HETATM    8  H   UNL     1      -7.018   3.492 -34.497  1.00  0.00     0.280 HD
HETATM    9  C   UNL     1      -7.078   4.964 -33.110  1.00  0.00     0.235 C 
HETATM   10  C   UNL     1      -6.128   5.697 -32.182  1.00  0.00     0.029 C 
HETATM   11  C   UNL     1      -4.843   6.121 -32.898  1.00  0.00     0.014 C 
HETATM   12  C   UNL     1      -3.384   4.063 -32.476  1.00  0.00     0.014 C 
HETATM   13  C   UNL     1      -2.160   4.716 -31.827  1.00  0.00     0.029 C 
HETATM   14  C   UNL     1      -1.123   5.134 -32.854  1.00  0.00     0.234 C 
ENDROOT
BRANCH   7  15
HETATM   15  C   UNL     1      -6.425   2.509 -32.857  1.00  0.00     0.323 C 
BRANCH  15  16
HETATM   16  C   UNL     1      -6.386   1.270 -33.672  1.00  0.00     0.199 A 
HETATM   17  O   UNL     1      -6.977   1.308 -34.893  1.00  0.00    -0.194 OA
HETATM   18  N   UNL     1      -6.952   0.007 -35.376  1.00  0.00    -0.106 NA
HETATM   19  C   UNL     1      -6.314  -0.692 -34.420  1.00  0.00     0.189 A 
HETATM   20  N   UNL     1      -6.012   0.068 -33.302  1.00  0.00    -0.202 NA
BRANCH  19  21
HETATM   21  C   UNL     1      -6.005  -2.113 -34.506  1.00  0.00     0.016 A 
HETATM   22  C   UNL     1      -4.793  -2.618 -34.013  1.00  0.00     0.039 A 
HETATM   23  C   UNL     1      -4.512  -3.981 -34.107  1.00  0.00     0.035 A 
HETATM   24 CL   UNL     1      -3.013  -4.581 -33.518  1.00  0.00    -0.084 Cl
HETATM   25  C   UNL     1      -5.431  -4.858 -34.680  1.00  0.00     0.024 A 
HETATM   26  C   UNL     1      -6.642  -4.367 -35.167  1.00  0.00     0.003 A 
HETATM   27  C   UNL     1      -6.926  -3.001 -35.085  1.00  0.00     0.015 A 
ENDBRANCH  19  21
ENDBRANCH  15  16
ENDBRANCH   7  15
TORSDOF 3
ENDMDL
MODEL 2
REMARK VINA RESULT:      -8.8      1.250      2.035
REMARK  3 active torsions:
REMARK  status: ('A' for Active; 'I' for Inactive)
REMARK    1  A    between atoms: N_7  and  C_9 
REMARK    2  A    between atoms: C_9  and  C_10 
REMARK    3  A    between atoms: C_13  and  C_14 
ROOT
HETATM    1  C   UNL     1      -0.684   6.777 -31.607  1.00  0.00     0.269 C 
HETATM    2  N   UNL     1      -1.928   7.131 -32.386  1.00  0.00    -0.074 N 
HETATM    3  H   UNL     1      -2.020   8.141 -32.192  1.00  0.00     0.279 HD
HETATM    4  C   UNL     1      -3.223   6.532 -31.901  1.00  0.00     0.245 C 
HETATM    5  C   UNL     1      -3.519   5.085 -32.414  1.00  0.00     0.008 C 
HETATM    6  C   UNL     1      -5.018   4.800 -32.071  1.00  0.00     0.246 C 
HETATM    7  N   UNL     1      -5.442   3.353 -32.189  1.00  0.00    -0.063 N 
HETATM    8  H   UNL     1      -6.339   3.303 -31.673  1.00  0.00     0.280 HD
HETATM    9  C   UNL     1      -4.545   2.391 -31.462  1.00  0.00     0.235 C 
HETATM   10  C   UNL     1      -3.105   2.593 -31.891  1.00  0.00     0.029 C 
HETATM   11  C   UNL     1      -2.643   4.038 -31.681  1.00  0.00     0.014 C 
HETATM   12  C   UNL     1      -3.273   5.052 -33.944  1.00  0.00     0.014 C 
HETATM   13  C   UNL     1      -1.925   5.642 -34.369  1.00  0.00     0.029 C 
HETATM   14  C   UNL     1      -1.743   7.068 -33.879  1.00  0.00     0.234 C 
ENDROOT
BRANCH   7  15
HETATM   15  C   UNL     1      -5.897   2.865 -33.575  1.00  0.00     0.323 C 
BRANCH  15  16
HETATM   16  C   UNL     1      -6.293   1.434 -33.564  1.00  0.00     0.199 A 
HETATM   17  O   UNL     1      -7.349   1.086 -32.787  1.00  0.00    -0.194 OA
HETATM   18  N   UNL     1      -7.412  -0.300 -32.819  1.00  0.00    -0.106 NA
HETATM   19  C   UNL     1      -6.413  -0.661 -33.642  1.00  0.00     0.189 A 
HETATM   20  N   UNL     1      -5.645   0.411 -34.068  1.00  0.00    -0.202 NA
BRANCH  19  21
HETATM   21  C   UNL     1      -6.116  -2.035 -34.025  1.00  0.00     0.016 A 
HETATM   22  C   UNL     1      -4.870  -2.611 -33.736  1.00  0.00     0.039 A 
HETATM   23  C   UNL     1      -4.603  -3.927 -34.113  1.00  0.00     0.035 A 
HETATM   24 CL   UNL     1      -3.062  -4.611 -33.771  1.00  0.00    -0.084 Cl
HETATM   25  C   UNL     1      -5.568  -4.689 -34.768  1.00  0.00     0.024 A 
HETATM   26  C   UNL     1      -6.812  -4.129 -35.054  1.00  0.00     0.003 A 
HETATM   27  C   UNL     1      -7.084  -2.807 -34.688  1.00  0.00     0.015 A 
ENDBRANCH  19  21
ENDBRANCH  15  16
ENDBRANCH   7  15
TORSDOF 3
ENDMDL
MODEL 3
REMARK VINA RESULT:      -8.5      2.884      5.026
REMARK  3 active torsions:
REMARK  status: ('A' for Active; 'I' for Inactive)
REMARK    1  A    between atoms: N_7  and  C_9 
REMARK    2  A    between atoms: C_9  and  C_10 
REMARK    3  A    between atoms: C_13  and  C_14 
ROOT
HETATM    1  C   UNL     1     -10.905   2.996 -32.346  1.00  0.00     0.269 C 
HETATM    2  N   UNL     1     -10.059   1.746 -32.327  1.00  0.00    -0.074 N 
HETATM    3  H   UNL     1     -10.696   1.065 -31.883  1.00  0.00     0.279 HD
HETATM    4  C   UNL     1      -8.842   1.764 -31.438  1.00  0.00     0.245 C 
HETATM    5  C   UNL     1      -7.567   2.412 -32.069  1.00  0.00     0.008 C 
HETATM    6  C   UNL     1      -6.376   2.034 -31.128  1.00  0.00     0.246 C 
HETATM    7  N   UNL     1      -5.099   2.809 -31.364  1.00  0.00    -0.063 N 
HETATM    8  H   UNL     1      -4.536   2.645 -30.510  1.00  0.00     0.280 HD
HETATM    9  C   UNL     1      -5.284   4.299 -31.402  1.00  0.00     0.235 C 
HETATM   10  C   UNL     1      -6.360   4.667 -32.407  1.00  0.00     0.029 C 
HETATM   11  C   UNL     1      -7.685   3.957 -32.112  1.00  0.00     0.014 C 
HETATM   12  C   UNL     1      -7.376   1.823 -33.490  1.00  0.00     0.014 C 
HETATM   13  C   UNL     1      -8.637   1.866 -34.356  1.00  0.00     0.029 C 
HETATM   14  C   UNL     1      -9.811   1.166 -33.695  1.00  0.00     0.234 C 
ENDROOT
BRANCH   7  15
HETATM   15  C   UNL     1      -4.136   2.267 -32.434  1.00  0.00     0.323 C 
BRANCH  15  16
HETATM   16  C   UNL     1      -3.960   0.797 -32.340  1.00  0.00     0.199 A 
HETATM   17  O   UNL     1      -3.070   0.334 -31.425  1.00  0.00    -0.194 OA
HETATM   18  N   UNL     1      -2.967  -1.033 -31.645  1.00  0.00    -0.106 NA
HETATM   19  C   UNL     1      -3.831  -1.277 -32.645  1.00  0.00     0.189 A 
HETATM   20  N   UNL     1      -4.416  -0.128 -33.151  1.00  0.00    -0.202 NA
BRANCH  19  21
HETATM   21  C   UNL     1      -4.106  -2.599 -33.192  1.00  0.00     0.016 A 
HETATM   22  C   UNL     1      -5.141  -2.795 -34.118  1.00  0.00     0.039 A 
HETATM   23  C   UNL     1      -5.392  -4.069 -34.629  1.00  0.00     0.035 A 
HETATM   24 CL   UNL     1      -6.679  -4.297 -35.746  1.00  0.00    -0.084 Cl
HETATM   25  C   UNL     1      -4.615  -5.157 -34.238  1.00  0.00     0.024 A 
HETATM   26  C   UNL     1      -3.579  -4.972 -33.323  1.00  0.00     0.003 A 
HETATM   27  C   UNL     1      -3.328  -3.701 -32.799  1.00  0.00     0.015 A 
ENDBRANCH  19  21
ENDBRANCH  15  16
ENDBRANCH   7  15
TORSDOF 3
ENDMDL
MODEL 4
REMARK VINA RESULT:      -8.4      3.648      5.547
REMARK  3 active torsions:
REMARK  status: ('A' for Active; 'I' for Inactive)
REMARK    1  A    between atoms: N_7  and  C_9 
REMARK    2  A    between atoms: C_9  and  C_10 
REMARK    3  A    between atoms: C_13  and  C_14 
ROOT
HETATM    1  C   UNL     1     -13.456   3.981 -33.955  1.00  0.00     0.269 C 
HETATM    2  N   UNL     1     -12.537   2.975 -34.604  1.00  0.00    -0.074 N 
HETATM    3  H   UNL     1     -13.208   2.340 -35.066  1.00  0.00     0.279 HD
HETATM    4  C   UNL     1     -11.745   2.085 -33.680  1.00  0.00     0.245 C 
HETATM    5  C   UNL     1     -10.413   2.702 -33.144  1.00  0.00     0.008 C 
HETATM    6  C   UNL     1      -9.617   1.522 -32.495  1.00  0.00     0.246 C 
HETATM    7  N   UNL     1      -8.443   1.933 -31.636  1.00  0.00    -0.063 N 
HETATM    8  H   UNL     1      -8.220   1.086 -31.081  1.00  0.00     0.280 HD
HETATM    9  C   UNL     1      -8.775   2.971 -30.602  1.00  0.00     0.235 C 
HETATM   10  C   UNL     1      -9.439   4.167 -31.258  1.00  0.00     0.029 C 
HETATM   11  C   UNL     1     -10.686   3.766 -32.051  1.00  0.00     0.014 C 
HETATM   12  C   UNL     1      -9.643   3.313 -34.342  1.00  0.00     0.014 C 
HETATM   13  C   UNL     1     -10.492   4.235 -35.222  1.00  0.00     0.029 C 
HETATM   14  C   UNL     1     -11.736   3.541 -35.747  1.00  0.00     0.234 C 
ENDROOT
BRANCH   7  15
HETATM   15  C   UNL     1      -7.097   2.158 -32.344  1.00  0.00     0.323 C 
BRANCH  15  16
HETATM   16  C   UNL     1      -6.751   1.044 -33.261  1.00  0.00     0.199 A 
HETATM   17  O   UNL     1      -6.859   1.277 -34.594  1.00  0.00    -0.194 OA
HETATM   18  N   UNL     1      -6.646   0.056 -35.219  1.00  0.00    -0.106 NA
HETATM   19  C   UNL     1      -6.391  -0.796 -34.210  1.00  0.00     0.189 A 
HETATM   20  N   UNL     1      -6.524  -0.213 -32.960  1.00  0.00    -0.202 NA
BRANCH  19  21
HETATM   21  C   UNL     1      -6.056  -2.203 -34.384  1.00  0.00     0.016 A 
HETATM   22  C   UNL     1      -4.835  -2.715 -33.923  1.00  0.00     0.039 A 
HETATM   23  C   UNL     1      -4.530  -4.065 -34.102  1.00  0.00     0.035 A 
HETATM   24 CL   UNL     1      -3.019  -4.673 -33.551  1.00  0.00    -0.084 Cl
HETATM   25  C   UNL     1      -5.433  -4.921 -34.728  1.00  0.00     0.024 A 
HETATM   26  C   UNL     1      -6.653  -4.423 -35.184  1.00  0.00     0.003 A 
HETATM   27  C   UNL     1      -6.962  -3.070 -35.018  1.00  0.00     0.015 A 
ENDBRANCH  19  21
ENDBRANCH  15  16
ENDBRANCH   7  15
TORSDOF 3
ENDMDL
MODEL 5
REMARK VINA RESULT:      -8.1      4.597      6.039
REMARK  3 active torsions:
REMARK  status: ('A' for Active; 'I' for Inactive)
REMARK    1  A    between atoms: N_7  and  C_9 
REMARK    2  A    between atoms: C_9  and  C_10 
REMARK    3  A    between atoms: C_13  and  C_14 
ROOT
HETATM    1  C   UNL     1     -12.471   7.503 -35.570  1.00  0.00     0.269 C 
HETATM    2  N   UNL     1     -11.167   7.076 -34.942  1.00  0.00    -0.074 N 
HETATM    3  H   UNL     1     -10.507   7.770 -35.328  1.00  0.00     0.279 HD
HETATM    4  C   UNL     1     -10.612   5.742 -35.375  1.00  0.00     0.245 C 
HETATM    5  C   UNL     1     -11.188   4.504 -34.614  1.00  0.00     0.008 C 
HETATM    6  C   UNL     1     -10.260   3.299 -34.978  1.00  0.00     0.246 C 
HETATM    7  N   UNL     1     -10.801   1.936 -34.611  1.00  0.00    -0.063 N 
HETATM    8  H   UNL     1     -10.222   1.272 -35.157  1.00  0.00     0.280 HD
HETATM    9  C   UNL     1     -12.201   1.683 -35.093  1.00  0.00     0.235 C 
HETATM   10  C   UNL     1     -13.121   2.797 -34.632  1.00  0.00     0.029 C 
HETATM   11  C   UNL     1     -12.626   4.173 -35.086  1.00  0.00     0.014 C 
HETATM   12  C   UNL     1     -11.151   4.808 -33.094  1.00  0.00     0.014 C 
HETATM   13  C   UNL     1     -11.762   6.160 -32.715  1.00  0.00     0.029 C 
HETATM   14  C   UNL     1     -11.107   7.312 -33.456  1.00  0.00     0.234 C 
ENDROOT
BRANCH   7  15
HETATM   15  C   UNL     1     -10.525   1.430 -33.185  1.00  0.00     0.323 C 
BRANCH  15  16
HETATM   16  C   UNL     1      -9.166   0.852 -33.047  1.00  0.00     0.199 A 
HETATM   17  O   UNL     1      -8.237   1.593 -32.392  1.00  0.00    -0.194 OA
HETATM   18  N   UNL     1      -7.031   0.921 -32.540  1.00  0.00    -0.106 NA
HETATM   19  C   UNL     1      -7.348  -0.184 -33.238  1.00  0.00     0.189 A 
HETATM   20  N   UNL     1      -8.676  -0.215 -33.633  1.00  0.00    -0.202 NA
BRANCH  19  21
HETATM   21  C   UNL     1      -6.401  -1.231 -33.596  1.00  0.00     0.016 A 
HETATM   22  C   UNL     1      -6.791  -2.309 -34.404  1.00  0.00     0.039 A 
HETATM   23  C   UNL     1      -5.872  -3.305 -34.735  1.00  0.00     0.035 A 
HETATM   24 CL   UNL     1      -6.371  -4.631 -35.709  1.00  0.00    -0.084 Cl
HETATM   25  C   UNL     1      -4.557  -3.239 -34.278  1.00  0.00     0.024 A 
HETATM   26  C   UNL     1      -4.158  -2.168 -33.479  1.00  0.00     0.003 A 
HETATM   27  C   UNL     1      -5.076  -1.172 -33.136  1.00  0.00     0.015 A 
ENDBRANCH  19  21
ENDBRANCH  15  16
ENDBRANCH   7  15
TORSDOF 3
ENDMDL
MODEL 6
REMARK VINA RESULT:      -8.0      2.679      4.750
REMARK  3 active torsions:
REMARK  status: ('A' for Active; 'I' for Inactive)
REMARK    1  A    between atoms: N_7  and  C_9 
REMARK    2  A    between atoms: C_9  and  C_10 
REMARK    3  A    between atoms: C_13  and  C_14 
ROOT
HETATM    1  C   UNL     1     -10.606   4.624 -30.614  1.00  0.00     0.269 C 
HETATM    2  N   UNL     1      -9.868   3.337 -30.892  1.00  0.00    -0.074 N 
HETATM    3  H   UNL     1     -10.502   2.634 -30.478  1.00  0.00     0.279 HD
HETATM    4  C   UNL     1      -8.558   3.138 -30.174  1.00  0.00     0.245 C 
HETATM    5  C   UNL     1      -7.317   3.798 -30.859  1.00  0.00     0.008 C 
HETATM    6  C   UNL     1      -6.059   3.202 -30.147  1.00  0.00     0.246 C 
HETATM    7  N   UNL     1      -4.760   3.923 -30.426  1.00  0.00    -0.063 N 
HETATM    8  H   UNL     1      -4.115   3.591 -29.685  1.00  0.00     0.280 HD
HETATM    9  C   UNL     1      -4.826   5.409 -30.214  1.00  0.00     0.235 C 
HETATM   10  C   UNL     1      -5.978   5.998 -31.006  1.00  0.00     0.029 C 
HETATM   11  C   UNL     1      -7.313   5.334 -30.654  1.00  0.00     0.014 C 
HETATM   12  C   UNL     1      -7.342   3.432 -32.365  1.00  0.00     0.014 C 
HETATM   13  C   UNL     1      -8.689   3.691 -33.046  1.00  0.00     0.029 C 
HETATM   14  C   UNL     1      -9.830   2.968 -32.352  1.00  0.00     0.234 C 
ENDROOT
BRANCH   7  15
HETATM   15  C   UNL     1      -3.976   3.501 -31.680  1.00  0.00     0.323 C 
BRANCH  15  16
HETATM   16  C   UNL     1      -3.939   2.027 -31.850  1.00  0.00     0.199 A 
HETATM   17  O   UNL     1      -2.991   1.343 -31.160  1.00  0.00    -0.194 OA
HETATM   18  N   UNL     1      -3.057   0.031 -31.610  1.00  0.00    -0.106 NA
HETATM   19  C   UNL     1      -4.063   0.034 -32.501  1.00  0.00     0.189 A 
HETATM   20  N   UNL     1      -4.589   1.296 -32.725  1.00  0.00    -0.202 NA
BRANCH  19  21
HETATM   21  C   UNL     1      -4.540  -1.147 -33.208  1.00  0.00     0.016 A 
HETATM   22  C   UNL     1      -3.812  -2.346 -33.183  1.00  0.00     0.039 A 
HETATM   23  C   UNL     1      -4.281  -3.466 -33.869  1.00  0.00     0.035 A 
HETATM   24 CL   UNL     1      -3.366  -4.921 -33.846  1.00  0.00    -0.084 Cl
HETATM   25  C   UNL     1      -5.480  -3.414 -34.577  1.00  0.00     0.024 A 
HETATM   26  C   UNL     1      -6.216  -2.230 -34.604  1.00  0.00     0.003 A 
HETATM   27  C   UNL     1      -5.746  -1.100 -33.926  1.00  0.00     0.015 A 
ENDBRANCH  19  21
ENDBRANCH  15  16
ENDBRANCH   7  15
TORSDOF 3
ENDMDL
MODEL 7
REMARK VINA RESULT:      -7.9      4.761      9.419
REMARK  3 active torsions:
REMARK  status: ('A' for Active; 'I' for Inactive)
REMARK    1  A    between atoms: N_7  and  C_9 
REMARK    2  A    between atoms: C_9  and  C_10 
REMARK    3  A    between atoms: C_13  and  C_14 
ROOT
HETATM    1  C   UNL     1      -8.782   0.949 -31.648  1.00  0.00     0.269 C 
HETATM    2  N   UNL     1      -7.517   1.025 -30.828  1.00  0.00    -0.074 N 
HETATM    3  H   UNL     1      -7.856   0.761 -29.889  1.00  0.00     0.279 HD
HETATM    4  C   UNL     1      -6.913   2.394 -30.642  1.00  0.00     0.245 C 
HETATM    5  C   UNL     1      -5.985   2.874 -31.805  1.00  0.00     0.008 C 
HETATM    6  C   UNL     1      -5.228   4.132 -31.266  1.00  0.00     0.246 C 
HETATM    7  N   UNL     1      -4.512   4.951 -32.316  1.00  0.00    -0.063 N 
HETATM    8  H   UNL     1      -4.318   5.856 -31.851  1.00  0.00     0.280 HD
HETATM    9  C   UNL     1      -5.369   5.320 -33.494  1.00  0.00     0.235 C 
HETATM   10  C   UNL     1      -6.005   4.078 -34.087  1.00  0.00     0.029 C 
HETATM   11  C   UNL     1      -6.813   3.297 -33.045  1.00  0.00     0.014 C 
HETATM   12  C   UNL     1      -5.003   1.726 -32.150  1.00  0.00     0.014 C 
HETATM   13  C   UNL     1      -5.682   0.370 -32.362  1.00  0.00     0.029 C 
HETATM   14  C   UNL     1      -6.515  -0.048 -31.163  1.00  0.00     0.234 C 
ENDROOT
BRANCH   7  15
HETATM   15  C   UNL     1      -3.082   4.523 -32.688  1.00  0.00     0.323 C 
BRANCH  15  16
HETATM   16  C   UNL     1      -2.071   5.058 -31.742  1.00  0.00     0.199 A 
HETATM   17  O   UNL     1      -1.044   4.240 -31.399  1.00  0.00    -0.194 OA
HETATM   18  N   UNL     1      -0.344   4.897 -30.397  1.00  0.00    -0.106 NA
HETATM   19  C   UNL     1      -0.989   6.068 -30.252  1.00  0.00     0.189 A 
HETATM   20  N   UNL     1      -2.126   6.163 -31.038  1.00  0.00    -0.202 NA
BRANCH  19  21
HETATM   21  C   UNL     1      -0.582   7.124 -29.334  1.00  0.00     0.016 A 
HETATM   22  C   UNL     1      -1.517   8.038 -28.828  1.00  0.00     0.039 A 
HETATM   23  C   UNL     1      -1.108   9.045 -27.953  1.00  0.00     0.035 A 
HETATM   24 CL   UNL     1      -2.263  10.172 -27.358  1.00  0.00    -0.084 Cl
HETATM   25  C   UNL     1       0.225   9.150 -27.563  1.00  0.00     0.024 A 
HETATM   26  C   UNL     1       1.162   8.242 -28.056  1.00  0.00     0.003 A 
HETATM   27  C   UNL     1       0.762   7.237 -28.940  1.00  0.00     0.015 A 
ENDBRANCH  19  21
ENDBRANCH  15  16
ENDBRANCH   7  15
TORSDOF 3
ENDMDL
MODEL 8
REMARK VINA RESULT:      -7.8      2.594      4.238
REMARK  3 active torsions:
REMARK  status: ('A' for Active; 'I' for Inactive)
REMARK    1  A    between atoms: N_7  and  C_9 
REMARK    2  A    between atoms: C_9  and  C_10 
REMARK    3  A    between atoms: C_13  and  C_14 
ROOT
HETATM    1  C   UNL     1       0.703   7.715 -28.882  1.00  0.00     0.269 C 
HETATM    2  N   UNL     1      -0.401   6.713 -28.645  1.00  0.00    -0.074 N 
HETATM    3  H   UNL     1       0.020   6.097 -27.931  1.00  0.00     0.279 HD
HETATM    4  C   UNL     1      -0.737   5.792 -29.790  1.00  0.00     0.245 C 
HETATM    5  C   UNL     1      -1.728   6.380 -30.847  1.00  0.00     0.008 C 
HETATM    6  C   UNL     1      -2.181   5.175 -31.735  1.00  0.00     0.246 C 
HETATM    7  N   UNL     1      -2.893   5.551 -33.015  1.00  0.00    -0.063 N 
HETATM    8  H   UNL     1      -2.865   4.689 -33.590  1.00  0.00     0.280 HD
HETATM    9  C   UNL     1      -2.164   6.569 -33.845  1.00  0.00     0.235 C 
HETATM   10  C   UNL     1      -1.834   7.788 -33.005  1.00  0.00     0.029 C 
HETATM   11  C   UNL     1      -1.028   7.421 -31.756  1.00  0.00     0.014 C 
HETATM   12  C   UNL     1      -2.926   7.008 -30.092  1.00  0.00     0.014 C 
HETATM   13  C   UNL     1      -2.520   7.961 -28.964  1.00  0.00     0.029 C 
HETATM   14  C   UNL     1      -1.605   7.295 -27.953  1.00  0.00     0.234 C 
ENDROOT
BRANCH   7  15
HETATM   15  C   UNL     1      -4.413   5.776 -32.934  1.00  0.00     0.323 C 
BRANCH  15  16
HETATM   16  C   UNL     1      -5.168   4.500 -32.883  1.00  0.00     0.199 A 
HETATM   17  O   UNL     1      -5.808   4.201 -31.724  1.00  0.00    -0.194 OA
HETATM   18  N   UNL     1      -6.290   2.907 -31.872  1.00  0.00    -0.106 NA
HETATM   19  C   UNL     1      -5.931   2.557 -33.119  1.00  0.00     0.189 A 
HETATM   20  N   UNL     1      -5.159   3.517 -33.752  1.00  0.00    -0.202 NA
BRANCH  19  21
HETATM   21  C   UNL     1      -6.266   1.285 -33.746  1.00  0.00     0.016 A 
HETATM   22  C   UNL     1      -5.484   0.143 -33.522  1.00  0.00     0.039 A 
HETATM   23  C   UNL     1      -5.817  -1.065 -34.134  1.00  0.00     0.035 A 
HETATM   24 CL   UNL     1      -4.836  -2.451 -33.866  1.00  0.00    -0.084 Cl
HETATM   25  C   UNL     1      -6.933  -1.157 -34.964  1.00  0.00     0.024 A 
HETATM   26  C   UNL     1      -7.721  -0.030 -35.189  1.00  0.00     0.003 A 
HETATM   27  C   UNL     1      -7.387   1.187 -34.587  1.00  0.00     0.015 A 
ENDBRANCH  19  21
ENDBRANCH  15  16
ENDBRANCH   7  15
TORSDOF 3
ENDMDL
MODEL 9
REMARK VINA RESULT:      -7.7      4.595      6.642
REMARK  3 active torsions:
REMARK  status: ('A' for Active; 'I' for Inactive)
REMARK    1  A    between atoms: N_7  and  C_9 
REMARK    2  A    between atoms: C_9  and  C_10 
REMARK    3  A    between atoms: C_13  and  C_14 
ROOT
HETATM    1  C   UNL     1     -13.501   7.115 -31.105  1.00  0.00     0.269 C 
HETATM    2  N   UNL     1     -12.800   5.885 -30.581  1.00  0.00    -0.074 N 
HETATM    3  H   UNL     1     -12.480   6.202 -29.652  1.00  0.00     0.279 HD
HETATM    4  C   UNL     1     -11.540   5.468 -31.296  1.00  0.00     0.245 C 
HETATM    5  C   UNL     1     -11.759   4.592 -32.573  1.00  0.00     0.008 C 
HETATM    6  C   UNL     1     -10.355   4.015 -32.950  1.00  0.00     0.246 C 
HETATM    7  N   UNL     1     -10.263   3.395 -34.326  1.00  0.00    -0.063 N 
HETATM    8  H   UNL     1      -9.245   3.330 -34.512  1.00  0.00     0.280 HD
HETATM    9  C   UNL     1     -10.782   4.273 -35.429  1.00  0.00     0.235 C 
HETATM   10  C   UNL     1     -12.192   4.732 -35.112  1.00  0.00     0.029 C 
HETATM   11  C   UNL     1     -12.270   5.447 -33.759  1.00  0.00     0.014 C 
HETATM   12  C   UNL     1     -12.760   3.463 -32.221  1.00  0.00     0.014 C 
HETATM   13  C   UNL     1     -14.035   3.954 -31.529  1.00  0.00     0.029 C 
HETATM   14  C   UNL     1     -13.734   4.746 -30.269  1.00  0.00     0.234 C 
ENDROOT
BRANCH   7  15
HETATM   15  C   UNL     1     -10.661   1.916 -34.459  1.00  0.00     0.323 C 
BRANCH  15  16
HETATM   16  C   UNL     1      -9.615   1.003 -33.935  1.00  0.00     0.199 A 
HETATM   17  O   UNL     1      -9.464   0.935 -32.588  1.00  0.00    -0.194 OA
HETATM   18  N   UNL     1      -8.336   0.157 -32.364  1.00  0.00    -0.106 NA
HETATM   19  C   UNL     1      -7.931  -0.205 -33.593  1.00  0.00     0.189 A 
HETATM   20  N   UNL     1      -8.677   0.375 -34.605  1.00  0.00    -0.202 NA
BRANCH  19  21
HETATM   21  C   UNL     1      -6.796  -1.078 -33.862  1.00  0.00     0.016 A 
HETATM   22  C   UNL     1      -6.980  -2.341 -34.444  1.00  0.00     0.039 A 
HETATM   23  C   UNL     1      -5.882  -3.165 -34.691  1.00  0.00     0.035 A 
HETATM   24 CL   UNL     1      -6.126  -4.719 -35.385  1.00  0.00    -0.084 Cl
HETATM   25  C   UNL     1      -4.592  -2.744 -34.375  1.00  0.00     0.024 A 
HETATM   26  C   UNL     1      -4.397  -1.488 -33.801  1.00  0.00     0.003 A 
HETATM   27  C   UNL     1      -5.494  -0.661 -33.542  1.00  0.00     0.015 A 
ENDBRANCH  19  21
ENDBRANCH  15  16
ENDBRANCH   7  15
TORSDOF 3
ENDMDL
MODEL 10
REMARK VINA RESULT:      -7.6      2.294      2.956
REMARK  3 active torsions:
REMARK  status: ('A' for Active; 'I' for Inactive)
REMARK    1  A    between atoms: N_7  and  C_9 
REMARK    2  A    between atoms: C_9  and  C_10 
REMARK    3  A    between atoms: C_13  and  C_14 
ROOT
HETATM    1  C   UNL     1      -7.180   8.733 -29.865  1.00  0.00     0.269 C 
HETATM    2  N   UNL     1      -6.496   8.302 -31.139  1.00  0.00    -0.074 N 
HETATM    3  H   UNL     1      -6.678   9.105 -31.762  1.00  0.00     0.279 HD
HETATM    4  C   UNL     1      -7.091   7.120 -31.861  1.00  0.00     0.245 C 
HETATM    5  C   UNL     1      -6.628   5.720 -31.340  1.00  0.00     0.008 C 
HETATM    6  C   UNL     1      -7.093   4.681 -32.412  1.00  0.00     0.246 C 
HETATM    7  N   UNL     1      -7.033   3.235 -31.975  1.00  0.00    -0.063 N 
HETATM    8  H   UNL     1      -7.619   2.731 -32.666  1.00  0.00     0.280 HD
HETATM    9  C   UNL     1      -7.705   2.965 -30.658  1.00  0.00     0.235 C 
HETATM   10  C   UNL     1      -7.160   3.898 -29.594  1.00  0.00     0.029 C 
HETATM   11  C   UNL     1      -7.308   5.369 -29.993  1.00  0.00     0.014 C 
HETATM   12  C   UNL     1      -5.084   5.740 -31.202  1.00  0.00     0.014 C 
HETATM   13  C   UNL     1      -4.544   6.946 -30.429  1.00  0.00     0.029 C 
HETATM   14  C   UNL     1      -4.994   8.263 -31.035  1.00  0.00     0.234 C 
ENDROOT
BRANCH   7  15
HETATM   15  C   UNL     1      -5.696   2.498 -32.163  1.00  0.00     0.323 C 
BRANCH  15  16
HETATM   16  C   UNL     1      -5.814   1.348 -33.093  1.00  0.00     0.199 A 
HETATM   17  O   UNL     1      -6.392   1.579 -34.299  1.00  0.00    -0.194 OA
HETATM   18  N   UNL     1      -6.533   0.337 -34.904  1.00  0.00    -0.106 NA
HETATM   19  C   UNL     1      -5.993  -0.526 -34.026  1.00  0.00     0.189 A 
HETATM   20  N   UNL     1      -5.598   0.078 -32.843  1.00  0.00    -0.202 NA
BRANCH  19  21
HETATM   21  C   UNL     1      -5.868  -1.960 -34.250  1.00  0.00     0.016 A 
HETATM   22  C   UNL     1      -4.675  -2.635 -33.955  1.00  0.00     0.039 A 
HETATM   23  C   UNL     1      -4.573  -4.008 -34.180  1.00  0.00     0.035 A 
HETATM   24 CL   UNL     1      -3.096  -4.816 -33.833  1.00  0.00    -0.084 Cl
HETATM   25  C   UNL     1      -5.652  -4.727 -34.688  1.00  0.00     0.024 A 
HETATM   26  C   UNL     1      -6.845  -4.067 -34.979  1.00  0.00     0.003 A 
HETATM   27  C   UNL     1      -6.952  -2.690 -34.766  1.00  0.00     0.015 A 
ENDBRANCH  19  21
ENDBRANCH  15  16
ENDBRANCH   7  15
TORSDOF 3
ENDMDL
