MODEL 1
REMARK VINA RESULT:      -8.2      0.000      0.000
REMARK  7 active torsions:
REMARK  status: ('A' for Active; 'I' for Inactive)
REMARK    1  A    between atoms: C_2  and  C_3 
REMARK    2  A    between atoms: C_3  and  N_4 
REMARK    3  A    between atoms: C_7  and  C_8 
REMARK    4  A    between atoms: C_8  and  N_9 
REMARK       I    between atoms: N_9  and  C_10 
REMARK       I    between atoms: C_10  and  N_11 
REMARK    5  A    between atoms: N_11  and  C_12 
REMARK    6  A    between atoms: C_16  and  N_17 
REMARK       I    between atoms: N_17  and  C_18 
REMARK    7  A    between atoms: C_18  and  C_19 
ROOT
HETATM    1  C   UNL     1      -3.957   2.998 -31.591  1.00  0.00     0.036 A 
HETATM    2  C   UNL     1      -5.006   2.956 -32.508  1.00  0.00     0.038 A 
HETATM    3  C   UNL     1      -5.460   1.731 -33.040  1.00  0.00    -0.033 A 
HETATM    4  C   UNL     1      -6.613   1.755 -34.008  1.00  0.00     0.050 C 
HETATM    5  C   UNL     1      -4.812   0.533 -32.674  1.00  0.00     0.041 A 
HETATM    6  C   UNL     1      -3.786   0.586 -31.724  1.00  0.00     0.032 A 
HETATM    7  C   UNL     1      -3.376   1.803 -31.174  1.00  0.00     0.032 A 
ENDROOT
BRANCH   1   8
HETATM    8  N   UNL     1      -3.450   4.191 -31.041  1.00  0.00    -0.309 N 
HETATM    9  C   UNL     1      -2.275   4.810 -31.389  1.00  0.00     0.320 C 
HETATM   10  N   UNL     1      -2.080   5.950 -30.632  1.00  0.00    -0.342 N 
HETATM   11  O   UNL     1      -1.422   4.401 -32.167  1.00  0.00    -0.247 OA
HETATM   12  H   UNL     1      -2.937   6.468 -30.470  1.00  0.00     0.164 HD
HETATM   13  H   UNL     1      -3.850   4.479 -30.160  1.00  0.00     0.170 HD
BRANCH  10  14
HETATM   14  C   UNL     1      -0.878   6.743 -30.791  1.00  0.00     0.130 C 
BRANCH  14  15
HETATM   15  C   UNL     1      -0.332   7.328 -29.487  1.00  0.00     0.031 C 
HETATM   16  C   UNL     1      -0.075   6.332 -28.367  1.00  0.00     0.241 C 
HETATM   17  N   UNL     1       0.083   7.218 -27.128  1.00  0.00    -0.071 N 
HETATM   18  H   UNL     1      -0.463   6.758 -26.387  1.00  0.00     0.279 HD
HETATM   19  C   UNL     1      -0.575   8.548 -27.456  1.00  0.00     0.235 C 
HETATM   20  C   UNL     1      -1.246   8.337 -28.802  1.00  0.00     0.035 C 
BRANCH  17  21
HETATM   21  C   UNL     1       1.510   7.318 -26.654  1.00  0.00     0.234 C 
BRANCH  21  22
HETATM   22  C   UNL     1       1.933   8.766 -26.413  1.00  0.00     0.023 C 
HETATM   23  C   UNL     1       2.652   8.980 -25.089  1.00  0.00     0.007 C 
ENDBRANCH  21  22
ENDBRANCH  17  21
ENDBRANCH  14  15
ENDBRANCH  10  14
ENDBRANCH   1   8
BRANCH   5  24
HETATM   24  N   UNL     1      -5.217  -0.678 -33.272  1.00  0.00    -0.321 N 
HETATM   25  C   UNL     1      -4.528  -1.879 -33.330  1.00  0.00     0.279 C 
HETATM   26  O   UNL     1      -3.413  -2.082 -32.861  1.00  0.00    -0.265 OA
HETATM   27  H   UNL     1      -6.084  -0.678 -33.798  1.00  0.00     0.169 HD
BRANCH  25  28
HETATM   28  C   UNL     1      -5.252  -2.902 -34.061  1.00  0.00     0.142 A 
HETATM   29  O   UNL     1      -4.676  -4.134 -34.248  1.00  0.00    -0.317 OA
HETATM   30  C   UNL     1      -5.558  -4.883 -34.960  1.00  0.00     0.143 A 
HETATM   31  C   UNL     1      -6.701  -4.164 -35.224  1.00  0.00     0.027 A 
HETATM   32  C   UNL     1      -6.504  -2.887 -34.647  1.00  0.00     0.045 A 
ENDBRANCH  25  28
ENDBRANCH   5  24
TORSDOF 7
ENDMDL
MODEL 2
REMARK VINA RESULT:      -8.1      1.231      1.840
REMARK  7 active torsions:
REMARK  status: ('A' for Active; 'I' for Inactive)
REMARK    1  A    between atoms: C_2  and  C_3 
REMARK    2  A    between atoms: C_3  and  N_4 
REMARK    3  A    between atoms: C_7  and  C_8 
REMARK    4  A    between atoms: C_8  and  N_9 
REMARK       I    between atoms: N_9  and  C_10 
REMARK       I    between atoms: C_10  and  N_11 
REMARK    5  A    between atoms: N_11  and  C_12 
REMARK    6  A    between atoms: C_16  and  N_17 
REMARK       I    between atoms: N_17  and  C_18 
REMARK    7  A    between atoms: C_18  and  C_19 
ROOT
HETATM    1  C   UNL     1      -4.113   3.095 -31.499  1.00  0.00     0.036 A 
HETATM    2  C   UNL     1      -3.388   1.950 -31.171  1.00  0.00     0.038 A 
HETATM    3  C   UNL     1      -3.634   0.722 -31.819  1.00  0.00    -0.033 A 
HETATM    4  C   UNL     1      -2.798  -0.470 -31.433  1.00  0.00     0.050 C 
HETATM    5  C   UNL     1      -4.661   0.638 -32.782  1.00  0.00     0.041 A 
HETATM    6  C   UNL     1      -5.353   1.803 -33.129  1.00  0.00     0.032 A 
HETATM    7  C   UNL     1      -5.070   3.022 -32.508  1.00  0.00     0.032 A 
ENDROOT
BRANCH   1   8
HETATM    8  N   UNL     1      -3.925   4.342 -30.873  1.00  0.00    -0.309 N 
HETATM    9  C   UNL     1      -2.822   5.152 -30.993  1.00  0.00     0.320 C 
HETATM   10  N   UNL     1      -2.967   6.291 -30.225  1.00  0.00    -0.342 N 
HETATM   11  O   UNL     1      -1.780   4.905 -31.587  1.00  0.00    -0.247 OA
HETATM   12  H   UNL     1      -3.913   6.659 -30.237  1.00  0.00     0.164 HD
HETATM   13  H   UNL     1      -4.529   4.541 -30.090  1.00  0.00     0.170 HD
BRANCH  10  14
HETATM   14  C   UNL     1      -1.904   7.273 -30.156  1.00  0.00     0.130 C 
BRANCH  14  15
HETATM   15  C   UNL     1      -1.262   7.410 -28.774  1.00  0.00     0.031 C 
HETATM   16  C   UNL     1      -0.086   6.488 -28.493  1.00  0.00     0.241 C 
HETATM   17  N   UNL     1       0.084   6.576 -26.973  1.00  0.00    -0.071 N 
HETATM   18  H   UNL     1       0.224   5.608 -26.653  1.00  0.00     0.279 HD
HETATM   19  C   UNL     1      -1.236   7.081 -26.415  1.00  0.00     0.235 C 
HETATM   20  C   UNL     1      -2.184   7.103 -27.602  1.00  0.00     0.035 C 
BRANCH  17  21
HETATM   21  C   UNL     1       1.293   7.376 -26.561  1.00  0.00     0.234 C 
BRANCH  21  22
HETATM   22  C   UNL     1       1.571   8.530 -27.521  1.00  0.00     0.023 C 
HETATM   23  C   UNL     1       1.177   9.893 -26.968  1.00  0.00     0.007 C 
ENDBRANCH  21  22
ENDBRANCH  17  21
ENDBRANCH  14  15
ENDBRANCH  10  14
ENDBRANCH   1   8
BRANCH   5  24
HETATM   24  N   UNL     1      -4.955  -0.611 -33.367  1.00  0.00    -0.321 N 
HETATM   25  C   UNL     1      -6.196  -1.192 -33.569  1.00  0.00     0.279 C 
HETATM   26  O   UNL     1      -7.273  -0.697 -33.251  1.00  0.00    -0.265 OA
HETATM   27  H   UNL     1      -4.177  -1.213 -33.610  1.00  0.00     0.169 HD
BRANCH  25  28
HETATM   28  C   UNL     1      -6.104  -2.508 -34.173  1.00  0.00     0.142 A 
HETATM   29  O   UNL     1      -4.885  -3.137 -34.240  1.00  0.00    -0.317 OA
HETATM   30  C   UNL     1      -5.087  -4.333 -34.851  1.00  0.00     0.143 A 
HETATM   31  C   UNL     1      -6.415  -4.498 -35.167  1.00  0.00     0.027 A 
HETATM   32  C   UNL     1      -7.071  -3.322 -34.732  1.00  0.00     0.045 A 
ENDBRANCH  25  28
ENDBRANCH   5  24
TORSDOF 7
ENDMDL
MODEL 3
REMARK VINA RESULT:      -8.0      2.154      2.620
REMARK  7 active torsions:
REMARK  status: ('A' for Active; 'I' for Inactive)
REMARK    1  A    between atoms: C_2  and  C_3 
REMARK    2  A    between atoms: C_3  and  N_4 
REMARK    3  A    between atoms: C_7  and  C_8 
REMARK    4  A    between atoms: C_8  and  N_9 
REMARK       I    between atoms: N_9  and  C_10 
REMARK       I    between atoms: C_10  and  N_11 
REMARK    5  A    between atoms: N_11  and  C_12 
REMARK    6  A    between atoms: C_16  and  N_17 
REMARK       I    between atoms: N_17  and  C_18 
REMARK    7  A    between atoms: C_18  and  C_19 
ROOT
HETATM    1  C   UNL     1      -5.460   2.480 -30.158  1.00  0.00     0.036 A 
HETATM    2  C   UNL     1      -4.333   1.914 -30.753  1.00  0.00     0.038 A 
HETATM    3  C   UNL     1      -4.441   0.787 -31.593  1.00  0.00    -0.033 A 
HETATM    4  C   UNL     1      -3.187   0.241 -32.223  1.00  0.00     0.050 C 
HETATM    5  C   UNL     1      -5.704   0.193 -31.800  1.00  0.00     0.041 A 
HETATM    6  C   UNL     1      -6.831   0.794 -31.228  1.00  0.00     0.032 A 
HETATM    7  C   UNL     1      -6.713   1.935 -30.432  1.00  0.00     0.032 A 
ENDROOT
BRANCH   1   8
HETATM    8  N   UNL     1      -5.411   3.592 -29.297  1.00  0.00    -0.309 N 
HETATM    9  C   UNL     1      -5.165   4.892 -29.663  1.00  0.00     0.320 C 
HETATM   10  N   UNL     1      -5.170   5.721 -28.557  1.00  0.00    -0.342 N 
HETATM   11  O   UNL     1      -4.861   5.306 -30.775  1.00  0.00    -0.247 OA
HETATM   12  H   UNL     1      -5.887   5.476 -27.883  1.00  0.00     0.164 HD
HETATM   13  H   UNL     1      -5.303   3.388 -28.314  1.00  0.00     0.170 HD
BRANCH  10  14
HETATM   14  C   UNL     1      -4.884   7.135 -28.695  1.00  0.00     0.130 C 
BRANCH  14  15
HETATM   15  C   UNL     1      -3.547   7.568 -28.091  1.00  0.00     0.031 C 
HETATM   16  C   UNL     1      -2.304   7.170 -28.872  1.00  0.00     0.241 C 
HETATM   17  N   UNL     1      -1.166   7.388 -27.871  1.00  0.00    -0.071 N 
HETATM   18  H   UNL     1      -0.561   6.559 -27.955  1.00  0.00     0.279 HD
HETATM   19  C   UNL     1      -1.795   7.385 -26.488  1.00  0.00     0.235 C 
HETATM   20  C   UNL     1      -3.246   6.993 -26.713  1.00  0.00     0.035 C 
BRANCH  17  21
HETATM   21  C   UNL     1      -0.330   8.602 -28.183  1.00  0.00     0.234 C 
BRANCH  21  22
HETATM   22  C   UNL     1       1.165   8.292 -28.147  1.00  0.00     0.023 C 
HETATM   23  C   UNL     1       1.833   8.655 -26.828  1.00  0.00     0.007 C 
ENDBRANCH  21  22
ENDBRANCH  17  21
ENDBRANCH  14  15
ENDBRANCH  10  14
ENDBRANCH   1   8
BRANCH   5  24
HETATM   24  N   UNL     1      -5.794  -0.981 -32.575  1.00  0.00    -0.321 N 
HETATM   25  C   UNL     1      -5.993  -1.093 -33.942  1.00  0.00     0.279 C 
HETATM   26  O   UNL     1      -6.136  -0.155 -34.718  1.00  0.00    -0.265 OA
HETATM   27  H   UNL     1      -5.791  -1.870 -32.088  1.00  0.00     0.169 HD
BRANCH  25  28
HETATM   28  C   UNL     1      -6.063  -2.474 -34.383  1.00  0.00     0.142 A 
HETATM   29  O   UNL     1      -4.902  -3.173 -34.605  1.00  0.00    -0.317 OA
HETATM   30  C   UNL     1      -5.258  -4.419 -35.012  1.00  0.00     0.143 A 
HETATM   31  C   UNL     1      -6.627  -4.546 -35.041  1.00  0.00     0.027 A 
HETATM   32  C   UNL     1      -7.147  -3.293 -34.638  1.00  0.00     0.045 A 
ENDBRANCH  25  28
ENDBRANCH   5  24
TORSDOF 7
ENDMDL
MODEL 4
REMARK VINA RESULT:      -7.9      6.801     10.990
REMARK  7 active torsions:
REMARK  status: ('A' for Active; 'I' for Inactive)
REMARK    1  A    between atoms: C_2  and  C_3 
REMARK    2  A    between atoms: C_3  and  N_4 
REMARK    3  A    between atoms: C_7  and  C_8 
REMARK    4  A    between atoms: C_8  and  N_9 
REMARK       I    between atoms: N_9  and  C_10 
REMARK       I    between atoms: C_10  and  N_11 
REMARK    5  A    between atoms: N_11  and  C_12 
REMARK    6  A    between atoms: C_16  and  N_17 
REMARK       I    between atoms: N_17  and  C_18 
REMARK    7  A    between atoms: C_18  and  C_19 
ROOT
HETATM    1  C   UNL     1     -10.103   2.119 -34.048  1.00  0.00     0.036 A 
HETATM    2  C   UNL     1     -11.026   1.079 -33.953  1.00  0.00     0.038 A 
HETATM    3  C   UNL     1     -12.397   1.339 -33.749  1.00  0.00    -0.033 A 
HETATM    4  C   UNL     1     -13.344   0.169 -33.679  1.00  0.00     0.050 C 
HETATM    5  C   UNL     1     -12.836   2.670 -33.594  1.00  0.00     0.041 A 
HETATM    6  C   UNL     1     -11.906   3.705 -33.730  1.00  0.00     0.032 A 
HETATM    7  C   UNL     1     -10.557   3.434 -33.974  1.00  0.00     0.032 A 
ENDROOT
BRANCH   1   8
HETATM    8  N   UNL     1      -8.722   1.921 -34.232  1.00  0.00    -0.309 N 
HETATM    9  C   UNL     1      -7.793   1.711 -33.242  1.00  0.00     0.320 C 
HETATM   10  N   UNL     1      -6.527   1.576 -33.781  1.00  0.00    -0.342 N 
HETATM   11  O   UNL     1      -7.977   1.743 -32.032  1.00  0.00    -0.247 OA
HETATM   12  H   UNL     1      -6.521   1.051 -34.649  1.00  0.00     0.164 HD
HETATM   13  H   UNL     1      -8.349   2.198 -35.128  1.00  0.00     0.170 HD
BRANCH  10  14
HETATM   14  C   UNL     1      -5.376   1.394 -32.919  1.00  0.00     0.130 C 
BRANCH  14  15
HETATM   15  C   UNL     1      -4.660   0.054 -33.099  1.00  0.00     0.031 C 
HETATM   16  C   UNL     1      -5.554  -1.175 -33.153  1.00  0.00     0.241 C 
HETATM   17  N   UNL     1      -4.578  -2.338 -32.953  1.00  0.00    -0.071 N 
HETATM   18  H   UNL     1      -5.032  -2.970 -32.280  1.00  0.00     0.279 HD
HETATM   19  C   UNL     1      -3.335  -1.756 -32.301  1.00  0.00     0.235 C 
HETATM   20  C   UNL     1      -3.692  -0.314 -31.983  1.00  0.00     0.035 C 
BRANCH  17  21
HETATM   21  C   UNL     1      -4.322  -3.118 -34.217  1.00  0.00     0.234 C 
BRANCH  21  22
HETATM   22  C   UNL     1      -5.538  -3.125 -35.141  1.00  0.00     0.023 C 
HETATM   23  C   UNL     1      -6.328  -4.425 -35.100  1.00  0.00     0.007 C 
ENDBRANCH  21  22
ENDBRANCH  17  21
ENDBRANCH  14  15
ENDBRANCH  10  14
ENDBRANCH   1   8
BRANCH   5  24
HETATM   24  N   UNL     1     -14.195   2.917 -33.310  1.00  0.00    -0.321 N 
HETATM   25  C   UNL     1     -14.772   3.244 -32.093  1.00  0.00     0.279 C 
HETATM   26  O   UNL     1     -14.169   3.366 -31.031  1.00  0.00    -0.265 OA
HETATM   27  H   UNL     1     -14.868   2.770 -34.054  1.00  0.00     0.169 HD
BRANCH  25  28
HETATM   28  C   UNL     1     -16.213   3.392 -32.180  1.00  0.00     0.142 A 
HETATM   29  O   UNL     1     -16.967   2.370 -32.700  1.00  0.00    -0.317 OA
HETATM   30  C   UNL     1     -18.263   2.775 -32.670  1.00  0.00     0.143 A 
HETATM   31  C   UNL     1     -18.364   4.034 -32.126  1.00  0.00     0.027 A 
HETATM   32  C   UNL     1     -17.044   4.434 -31.811  1.00  0.00     0.045 A 
ENDBRANCH  25  28
ENDBRANCH   5  24
TORSDOF 7
ENDMDL
MODEL 5
REMARK VINA RESULT:      -7.8      1.396      2.340
REMARK  7 active torsions:
REMARK  status: ('A' for Active; 'I' for Inactive)
REMARK    1  A    between atoms: C_2  and  C_3 
REMARK    2  A    between atoms: C_3  and  N_4 
REMARK    3  A    between atoms: C_7  and  C_8 
REMARK    4  A    between atoms: C_8  and  N_9 
REMARK       I    between atoms: N_9  and  C_10 
REMARK       I    between atoms: C_10  and  N_11 
REMARK    5  A    between atoms: N_11  and  C_12 
REMARK    6  A    between atoms: C_16  and  N_17 
REMARK       I    between atoms: N_17  and  C_18 
REMARK    7  A    between atoms: C_18  and  C_19 
ROOT
HETATM    1  C   UNL     1      -3.867   2.937 -31.523  1.00  0.00     0.036 A 
HETATM    2  C   UNL     1      -3.131   1.779 -31.272  1.00  0.00     0.038 A 
HETATM    3  C   UNL     1      -3.485   0.549 -31.865  1.00  0.00    -0.033 A 
HETATM    4  C   UNL     1      -2.633  -0.658 -31.571  1.00  0.00     0.050 C 
HETATM    5  C   UNL     1      -4.629   0.478 -32.687  1.00  0.00     0.041 A 
HETATM    6  C   UNL     1      -5.335   1.654 -32.960  1.00  0.00     0.032 A 
HETATM    7  C   UNL     1      -4.948   2.873 -32.400  1.00  0.00     0.032 A 
ENDROOT
BRANCH   1   8
HETATM    8  N   UNL     1      -3.573   4.186 -30.946  1.00  0.00    -0.309 N 
HETATM    9  C   UNL     1      -2.435   4.928 -31.152  1.00  0.00     0.320 C 
HETATM   10  N   UNL     1      -2.471   6.093 -30.410  1.00  0.00    -0.342 N 
HETATM   11  O   UNL     1      -1.444   4.605 -31.795  1.00  0.00    -0.247 OA
HETATM   12  H   UNL     1      -3.393   6.515 -30.381  1.00  0.00     0.164 HD
HETATM   13  H   UNL     1      -4.119   4.441 -30.137  1.00  0.00     0.170 HD
BRANCH  10  14
HETATM   14  C   UNL     1      -1.351   7.013 -30.430  1.00  0.00     0.130 C 
BRANCH  14  15
HETATM   15  C   UNL     1      -1.061   7.680 -29.084  1.00  0.00     0.031 C 
HETATM   16  C   UNL     1      -1.547   9.113 -28.933  1.00  0.00     0.241 C 
HETATM   17  N   UNL     1      -0.803   9.616 -27.693  1.00  0.00    -0.071 N 
HETATM   18  H   UNL     1      -0.463  10.557 -27.936  1.00  0.00     0.279 HD
HETATM   19  C   UNL     1       0.400   8.706 -27.507  1.00  0.00     0.235 C 
HETATM   20  C   UNL     1       0.416   7.815 -28.738  1.00  0.00     0.035 C 
BRANCH  17  21
HETATM   21  C   UNL     1      -1.691   9.745 -26.484  1.00  0.00     0.234 C 
BRANCH  21  22
HETATM   22  C   UNL     1      -1.389   8.677 -25.434  1.00  0.00     0.023 C 
HETATM   23  C   UNL     1      -2.416   7.555 -25.391  1.00  0.00     0.007 C 
ENDBRANCH  21  22
ENDBRANCH  17  21
ENDBRANCH  14  15
ENDBRANCH  10  14
ENDBRANCH   1   8
BRANCH   5  24
HETATM   24  N   UNL     1      -5.023  -0.771 -33.210  1.00  0.00    -0.321 N 
HETATM   25  C   UNL     1      -5.838  -1.026 -34.302  1.00  0.00     0.279 C 
HETATM   26  O   UNL     1      -6.370  -0.173 -35.005  1.00  0.00    -0.265 OA
HETATM   27  H   UNL     1      -4.754  -1.604 -32.698  1.00  0.00     0.169 HD
BRANCH  25  28
HETATM   28  C   UNL     1      -6.049  -2.445 -34.521  1.00  0.00     0.142 A 
HETATM   29  O   UNL     1      -4.966  -3.270 -34.696  1.00  0.00    -0.317 OA
HETATM   30  C   UNL     1      -5.448  -4.525 -34.886  1.00  0.00     0.143 A 
HETATM   31  C   UNL     1      -6.822  -4.532 -34.821  1.00  0.00     0.027 A 
HETATM   32  C   UNL     1      -7.210  -3.191 -34.588  1.00  0.00     0.045 A 
ENDBRANCH  25  28
ENDBRANCH   5  24
TORSDOF 7
ENDMDL
MODEL 6
REMARK VINA RESULT:      -7.7      4.162      5.298
REMARK  7 active torsions:
REMARK  status: ('A' for Active; 'I' for Inactive)
REMARK    1  A    between atoms: C_2  and  C_3 
REMARK    2  A    between atoms: C_3  and  N_4 
REMARK    3  A    between atoms: C_7  and  C_8 
REMARK    4  A    between atoms: C_8  and  N_9 
REMARK       I    between atoms: N_9  and  C_10 
REMARK       I    between atoms: C_10  and  N_11 
REMARK    5  A    between atoms: N_11  and  C_12 
REMARK    6  A    between atoms: C_16  and  N_17 
REMARK       I    between atoms: N_17  and  C_18 
REMARK    7  A    between atoms: C_18  and  C_19 
ROOT
HETATM    1  C   UNL     1      -5.969   2.326 -32.772  1.00  0.00     0.036 A 
HETATM    2  C   UNL     1      -6.946   2.677 -31.842  1.00  0.00     0.038 A 
HETATM    3  C   UNL     1      -8.293   2.298 -32.021  1.00  0.00    -0.033 A 
HETATM    4  C   UNL     1      -9.293   2.689 -30.966  1.00  0.00     0.050 C 
HETATM    5  C   UNL     1      -8.666   1.591 -33.183  1.00  0.00     0.041 A 
HETATM    6  C   UNL     1      -7.669   1.212 -34.089  1.00  0.00     0.032 A 
HETATM    7  C   UNL     1      -6.333   1.559 -33.876  1.00  0.00     0.032 A 
ENDROOT
BRANCH   1   8
HETATM    8  N   UNL     1      -4.615   2.693 -32.655  1.00  0.00    -0.309 N 
HETATM    9  C   UNL     1      -4.020   3.793 -33.222  1.00  0.00     0.320 C 
HETATM   10  N   UNL     1      -2.673   3.831 -32.917  1.00  0.00    -0.342 N 
HETATM   11  O   UNL     1      -4.528   4.599 -33.991  1.00  0.00    -0.247 OA
HETATM   12  H   UNL     1      -2.474   3.538 -31.967  1.00  0.00     0.164 HD
HETATM   13  H   UNL     1      -3.985   1.969 -32.342  1.00  0.00     0.170 HD
BRANCH  10  14
HETATM   14  C   UNL     1      -1.827   4.881 -33.449  1.00  0.00     0.130 C 
BRANCH  14  15
HETATM   15  C   UNL     1      -1.211   5.792 -32.386  1.00  0.00     0.031 C 
HETATM   16  C   UNL     1      -1.359   5.328 -30.945  1.00  0.00     0.241 C 
HETATM   17  N   UNL     1      -1.009   6.575 -30.128  1.00  0.00    -0.071 N 
HETATM   18  H   UNL     1      -1.722   6.631 -29.387  1.00  0.00     0.279 HD
HETATM   19  C   UNL     1      -1.186   7.767 -31.054  1.00  0.00     0.235 C 
HETATM   20  C   UNL     1      -1.799   7.196 -32.322  1.00  0.00     0.035 C 
BRANCH  17  21
HETATM   21  C   UNL     1       0.340   6.486 -29.464  1.00  0.00     0.234 C 
BRANCH  21  22
HETATM   22  C   UNL     1       0.690   7.763 -28.704  1.00  0.00     0.023 C 
HETATM   23  C   UNL     1       1.227   7.512 -27.302  1.00  0.00     0.007 C 
ENDBRANCH  21  22
ENDBRANCH  17  21
ENDBRANCH  14  15
ENDBRANCH  10  14
ENDBRANCH   1   8
BRANCH   5  24
HETATM   24  N   UNL     1     -10.026   1.285 -33.396  1.00  0.00    -0.321 N 
HETATM   25  C   UNL     1     -10.949   1.972 -34.168  1.00  0.00     0.279 C 
HETATM   26  O   UNL     1     -10.721   2.995 -34.805  1.00  0.00    -0.265 OA
HETATM   27  H   UNL     1     -10.425   0.516 -32.870  1.00  0.00     0.169 HD
BRANCH  25  28
HETATM   28  C   UNL     1     -12.271   1.375 -34.120  1.00  0.00     0.142 A 
HETATM   29  O   UNL     1     -12.435   0.143 -33.535  1.00  0.00    -0.317 OA
HETATM   30  C   UNL     1     -13.752  -0.173 -33.635  1.00  0.00     0.143 A 
HETATM   31  C   UNL     1     -14.447   0.836 -34.259  1.00  0.00     0.027 A 
HETATM   32  C   UNL     1     -13.493   1.834 -34.574  1.00  0.00     0.045 A 
ENDBRANCH  25  28
ENDBRANCH   5  24
TORSDOF 7
ENDMDL
MODEL 7
REMARK VINA RESULT:      -7.5      2.475     10.904
REMARK  7 active torsions:
REMARK  status: ('A' for Active; 'I' for Inactive)
REMARK    1  A    between atoms: C_2  and  C_3 
REMARK    2  A    between atoms: C_3  and  N_4 
REMARK    3  A    between atoms: C_7  and  C_8 
REMARK    4  A    between atoms: C_8  and  N_9 
REMARK       I    between atoms: N_9  and  C_10 
REMARK       I    between atoms: C_10  and  N_11 
REMARK    5  A    between atoms: N_11  and  C_12 
REMARK    6  A    between atoms: C_16  and  N_17 
REMARK       I    between atoms: N_17  and  C_18 
REMARK    7  A    between atoms: C_18  and  C_19 
ROOT
HETATM    1  C   UNL     1      -3.675   4.638 -31.751  1.00  0.00     0.036 A 
HETATM    2  C   UNL     1      -4.096   5.683 -30.929  1.00  0.00     0.038 A 
HETATM    3  C   UNL     1      -3.173   6.419 -30.157  1.00  0.00    -0.033 A 
HETATM    4  C   UNL     1      -3.692   7.550 -29.310  1.00  0.00     0.050 C 
HETATM    5  C   UNL     1      -1.808   6.064 -30.182  1.00  0.00     0.041 A 
HETATM    6  C   UNL     1      -1.395   5.040 -31.040  1.00  0.00     0.032 A 
HETATM    7  C   UNL     1      -2.315   4.347 -31.830  1.00  0.00     0.032 A 
ENDROOT
BRANCH   1   8
HETATM    8  N   UNL     1      -4.551   3.857 -32.529  1.00  0.00    -0.309 N 
HETATM    9  C   UNL     1      -5.458   2.941 -32.056  1.00  0.00     0.320 C 
HETATM   10  N   UNL     1      -6.137   2.342 -33.100  1.00  0.00    -0.342 N 
HETATM   11  O   UNL     1      -5.611   2.577 -30.896  1.00  0.00    -0.247 OA
HETATM   12  H   UNL     1      -6.362   2.990 -33.848  1.00  0.00     0.164 HD
HETATM   13  H   UNL     1      -4.326   3.782 -33.510  1.00  0.00     0.170 HD
BRANCH  10  14
HETATM   14  C   UNL     1      -7.115   1.303 -32.843  1.00  0.00     0.130 C 
BRANCH  14  15
HETATM   15  C   UNL     1      -6.631  -0.110 -33.172  1.00  0.00     0.031 C 
HETATM   16  C   UNL     1      -5.243  -0.213 -33.785  1.00  0.00     0.241 C 
HETATM   17  N   UNL     1      -5.199  -1.640 -34.337  1.00  0.00    -0.071 N 
HETATM   18  H   UNL     1      -4.781  -1.562 -35.275  1.00  0.00     0.279 HD
HETATM   19  C   UNL     1      -6.642  -2.093 -34.492  1.00  0.00     0.235 C 
HETATM   20  C   UNL     1      -7.477  -0.860 -34.192  1.00  0.00     0.035 C 
BRANCH  17  21
HETATM   21  C   UNL     1      -4.331  -2.562 -33.521  1.00  0.00     0.234 C 
BRANCH  21  22
HETATM   22  C   UNL     1      -4.034  -3.868 -34.255  1.00  0.00     0.023 C 
HETATM   23  C   UNL     1      -3.695  -5.027 -33.328  1.00  0.00     0.007 C 
ENDBRANCH  21  22
ENDBRANCH  17  21
ENDBRANCH  14  15
ENDBRANCH  10  14
ENDBRANCH   1   8
BRANCH   5  24
HETATM   24  N   UNL     1      -0.904   6.752 -29.346  1.00  0.00    -0.321 N 
HETATM   25  C   UNL     1       0.253   6.270 -28.754  1.00  0.00     0.279 C 
HETATM   26  O   UNL     1       0.682   5.126 -28.860  1.00  0.00    -0.265 OA
HETATM   27  H   UNL     1      -1.145   7.696 -29.066  1.00  0.00     0.169 HD
BRANCH  25  28
HETATM   28  C   UNL     1       0.912   7.266 -27.929  1.00  0.00     0.142 A 
HETATM   29  O   UNL     1       1.187   6.980 -26.615  1.00  0.00    -0.317 OA
HETATM   30  C   UNL     1       1.792   8.076 -26.086  1.00  0.00     0.143 A 
HETATM   31  C   UNL     1       1.928   9.059 -27.037  1.00  0.00     0.027 A 
HETATM   32  C   UNL     1       1.360   8.539 -28.225  1.00  0.00     0.045 A 
ENDBRANCH  25  28
ENDBRANCH   5  24
TORSDOF 7
ENDMDL
MODEL 8
REMARK VINA RESULT:      -7.5      5.385     11.584
REMARK  7 active torsions:
REMARK  status: ('A' for Active; 'I' for Inactive)
REMARK    1  A    between atoms: C_2  and  C_3 
REMARK    2  A    between atoms: C_3  and  N_4 
REMARK    3  A    between atoms: C_7  and  C_8 
REMARK    4  A    between atoms: C_8  and  N_9 
REMARK       I    between atoms: N_9  and  C_10 
REMARK       I    between atoms: C_10  and  N_11 
REMARK    5  A    between atoms: N_11  and  C_12 
REMARK    6  A    between atoms: C_16  and  N_17 
REMARK       I    between atoms: N_17  and  C_18 
REMARK    7  A    between atoms: C_18  and  C_19 
ROOT
HETATM    1  C   UNL     1      -7.380   3.177 -33.152  1.00  0.00     0.036 A 
HETATM    2  C   UNL     1      -7.187   3.304 -31.777  1.00  0.00     0.038 A 
HETATM    3  C   UNL     1      -6.011   3.885 -31.258  1.00  0.00    -0.033 A 
HETATM    4  C   UNL     1      -5.877   4.015 -29.763  1.00  0.00     0.050 C 
HETATM    5  C   UNL     1      -4.994   4.302 -32.141  1.00  0.00     0.041 A 
HETATM    6  C   UNL     1      -5.218   4.203 -33.519  1.00  0.00     0.032 A 
HETATM    7  C   UNL     1      -6.405   3.664 -34.019  1.00  0.00     0.032 A 
ENDROOT
BRANCH   1   8
HETATM    8  N   UNL     1      -8.523   2.589 -33.726  1.00  0.00    -0.309 N 
HETATM    9  C   UNL     1      -9.594   3.257 -34.267  1.00  0.00     0.320 C 
HETATM   10  N   UNL     1     -10.548   2.366 -34.721  1.00  0.00    -0.342 N 
HETATM   11  O   UNL     1      -9.790   4.467 -34.273  1.00  0.00    -0.247 OA
HETATM   12  H   UNL     1     -10.144   1.545 -35.160  1.00  0.00     0.164 HD
HETATM   13  H   UNL     1      -8.683   1.618 -33.503  1.00  0.00     0.170 HD
BRANCH  10  14
HETATM   14  C   UNL     1     -11.792   2.844 -35.290  1.00  0.00     0.130 C 
BRANCH  14  15
HETATM   15  C   UNL     1     -13.035   2.492 -34.471  1.00  0.00     0.031 C 
HETATM   16  C   UNL     1     -12.917   2.685 -32.967  1.00  0.00     0.241 C 
HETATM   17  N   UNL     1     -14.119   1.917 -32.411  1.00  0.00    -0.071 N 
HETATM   18  H   UNL     1     -13.761   1.382 -31.608  1.00  0.00     0.279 HD
HETATM   19  C   UNL     1     -14.546   0.935 -33.490  1.00  0.00     0.235 C 
HETATM   20  C   UNL     1     -13.477   1.038 -34.564  1.00  0.00     0.035 C 
BRANCH  17  21
HETATM   21  C   UNL     1     -15.216   2.820 -31.910  1.00  0.00     0.234 C 
BRANCH  21  22
HETATM   22  C   UNL     1     -16.602   2.310 -32.298  1.00  0.00     0.023 C 
HETATM   23  C   UNL     1     -17.731   3.256 -31.916  1.00  0.00     0.007 C 
ENDBRANCH  21  22
ENDBRANCH  17  21
ENDBRANCH  14  15
ENDBRANCH  10  14
ENDBRANCH   1   8
BRANCH   5  24
HETATM   24  N   UNL     1      -3.788   4.807 -31.613  1.00  0.00    -0.321 N 
HETATM   25  C   UNL     1      -2.491   4.426 -31.919  1.00  0.00     0.279 C 
HETATM   26  O   UNL     1      -2.178   3.552 -32.721  1.00  0.00    -0.265 OA
HETATM   27  H   UNL     1      -3.849   5.480 -30.857  1.00  0.00     0.169 HD
BRANCH  25  28
HETATM   28  C   UNL     1      -1.500   5.150 -31.145  1.00  0.00     0.142 A 
HETATM   29  O   UNL     1      -0.191   4.736 -31.167  1.00  0.00    -0.317 OA
HETATM   30  C   UNL     1       0.506   5.577 -30.360  1.00  0.00     0.143 A 
HETATM   31  C   UNL     1      -0.323   6.537 -29.829  1.00  0.00     0.027 A 
HETATM   32  C   UNL     1      -1.616   6.262 -30.332  1.00  0.00     0.045 A 
ENDBRANCH  25  28
ENDBRANCH   5  24
TORSDOF 7
ENDMDL
MODEL 9
REMARK VINA RESULT:      -7.2      2.479     11.380
REMARK  7 active torsions:
REMARK  status: ('A' for Active; 'I' for Inactive)
REMARK    1  A    between atoms: C_2  and  C_3 
REMARK    2  A    between atoms: C_3  and  N_4 
REMARK    3  A    between atoms: C_7  and  C_8 
REMARK    4  A    between atoms: C_8  and  N_9 
REMARK       I    between atoms: N_9  and  C_10 
REMARK       I    between atoms: C_10  and  N_11 
REMARK    5  A    between atoms: N_11  and  C_12 
REMARK    6  A    between atoms: C_16  and  N_17 
REMARK       I    between atoms: N_17  and  C_18 
REMARK    7  A    between atoms: C_18  and  C_19 
ROOT
HETATM    1  C   UNL     1      -3.065   5.433 -31.224  1.00  0.00     0.036 A 
HETATM    2  C   UNL     1      -1.700   5.158 -31.153  1.00  0.00     0.038 A 
HETATM    3  C   UNL     1      -0.883   5.770 -30.179  1.00  0.00    -0.033 A 
HETATM    4  C   UNL     1       0.579   5.411 -30.143  1.00  0.00     0.050 C 
HETATM    5  C   UNL     1      -1.447   6.709 -29.291  1.00  0.00     0.041 A 
HETATM    6  C   UNL     1      -2.825   6.945 -29.347  1.00  0.00     0.032 A 
HETATM    7  C   UNL     1      -3.628   6.300 -30.291  1.00  0.00     0.032 A 
ENDROOT
BRANCH   1   8
HETATM    8  N   UNL     1      -3.924   4.868 -32.184  1.00  0.00    -0.309 N 
HETATM    9  C   UNL     1      -4.931   3.965 -31.943  1.00  0.00     0.320 C 
HETATM   10  N   UNL     1      -5.559   3.607 -33.120  1.00  0.00    -0.342 N 
HETATM   11  O   UNL     1      -5.207   3.427 -30.877  1.00  0.00    -0.247 OA
HETATM   12  H   UNL     1      -5.674   4.386 -33.760  1.00  0.00     0.164 HD
HETATM   13  H   UNL     1      -3.623   4.938 -33.145  1.00  0.00     0.170 HD
BRANCH  10  14
HETATM   14  C   UNL     1      -6.626   2.625 -33.117  1.00  0.00     0.130 C 
BRANCH  14  15
HETATM   15  C   UNL     1      -6.204   1.236 -33.600  1.00  0.00     0.031 C 
HETATM   16  C   UNL     1      -7.198   0.114 -33.345  1.00  0.00     0.241 C 
HETATM   17  N   UNL     1      -6.372  -1.155 -33.572  1.00  0.00    -0.071 N 
HETATM   18  H   UNL     1      -6.614  -1.787 -32.796  1.00  0.00     0.279 HD
HETATM   19  C   UNL     1      -4.912  -0.757 -33.427  1.00  0.00     0.235 C 
HETATM   20  C   UNL     1      -4.940   0.685 -32.952  1.00  0.00     0.035 C 
BRANCH  17  21
HETATM   21  C   UNL     1      -6.711  -1.858 -34.860  1.00  0.00     0.234 C 
BRANCH  21  22
HETATM   22  C   UNL     1      -6.867  -3.366 -34.667  1.00  0.00     0.023 C 
HETATM   23  C   UNL     1      -5.562  -4.137 -34.796  1.00  0.00     0.007 C 
ENDBRANCH  21  22
ENDBRANCH  17  21
ENDBRANCH  14  15
ENDBRANCH  10  14
ENDBRANCH   1   8
BRANCH   5  24
HETATM   24  N   UNL     1      -0.610   7.376 -28.373  1.00  0.00    -0.321 N 
HETATM   25  C   UNL     1      -0.414   7.096 -27.030  1.00  0.00     0.279 C 
HETATM   26  O   UNL     1      -0.964   6.196 -26.404  1.00  0.00    -0.265 OA
HETATM   27  H   UNL     1      -0.139   8.217 -28.689  1.00  0.00     0.169 HD
BRANCH  25  28
HETATM   28  C   UNL     1       0.503   8.026 -26.395  1.00  0.00     0.142 A 
HETATM   29  O   UNL     1       0.003   9.070 -25.657  1.00  0.00    -0.317 OA
HETATM   30  C   UNL     1       1.067   9.774 -25.191  1.00  0.00     0.143 A 
HETATM   31  C   UNL     1       2.246   9.196 -25.600  1.00  0.00     0.027 A 
HETATM   32  C   UNL     1       1.884   8.071 -26.377  1.00  0.00     0.045 A 
ENDBRANCH  25  28
ENDBRANCH   5  24
TORSDOF 7
ENDMDL
MODEL 10
REMARK VINA RESULT:      -7.2      2.052      2.804
REMARK  7 active torsions:
REMARK  status: ('A' for Active; 'I' for Inactive)
REMARK    1  A    between atoms: C_2  and  C_3 
REMARK    2  A    between atoms: C_3  and  N_4 
REMARK    3  A    between atoms: C_7  and  C_8 
REMARK    4  A    between atoms: C_8  and  N_9 
REMARK       I    between atoms: N_9  and  C_10 
REMARK       I    between atoms: C_10  and  N_11 
REMARK    5  A    between atoms: N_11  and  C_12 
REMARK    6  A    between atoms: C_16  and  N_17 
REMARK       I    between atoms: N_17  and  C_18 
REMARK    7  A    between atoms: C_18  and  C_19 
ROOT
HETATM    1  C   UNL     1      -5.131   3.454 -31.844  1.00  0.00     0.036 A 
HETATM    2  C   UNL     1      -4.385   2.405 -31.307  1.00  0.00     0.038 A 
HETATM    3  C   UNL     1      -4.409   1.121 -31.890  1.00  0.00    -0.033 A 
HETATM    4  C   UNL     1      -3.560   0.040 -31.275  1.00  0.00     0.050 C 
HETATM    5  C   UNL     1      -5.237   0.881 -33.007  1.00  0.00     0.041 A 
HETATM    6  C   UNL     1      -5.950   1.951 -33.558  1.00  0.00     0.032 A 
HETATM    7  C   UNL     1      -5.884   3.227 -32.994  1.00  0.00     0.032 A 
ENDROOT
BRANCH   1   8
HETATM    8  N   UNL     1      -5.161   4.749 -31.295  1.00  0.00    -0.309 N 
HETATM    9  C   UNL     1      -4.446   5.835 -31.737  1.00  0.00     0.320 C 
HETATM   10  N   UNL     1      -4.703   6.943 -30.951  1.00  0.00    -0.342 N 
HETATM   11  O   UNL     1      -3.599   5.857 -32.622  1.00  0.00    -0.247 OA
HETATM   12  H   UNL     1      -5.676   7.013 -30.672  1.00  0.00     0.164 HD
HETATM   13  H   UNL     1      -5.541   4.828 -30.363  1.00  0.00     0.170 HD
BRANCH  10  14
HETATM   14  C   UNL     1      -4.021   8.197 -31.200  1.00  0.00     0.130 C 
BRANCH  14  15
HETATM   15  C   UNL     1      -2.684   8.342 -30.471  1.00  0.00     0.031 C 
HETATM   16  C   UNL     1      -2.222   7.127 -29.681  1.00  0.00     0.241 C 
HETATM   17  N   UNL     1      -1.108   7.682 -28.788  1.00  0.00    -0.071 N 
HETATM   18  H   UNL     1      -1.275   7.281 -27.855  1.00  0.00     0.279 HD
HETATM   19  C   UNL     1      -1.320   9.185 -28.710  1.00  0.00     0.235 C 
HETATM   20  C   UNL     1      -2.644   9.436 -29.411  1.00  0.00     0.035 C 
BRANCH  17  21
HETATM   21  C   UNL     1       0.268   7.260 -29.232  1.00  0.00     0.234 C 
BRANCH  21  22
HETATM   22  C   UNL     1       0.228   6.025 -30.129  1.00  0.00     0.023 C 
HETATM   23  C   UNL     1       1.088   4.875 -29.625  1.00  0.00     0.007 C 
ENDBRANCH  21  22
ENDBRANCH  17  21
ENDBRANCH  14  15
ENDBRANCH  10  14
ENDBRANCH   1   8
BRANCH   5  24
HETATM   24  N   UNL     1      -5.318  -0.424 -33.535  1.00  0.00    -0.321 N 
HETATM   25  C   UNL     1      -6.451  -1.188 -33.762  1.00  0.00     0.279 C 
HETATM   26  O   UNL     1      -7.603  -0.840 -33.524  1.00  0.00    -0.265 OA
HETATM   27  H   UNL     1      -4.450  -0.918 -33.707  1.00  0.00     0.169 HD
BRANCH  25  28
HETATM   28  C   UNL     1      -6.139  -2.505 -34.287  1.00  0.00     0.142 A 
HETATM   29  O   UNL     1      -7.159  -3.328 -34.697  1.00  0.00    -0.317 OA
HETATM   30  C   UNL     1      -6.589  -4.483 -35.130  1.00  0.00     0.143 A 
HETATM   31  C   UNL     1      -5.220  -4.417 -35.023  1.00  0.00     0.027 A 
HETATM   32  C   UNL     1      -4.929  -3.144 -34.478  1.00  0.00     0.045 A 
ENDBRANCH  25  28
ENDBRANCH   5  24
TORSDOF 7
ENDMDL
