MODEL 1
REMARK VINA RESULT:      -9.6      0.000      0.000
REMARK  4 active torsions:
REMARK  status: ('A' for Active; 'I' for Inactive)
REMARK    1  A    between atoms: N_2  and  C_4 
REMARK    2  A    between atoms: C_7  and  C_21 
REMARK    3  A    between atoms: C_12  and  C_15 
REMARK    4  A    between atoms: C_27  and  C_28 
ROOT
HETATM    1  C   UNL     1      -6.895   1.275 -32.482  1.00  0.00     0.116 A 
HETATM    2  N   UNL     1      -6.466   2.399 -31.886  1.00  0.00    -0.330 N 
HETATM    3  H   UNL     1      -7.165   3.095 -31.652  1.00  0.00     0.168 HD
HETATM    4  C   UNL     1      -5.178   2.569 -31.564  1.00  0.00     0.112 A 
HETATM    5  N   UNL     1      -4.240   1.623 -31.762  1.00  0.00    -0.234 NA
HETATM    6  C   UNL     1      -4.625   0.477 -32.338  1.00  0.00     0.072 A 
HETATM    7  C   UNL     1      -3.673  -0.508 -32.551  1.00  0.00     0.033 A 
HETATM    8  C   UNL     1      -3.992  -1.715 -33.184  1.00  0.00     0.014 A 
HETATM    9  C   UNL     1      -5.287  -1.956 -33.640  1.00  0.00    -0.022 A 
HETATM   10  C   UNL     1      -6.255  -0.967 -33.417  1.00  0.00     0.030 A 
HETATM   11  C   UNL     1      -5.948   0.247 -32.747  1.00  0.00     0.037 A 
ENDROOT
BRANCH   4  12
HETATM   12  C   UNL     1      -4.717   3.854 -30.922  1.00  0.00     0.091 C 
HETATM   13  C   UNL     1      -5.594   4.261 -29.734  1.00  0.00     0.245 C 
HETATM   14  N   UNL     1      -5.360   5.733 -29.586  1.00  0.00    -0.074 N 
HETATM   15  H   UNL     1      -6.198   6.208 -29.210  1.00  0.00     0.277 HD
HETATM   16  H   UNL     1      -4.613   5.939 -28.900  1.00  0.00     0.277 HD
HETATM   17  C   UNL     1      -4.996   6.291 -30.934  1.00  0.00     0.242 C 
HETATM   18  C   UNL     1      -4.858   5.067 -31.860  1.00  0.00     0.057 C 
BRANCH  18  19
HETATM   19  C   UNL     1      -3.714   5.163 -32.841  1.00  0.00    -0.052 A 
HETATM   20  C   UNL     1      -3.925   5.258 -34.227  1.00  0.00     0.007 A 
HETATM   21  C   UNL     1      -2.844   5.326 -35.107  1.00  0.00     0.001 A 
HETATM   22  C   UNL     1      -1.541   5.307 -34.617  1.00  0.00     0.000 A 
HETATM   23  C   UNL     1      -1.317   5.224 -33.246  1.00  0.00     0.001 A 
HETATM   24  C   UNL     1      -2.394   5.154 -32.362  1.00  0.00     0.007 A 
ENDBRANCH  18  19
ENDBRANCH   4  12
BRANCH   1  25
HETATM   25  N   UNL     1      -8.235   1.163 -32.824  1.00  0.00    -0.375 N 
HETATM   26  C   UNL     1      -8.813   2.077 -33.809  1.00  0.00     0.150 C 
HETATM   27  C   UNL     1      -9.135   0.788 -31.724  1.00  0.00     0.150 C 
ENDBRANCH   1  25
BRANCH   9  28
HETATM   28  C   UNL     1      -5.638  -3.194 -34.318  1.00  0.00     0.010 A 
HETATM   29  C   UNL     1      -4.909  -4.396 -34.490  1.00  0.00     0.152 A 
HETATM   30  N   UNL     1      -5.584  -5.321 -35.170  1.00  0.00    -0.187 NA
HETATM   31  N   UNL     1      -6.754  -4.725 -35.447  1.00  0.00    -0.289 N 
HETATM   32  H   UNL     1      -7.450  -5.247 -35.972  1.00  0.00     0.188 HD
HETATM   33  C   UNL     1      -6.836  -3.452 -34.953  1.00  0.00     0.123 A 
ENDBRANCH   9  28
TORSDOF 4
ENDMDL
MODEL 2
REMARK VINA RESULT:      -9.2      2.611      7.113
REMARK  4 active torsions:
REMARK  status: ('A' for Active; 'I' for Inactive)
REMARK    1  A    between atoms: N_2  and  C_4 
REMARK    2  A    between atoms: C_7  and  C_21 
REMARK    3  A    between atoms: C_12  and  C_15 
REMARK    4  A    between atoms: C_27  and  C_28 
ROOT
HETATM    1  C   UNL     1      -6.750   2.581 -32.960  1.00  0.00     0.116 A 
HETATM    2  N   UNL     1      -5.786   1.754 -32.521  1.00  0.00    -0.330 N 
HETATM    3  H   UNL     1      -4.872   2.158 -32.350  1.00  0.00     0.168 HD
HETATM    4  C   UNL     1      -6.038   0.465 -32.267  1.00  0.00     0.112 A 
HETATM    5  N   UNL     1      -7.264  -0.081 -32.378  1.00  0.00    -0.234 NA
HETATM    6  C   UNL     1      -8.260   0.710 -32.796  1.00  0.00     0.072 A 
HETATM    7  C   UNL     1      -9.529   0.166 -32.919  1.00  0.00     0.033 A 
HETATM    8  C   UNL     1     -10.611   0.919 -33.389  1.00  0.00     0.014 A 
HETATM    9  C   UNL     1     -10.438   2.250 -33.767  1.00  0.00    -0.022 A 
HETATM   10  C   UNL     1      -9.159   2.807 -33.634  1.00  0.00     0.030 A 
HETATM   11  C   UNL     1      -8.062   2.060 -33.129  1.00  0.00     0.037 A 
ENDROOT
BRANCH   4  12
HETATM   12  C   UNL     1      -4.931  -0.450 -31.802  1.00  0.00     0.091 C 
HETATM   13  C   UNL     1      -3.906   0.273 -30.924  1.00  0.00     0.245 C 
HETATM   14  N   UNL     1      -2.673  -0.574 -31.017  1.00  0.00    -0.074 N 
HETATM   15  H   UNL     1      -1.818   0.001 -30.922  1.00  0.00     0.277 HD
HETATM   16  H   UNL     1      -2.616  -1.258 -30.244  1.00  0.00     0.277 HD
HETATM   17  C   UNL     1      -2.689  -1.285 -32.342  1.00  0.00     0.242 C 
HETATM   18  C   UNL     1      -4.060  -0.960 -32.965  1.00  0.00     0.057 C 
BRANCH  18  19
HETATM   19  C   UNL     1      -4.699  -2.122 -33.687  1.00  0.00    -0.052 A 
HETATM   20  C   UNL     1      -5.888  -1.982 -34.421  1.00  0.00     0.007 A 
HETATM   21  C   UNL     1      -6.462  -3.082 -35.060  1.00  0.00     0.001 A 
HETATM   22  C   UNL     1      -5.854  -4.332 -34.981  1.00  0.00     0.000 A 
HETATM   23  C   UNL     1      -4.669  -4.484 -34.267  1.00  0.00     0.001 A 
HETATM   24  C   UNL     1      -4.093  -3.387 -33.625  1.00  0.00     0.007 A 
ENDBRANCH  18  19
ENDBRANCH   4  12
BRANCH   1  25
HETATM   25  N   UNL     1      -6.427   3.901 -33.240  1.00  0.00    -0.375 N 
HETATM   26  C   UNL     1      -5.492   4.208 -34.322  1.00  0.00     0.150 C 
HETATM   27  C   UNL     1      -6.335   4.787 -32.070  1.00  0.00     0.150 C 
ENDBRANCH   1  25
BRANCH   9  28
HETATM   28  C   UNL     1     -11.542   3.047 -34.276  1.00  0.00     0.010 A 
HETATM   29  C   UNL     1     -11.616   3.932 -35.379  1.00  0.00     0.152 A 
HETATM   30  N   UNL     1     -12.824   4.473 -35.532  1.00  0.00    -0.187 NA
HETATM   31  N   UNL     1     -13.540   3.947 -34.528  1.00  0.00    -0.289 N 
HETATM   32  H   UNL     1     -14.515   4.217 -34.435  1.00  0.00     0.188 HD
HETATM   33  C   UNL     1     -12.819   3.083 -33.751  1.00  0.00     0.123 A 
ENDBRANCH   9  28
TORSDOF 4
ENDMDL
MODEL 3
REMARK VINA RESULT:      -8.9      2.471      5.438
REMARK  4 active torsions:
REMARK  status: ('A' for Active; 'I' for Inactive)
REMARK    1  A    between atoms: N_2  and  C_4 
REMARK    2  A    between atoms: C_7  and  C_21 
REMARK    3  A    between atoms: C_12  and  C_15 
REMARK    4  A    between atoms: C_27  and  C_28 
ROOT
HETATM    1  C   UNL     1      -5.640   1.636 -32.773  1.00  0.00     0.116 A 
HETATM    2  N   UNL     1      -6.386   2.736 -32.970  1.00  0.00    -0.330 N 
HETATM    3  H   UNL     1      -6.122   3.572 -32.462  1.00  0.00     0.168 HD
HETATM    4  C   UNL     1      -7.401   2.741 -33.843  1.00  0.00     0.112 A 
HETATM    5  N   UNL     1      -7.712   1.682 -34.613  1.00  0.00    -0.234 NA
HETATM    6  C   UNL     1      -6.984   0.568 -34.464  1.00  0.00     0.072 A 
HETATM    7  C   UNL     1      -7.291  -0.533 -35.248  1.00  0.00     0.033 A 
HETATM    8  C   UNL     1      -6.601  -1.744 -35.119  1.00  0.00     0.014 A 
HETATM    9  C   UNL     1      -5.585  -1.884 -34.176  1.00  0.00    -0.022 A 
HETATM   10  C   UNL     1      -5.264  -0.770 -33.388  1.00  0.00     0.030 A 
HETATM   11  C   UNL     1      -5.937   0.472 -33.534  1.00  0.00     0.037 A 
ENDROOT
BRANCH   4  12
HETATM   12  C   UNL     1      -8.242   3.980 -34.024  1.00  0.00     0.091 C 
HETATM   13  C   UNL     1      -7.551   5.239 -33.493  1.00  0.00     0.245 C 
HETATM   14  N   UNL     1      -8.670   6.205 -33.252  1.00  0.00    -0.074 N 
HETATM   15  H   UNL     1      -8.448   6.846 -32.471  1.00  0.00     0.277 HD
HETATM   16  H   UNL     1      -8.826   6.826 -34.064  1.00  0.00     0.277 HD
HETATM   17  C   UNL     1      -9.916   5.417 -32.952  1.00  0.00     0.242 C 
HETATM   18  C   UNL     1      -9.535   3.943 -33.189  1.00  0.00     0.057 C 
BRANCH  18  19
HETATM   19  C   UNL     1     -10.619   3.127 -33.853  1.00  0.00    -0.052 A 
HETATM   20  C   UNL     1     -11.262   3.555 -35.026  1.00  0.00     0.007 A 
HETATM   21  C   UNL     1     -12.273   2.785 -35.603  1.00  0.00     0.001 A 
HETATM   22  C   UNL     1     -12.651   1.578 -35.021  1.00  0.00     0.000 A 
HETATM   23  C   UNL     1     -12.015   1.136 -33.864  1.00  0.00     0.001 A 
HETATM   24  C   UNL     1     -11.005   1.904 -33.283  1.00  0.00     0.007 A 
ENDBRANCH  18  19
ENDBRANCH   4  12
BRANCH   1  25
HETATM   25  N   UNL     1      -4.621   1.675 -31.831  1.00  0.00    -0.375 N 
HETATM   26  C   UNL     1      -4.947   1.766 -30.409  1.00  0.00     0.150 C 
HETATM   27  C   UNL     1      -3.417   2.413 -32.240  1.00  0.00     0.150 C 
ENDBRANCH   1  25
BRANCH   9  28
HETATM   28  C   UNL     1      -4.867  -3.138 -34.010  1.00  0.00     0.010 A 
HETATM   29  C   UNL     1      -3.692  -3.444 -33.281  1.00  0.00     0.152 A 
HETATM   30  N   UNL     1      -3.348  -4.729 -33.364  1.00  0.00    -0.187 NA
HETATM   31  N   UNL     1      -4.294  -5.263 -34.150  1.00  0.00    -0.289 N 
HETATM   32  H   UNL     1      -4.242  -6.255 -34.364  1.00  0.00     0.188 HD
HETATM   33  C   UNL     1      -5.229  -4.352 -34.559  1.00  0.00     0.123 A 
ENDBRANCH   9  28
TORSDOF 4
ENDMDL
MODEL 4
REMARK VINA RESULT:      -8.8      0.503      1.381
REMARK  4 active torsions:
REMARK  status: ('A' for Active; 'I' for Inactive)
REMARK    1  A    between atoms: N_2  and  C_4 
REMARK    2  A    between atoms: C_7  and  C_21 
REMARK    3  A    between atoms: C_12  and  C_15 
REMARK    4  A    between atoms: C_27  and  C_28 
ROOT
HETATM    1  C   UNL     1      -6.656   1.220 -32.636  1.00  0.00     0.116 A 
HETATM    2  N   UNL     1      -6.321   2.379 -32.045  1.00  0.00    -0.330 N 
HETATM    3  H   UNL     1      -7.057   3.065 -31.921  1.00  0.00     0.168 HD
HETATM    4  C   UNL     1      -5.082   2.594 -31.588  1.00  0.00     0.112 A 
HETATM    5  N   UNL     1      -4.108   1.665 -31.638  1.00  0.00    -0.234 NA
HETATM    6  C   UNL     1      -4.401   0.488 -32.203  1.00  0.00     0.072 A 
HETATM    7  C   UNL     1      -3.411  -0.481 -32.265  1.00  0.00     0.033 A 
HETATM    8  C   UNL     1      -3.630  -1.720 -32.877  1.00  0.00     0.014 A 
HETATM    9  C   UNL     1      -4.860  -2.013 -33.464  1.00  0.00    -0.022 A 
HETATM   10  C   UNL     1      -5.867  -1.041 -33.395  1.00  0.00     0.030 A 
HETATM   11  C   UNL     1      -5.664   0.207 -32.748  1.00  0.00     0.037 A 
ENDROOT
BRANCH   4  12
HETATM   12  C   UNL     1      -4.724   3.916 -30.954  1.00  0.00     0.091 C 
HETATM   13  C   UNL     1      -5.730   4.341 -29.882  1.00  0.00     0.245 C 
HETATM   14  N   UNL     1      -5.550   5.824 -29.769  1.00  0.00    -0.074 N 
HETATM   15  H   UNL     1      -6.435   6.288 -29.503  1.00  0.00     0.277 HD
HETATM   16  H   UNL     1      -4.885   6.077 -29.020  1.00  0.00     0.277 HD
HETATM   17  C   UNL     1      -5.061   6.341 -31.095  1.00  0.00     0.242 C 
HETATM   18  C   UNL     1      -4.796   5.087 -31.950  1.00  0.00     0.057 C 
BRANCH  18  19
HETATM   19  C   UNL     1      -3.558   5.180 -32.811  1.00  0.00    -0.052 A 
HETATM   20  C   UNL     1      -2.270   5.274 -32.257  1.00  0.00     0.007 A 
HETATM   21  C   UNL     1      -1.149   5.378 -33.082  1.00  0.00     0.001 A 
HETATM   22  C   UNL     1      -1.297   5.384 -34.466  1.00  0.00     0.000 A 
HETATM   23  C   UNL     1      -2.566   5.282 -35.029  1.00  0.00     0.001 A 
HETATM   24  C   UNL     1      -3.690   5.179 -34.208  1.00  0.00     0.007 A 
ENDBRANCH  18  19
ENDBRANCH   4  12
BRANCH   1  25
HETATM   25  N   UNL     1      -7.946   1.060 -33.122  1.00  0.00    -0.375 N 
HETATM   26  C   UNL     1      -8.909   0.250 -32.378  1.00  0.00     0.150 C 
HETATM   27  C   UNL     1      -8.059   0.970 -34.585  1.00  0.00     0.150 C 
ENDBRANCH   1  25
BRANCH   9  28
HETATM   28  C   UNL     1      -5.106  -3.286 -34.124  1.00  0.00     0.010 A 
HETATM   29  C   UNL     1      -6.204  -3.733 -34.897  1.00  0.00     0.152 A 
HETATM   30  N   UNL     1      -6.052  -4.978 -35.347  1.00  0.00    -0.187 NA
HETATM   31  N   UNL     1      -4.856  -5.348 -34.866  1.00  0.00    -0.289 N 
HETATM   32  H   UNL     1      -4.515  -6.281 -35.081  1.00  0.00     0.188 HD
HETATM   33  C   UNL     1      -4.247  -4.368 -34.131  1.00  0.00     0.123 A 
ENDBRANCH   9  28
TORSDOF 4
ENDMDL
MODEL 5
REMARK VINA RESULT:      -8.5      1.955      3.173
REMARK  4 active torsions:
REMARK  status: ('A' for Active; 'I' for Inactive)
REMARK    1  A    between atoms: N_2  and  C_4 
REMARK    2  A    between atoms: C_7  and  C_21 
REMARK    3  A    between atoms: C_12  and  C_15 
REMARK    4  A    between atoms: C_27  and  C_28 
ROOT
HETATM    1  C   UNL     1      -5.980   0.985 -31.695  1.00  0.00     0.116 A 
HETATM    2  N   UNL     1      -6.445   2.233 -31.522  1.00  0.00    -0.330 N 
HETATM    3  H   UNL     1      -6.110   2.745 -30.714  1.00  0.00     0.168 HD
HETATM    4  C   UNL     1      -7.273   2.797 -32.410  1.00  0.00     0.112 A 
HETATM    5  N   UNL     1      -7.653   2.188 -33.549  1.00  0.00    -0.234 NA
HETATM    6  C   UNL     1      -7.200   0.948 -33.773  1.00  0.00     0.072 A 
HETATM    7  C   UNL     1      -7.583   0.305 -34.940  1.00  0.00     0.033 A 
HETATM    8  C   UNL     1      -7.182  -1.006 -35.223  1.00  0.00     0.014 A 
HETATM    9  C   UNL     1      -6.391  -1.717 -34.321  1.00  0.00    -0.022 A 
HETATM   10  C   UNL     1      -5.993  -1.066 -33.145  1.00  0.00     0.030 A 
HETATM   11  C   UNL     1      -6.368   0.275 -32.864  1.00  0.00     0.037 A 
ENDROOT
BRANCH   4  12
HETATM   12  C   UNL     1      -7.805   4.190 -32.177  1.00  0.00     0.091 C 
HETATM   13  C   UNL     1      -9.333   4.248 -32.236  1.00  0.00     0.245 C 
HETATM   14  N   UNL     1      -9.640   5.685 -32.529  1.00  0.00    -0.074 N 
HETATM   15  H   UNL     1     -10.514   5.776 -33.074  1.00  0.00     0.277 HD
HETATM   16  H   UNL     1      -9.810   6.228 -31.667  1.00  0.00     0.277 HD
HETATM   17  C   UNL     1      -8.480   6.268 -33.290  1.00  0.00     0.242 C 
HETATM   18  C   UNL     1      -7.399   5.170 -33.293  1.00  0.00     0.057 C 
BRANCH  18  19
HETATM   19  C   UNL     1      -5.993   5.691 -33.110  1.00  0.00    -0.052 A 
HETATM   20  C   UNL     1      -4.940   5.311 -33.958  1.00  0.00     0.007 A 
HETATM   21  C   UNL     1      -3.649   5.796 -33.748  1.00  0.00     0.001 A 
HETATM   22  C   UNL     1      -3.393   6.671 -32.695  1.00  0.00     0.000 A 
HETATM   23  C   UNL     1      -4.429   7.065 -31.853  1.00  0.00     0.001 A 
HETATM   24  C   UNL     1      -5.721   6.580 -32.058  1.00  0.00     0.007 A 
ENDBRANCH  18  19
ENDBRANCH   4  12
BRANCH   1  25
HETATM   25  N   UNL     1      -5.150   0.436 -30.727  1.00  0.00    -0.375 N 
HETATM   26  C   UNL     1      -5.560   0.451 -29.324  1.00  0.00     0.150 C 
HETATM   27  C   UNL     1      -3.710   0.625 -30.954  1.00  0.00     0.150 C 
ENDBRANCH   1  25
BRANCH   9  28
HETATM   28  C   UNL     1      -5.979  -3.086 -34.584  1.00  0.00     0.010 A 
HETATM   29  C   UNL     1      -6.662  -4.156 -35.211  1.00  0.00     0.152 A 
HETATM   30  N   UNL     1      -5.935  -5.271 -35.276  1.00  0.00    -0.187 NA
HETATM   31  N   UNL     1      -4.778  -4.933 -34.688  1.00  0.00    -0.289 N 
HETATM   32  H   UNL     1      -4.048  -5.637 -34.615  1.00  0.00     0.188 HD
HETATM   33  C   UNL     1      -4.753  -3.634 -34.261  1.00  0.00     0.123 A 
ENDBRANCH   9  28
TORSDOF 4
ENDMDL
MODEL 6
REMARK VINA RESULT:      -8.4      2.385      4.841
REMARK  4 active torsions:
REMARK  status: ('A' for Active; 'I' for Inactive)
REMARK    1  A    between atoms: N_2  and  C_4 
REMARK    2  A    between atoms: C_7  and  C_21 
REMARK    3  A    between atoms: C_12  and  C_15 
REMARK    4  A    between atoms: C_27  and  C_28 
ROOT
HETATM    1  C   UNL     1      -5.537   1.566 -32.266  1.00  0.00     0.116 A 
HETATM    2  N   UNL     1      -5.926   2.852 -32.266  1.00  0.00    -0.330 N 
HETATM    3  H   UNL     1      -5.534   3.454 -31.551  1.00  0.00     0.168 HD
HETATM    4  C   UNL     1      -6.751   3.329 -33.205  1.00  0.00     0.112 A 
HETATM    5  N   UNL     1      -7.205   2.585 -34.232  1.00  0.00    -0.234 NA
HETATM    6  C   UNL     1      -6.829   1.301 -34.283  1.00  0.00     0.072 A 
HETATM    7  C   UNL     1      -7.288   0.519 -35.332  1.00  0.00     0.033 A 
HETATM    8  C   UNL     1      -6.971  -0.841 -35.430  1.00  0.00     0.014 A 
HETATM    9  C   UNL     1      -6.190  -1.459 -34.455  1.00  0.00    -0.022 A 
HETATM   10  C   UNL     1      -5.716  -0.670 -33.398  1.00  0.00     0.030 A 
HETATM   11  C   UNL     1      -6.005   0.718 -33.307  1.00  0.00     0.037 A 
ENDROOT
BRANCH   4  12
HETATM   12  C   UNL     1      -7.196   4.771 -33.166  1.00  0.00     0.091 C 
HETATM   13  C   UNL     1      -6.017   5.747 -33.202  1.00  0.00     0.245 C 
HETATM   14  N   UNL     1      -6.567   7.015 -32.624  1.00  0.00    -0.074 N 
HETATM   15  H   UNL     1      -5.831   7.552 -32.135  1.00  0.00     0.277 HD
HETATM   16  H   UNL     1      -6.914   7.655 -33.358  1.00  0.00     0.277 HD
HETATM   17  C   UNL     1      -7.679   6.658 -31.677  1.00  0.00     0.242 C 
HETATM   18  C   UNL     1      -7.884   5.140 -31.839  1.00  0.00     0.057 C 
BRANCH  18  19
HETATM   19  C   UNL     1      -9.330   4.707 -31.807  1.00  0.00    -0.052 A 
HETATM   20  C   UNL     1      -9.998   4.424 -30.604  1.00  0.00     0.007 A 
HETATM   21  C   UNL     1     -11.330   4.007 -30.612  1.00  0.00     0.001 A 
HETATM   22  C   UNL     1     -12.013   3.874 -31.817  1.00  0.00     0.000 A 
HETATM   23  C   UNL     1     -11.368   4.161 -33.017  1.00  0.00     0.001 A 
HETATM   24  C   UNL     1     -10.036   4.576 -33.013  1.00  0.00     0.007 A 
ENDBRANCH  18  19
ENDBRANCH   4  12
BRANCH   1  25
HETATM   25  N   UNL     1      -4.707   1.114 -31.250  1.00  0.00    -0.375 N 
HETATM   26  C   UNL     1      -5.270   0.787 -29.941  1.00  0.00     0.150 C 
HETATM   27  C   UNL     1      -3.369   1.724 -31.215  1.00  0.00     0.150 C 
ENDBRANCH   1  25
BRANCH   9  28
HETATM   28  C   UNL     1      -5.864  -2.874 -34.524  1.00  0.00     0.010 A 
HETATM   29  C   UNL     1      -6.640  -3.986 -34.933  1.00  0.00     0.152 A 
HETATM   30  N   UNL     1      -5.975  -5.138 -34.866  1.00  0.00    -0.187 NA
HETATM   31  N   UNL     1      -4.765  -4.783 -34.410  1.00  0.00    -0.289 N 
HETATM   32  H   UNL     1      -4.067  -5.509 -34.272  1.00  0.00     0.188 HD
HETATM   33  C   UNL     1      -4.647  -3.437 -34.194  1.00  0.00     0.123 A 
ENDBRANCH   9  28
TORSDOF 4
ENDMDL
MODEL 7
REMARK VINA RESULT:      -8.3      2.643      7.631
REMARK  4 active torsions:
REMARK  status: ('A' for Active; 'I' for Inactive)
REMARK    1  A    between atoms: N_2  and  C_4 
REMARK    2  A    between atoms: C_7  and  C_21 
REMARK    3  A    between atoms: C_12  and  C_15 
REMARK    4  A    between atoms: C_27  and  C_28 
ROOT
HETATM    1  C   UNL     1      -6.441   4.659 -30.998  1.00  0.00     0.116 A 
HETATM    2  N   UNL     1      -7.393   3.858 -31.505  1.00  0.00    -0.330 N 
HETATM    3  H   UNL     1      -8.348   4.031 -31.212  1.00  0.00     0.168 HD
HETATM    4  C   UNL     1      -7.099   2.911 -32.403  1.00  0.00     0.112 A 
HETATM    5  N   UNL     1      -5.860   2.725 -32.897  1.00  0.00    -0.234 NA
HETATM    6  C   UNL     1      -4.882   3.511 -32.433  1.00  0.00     0.072 A 
HETATM    7  C   UNL     1      -3.599   3.333 -32.928  1.00  0.00     0.033 A 
HETATM    8  C   UNL     1      -2.518   4.090 -32.462  1.00  0.00     0.014 A 
HETATM    9  C   UNL     1      -2.699   5.044 -31.462  1.00  0.00    -0.022 A 
HETATM   10  C   UNL     1      -3.996   5.235 -30.965  1.00  0.00     0.030 A 
HETATM   11  C   UNL     1      -5.104   4.494 -31.455  1.00  0.00     0.037 A 
ENDROOT
BRANCH   4  12
HETATM   12  C   UNL     1      -8.183   2.005 -32.936  1.00  0.00     0.091 C 
HETATM   13  C   UNL     1      -9.587   2.515 -32.602  1.00  0.00     0.245 C 
HETATM   14  N   UNL     1     -10.457   1.300 -32.700  1.00  0.00    -0.074 N 
HETATM   15  H   UNL     1     -11.259   1.362 -32.049  1.00  0.00     0.277 HD
HETATM   16  H   UNL     1     -10.887   1.206 -33.635  1.00  0.00     0.277 HD
HETATM   17  C   UNL     1      -9.616   0.092 -32.390  1.00  0.00     0.242 C 
HETATM   18  C   UNL     1      -8.173   0.618 -32.268  1.00  0.00     0.057 C 
BRANCH  18  19
HETATM   19  C   UNL     1      -7.133  -0.297 -32.869  1.00  0.00    -0.052 A 
HETATM   20  C   UNL     1      -5.940  -0.612 -32.198  1.00  0.00     0.007 A 
HETATM   21  C   UNL     1      -4.990  -1.446 -32.791  1.00  0.00     0.001 A 
HETATM   22  C   UNL     1      -5.221  -1.979 -34.056  1.00  0.00     0.000 A 
HETATM   23  C   UNL     1      -6.403  -1.684 -34.729  1.00  0.00     0.001 A 
HETATM   24  C   UNL     1      -7.355  -0.849 -34.140  1.00  0.00     0.007 A 
ENDBRANCH  18  19
ENDBRANCH   4  12
BRANCH   1  25
HETATM   25  N   UNL     1      -6.794   5.604 -30.044  1.00  0.00    -0.375 N 
HETATM   26  C   UNL     1      -7.100   5.181 -28.679  1.00  0.00     0.150 C 
HETATM   27  C   UNL     1      -7.604   6.725 -30.542  1.00  0.00     0.150 C 
ENDBRANCH   1  25
BRANCH   9  28
HETATM   28  C   UNL     1      -1.588   5.829 -30.947  1.00  0.00     0.010 A 
HETATM   29  C   UNL     1      -0.225   5.870 -31.330  1.00  0.00     0.152 A 
HETATM   30  N   UNL     1       0.490   6.739 -30.617  1.00  0.00    -0.187 NA
HETATM   31  N   UNL     1      -0.402   7.264 -29.765  1.00  0.00    -0.289 N 
HETATM   32  H   UNL     1      -0.084   7.967 -29.104  1.00  0.00     0.188 HD
HETATM   33  C   UNL     1      -1.662   6.756 -29.926  1.00  0.00     0.123 A 
ENDBRANCH   9  28
TORSDOF 4
ENDMDL
MODEL 8
REMARK VINA RESULT:      -8.2      1.717      3.219
REMARK  4 active torsions:
REMARK  status: ('A' for Active; 'I' for Inactive)
REMARK    1  A    between atoms: N_2  and  C_4 
REMARK    2  A    between atoms: C_7  and  C_21 
REMARK    3  A    between atoms: C_12  and  C_15 
REMARK    4  A    between atoms: C_27  and  C_28 
ROOT
HETATM    1  C   UNL     1      -7.094   1.445 -32.975  1.00  0.00     0.116 A 
HETATM    2  N   UNL     1      -6.719   2.654 -32.525  1.00  0.00    -0.330 N 
HETATM    3  H   UNL     1      -7.452   3.331 -32.349  1.00  0.00     0.168 HD
HETATM    4  C   UNL     1      -5.435   2.933 -32.268  1.00  0.00     0.112 A 
HETATM    5  N   UNL     1      -4.448   2.025 -32.386  1.00  0.00    -0.234 NA
HETATM    6  C   UNL     1      -4.778   0.800 -32.815  1.00  0.00     0.072 A 
HETATM    7  C   UNL     1      -3.774  -0.147 -32.945  1.00  0.00     0.033 A 
HETATM    8  C   UNL     1      -4.035  -1.435 -33.426  1.00  0.00     0.014 A 
HETATM    9  C   UNL     1      -5.325  -1.801 -33.808  1.00  0.00    -0.022 A 
HETATM   10  C   UNL     1      -6.345  -0.850 -33.668  1.00  0.00     0.030 A 
HETATM   11  C   UNL     1      -6.095   0.449 -33.151  1.00  0.00     0.037 A 
ENDROOT
BRANCH   4  12
HETATM   12  C   UNL     1      -5.036   4.308 -31.791  1.00  0.00     0.091 C 
HETATM   13  C   UNL     1      -3.559   4.383 -31.395  1.00  0.00     0.245 C 
HETATM   14  N   UNL     1      -3.479   5.567 -30.481  1.00  0.00    -0.074 N 
HETATM   15  H   UNL     1      -2.731   5.445 -29.777  1.00  0.00     0.277 HD
HETATM   16  H   UNL     1      -3.223   6.431 -30.988  1.00  0.00     0.277 HD
HETATM   17  C   UNL     1      -4.815   5.735 -29.809  1.00  0.00     0.242 C 
HETATM   18  C   UNL     1      -5.744   4.708 -30.484  1.00  0.00     0.057 C 
BRANCH  18  19
HETATM   19  C   UNL     1      -7.146   5.214 -30.727  1.00  0.00    -0.052 A 
HETATM   20  C   UNL     1      -7.435   6.162 -31.723  1.00  0.00     0.007 A 
HETATM   21  C   UNL     1      -8.739   6.623 -31.908  1.00  0.00     0.001 A 
HETATM   22  C   UNL     1      -9.771   6.140 -31.107  1.00  0.00     0.000 A 
HETATM   23  C   UNL     1      -9.502   5.193 -30.124  1.00  0.00     0.001 A 
HETATM   24  C   UNL     1      -8.199   4.731 -29.934  1.00  0.00     0.007 A 
ENDBRANCH  18  19
ENDBRANCH   4  12
BRANCH   1  25
HETATM   25  N   UNL     1      -8.434   1.219 -33.258  1.00  0.00    -0.375 N 
HETATM   26  C   UNL     1      -9.118   2.046 -34.252  1.00  0.00     0.150 C 
HETATM   27  C   UNL     1      -9.260   0.820 -32.109  1.00  0.00     0.150 C 
ENDBRANCH   1  25
BRANCH   9  28
HETATM   28  C   UNL     1      -5.618  -3.127 -34.329  1.00  0.00     0.010 A 
HETATM   29  C   UNL     1      -4.809  -4.286 -34.424  1.00  0.00     0.152 A 
HETATM   30  N   UNL     1      -5.450  -5.325 -34.957  1.00  0.00    -0.187 NA
HETATM   31  N   UNL     1      -6.676  -4.848 -35.215  1.00  0.00    -0.289 N 
HETATM   32  H   UNL     1      -7.360  -5.471 -35.635  1.00  0.00     0.188 HD
HETATM   33  C   UNL     1      -6.828  -3.538 -34.852  1.00  0.00     0.123 A 
ENDBRANCH   9  28
TORSDOF 4
ENDMDL
MODEL 9
REMARK VINA RESULT:      -8.0      2.555      4.149
REMARK  4 active torsions:
REMARK  status: ('A' for Active; 'I' for Inactive)
REMARK    1  A    between atoms: N_2  and  C_4 
REMARK    2  A    between atoms: C_7  and  C_21 
REMARK    3  A    between atoms: C_12  and  C_15 
REMARK    4  A    between atoms: C_27  and  C_28 
ROOT
HETATM    1  C   UNL     1      -6.160   1.368 -31.922  1.00  0.00     0.116 A 
HETATM    2  N   UNL     1      -6.729   2.582 -31.840  1.00  0.00    -0.330 N 
HETATM    3  H   UNL     1      -6.424   3.186 -31.085  1.00  0.00     0.168 HD
HETATM    4  C   UNL     1      -7.618   2.997 -32.750  1.00  0.00     0.112 A 
HETATM    5  N   UNL     1      -7.965   2.265 -33.826  1.00  0.00    -0.234 NA
HETATM    6  C   UNL     1      -7.410   1.054 -33.959  1.00  0.00     0.072 A 
HETATM    7  C   UNL     1      -7.756   0.285 -35.059  1.00  0.00     0.033 A 
HETATM    8  C   UNL     1      -7.249  -1.006 -35.244  1.00  0.00     0.014 A 
HETATM    9  C   UNL     1      -6.383  -1.569 -34.308  1.00  0.00    -0.022 A 
HETATM   10  C   UNL     1      -6.022  -0.791 -33.199  1.00  0.00     0.030 A 
HETATM   11  C   UNL     1      -6.507   0.532 -33.019  1.00  0.00     0.037 A 
ENDROOT
BRANCH   4  12
HETATM   12  C   UNL     1      -8.264   4.355 -32.618  1.00  0.00     0.091 C 
HETATM   13  C   UNL     1      -8.855   4.851 -33.941  1.00  0.00     0.245 C 
HETATM   14  N   UNL     1      -8.942   6.337 -33.775  1.00  0.00    -0.074 N 
HETATM   15  H   UNL     1      -8.831   6.821 -34.682  1.00  0.00     0.277 HD
HETATM   16  H   UNL     1      -9.871   6.634 -33.431  1.00  0.00     0.277 HD
HETATM   17  C   UNL     1      -7.870   6.767 -32.811  1.00  0.00     0.242 C 
HETATM   18  C   UNL     1      -7.249   5.461 -32.280  1.00  0.00     0.057 C 
BRANCH  18  19
HETATM   19  C   UNL     1      -6.912   5.495 -30.808  1.00  0.00    -0.052 A 
HETATM   20  C   UNL     1      -5.585   5.484 -30.347  1.00  0.00     0.007 A 
HETATM   21  C   UNL     1      -5.309   5.495 -28.979  1.00  0.00     0.001 A 
HETATM   22  C   UNL     1      -6.351   5.524 -28.056  1.00  0.00     0.000 A 
HETATM   23  C   UNL     1      -7.670   5.546 -28.498  1.00  0.00     0.001 A 
HETATM   24  C   UNL     1      -7.951   5.533 -29.866  1.00  0.00     0.007 A 
ENDBRANCH  18  19
ENDBRANCH   4  12
BRANCH   1  25
HETATM   25  N   UNL     1      -5.269   0.974 -30.934  1.00  0.00    -0.375 N 
HETATM   26  C   UNL     1      -5.750   0.730 -29.575  1.00  0.00     0.150 C 
HETATM   27  C   UNL     1      -3.931   1.577 -31.019  1.00  0.00     0.150 C 
ENDBRANCH   1  25
BRANCH   9  28
HETATM   28  C   UNL     1      -5.859  -2.915 -34.468  1.00  0.00     0.010 A 
HETATM   29  C   UNL     1      -6.465  -4.094 -34.966  1.00  0.00     0.152 A 
HETATM   30  N   UNL     1      -5.643  -5.142 -34.966  1.00  0.00    -0.187 NA
HETATM   31  N   UNL     1      -4.500  -4.652 -34.465  1.00  0.00    -0.289 N 
HETATM   32  H   UNL     1      -3.707  -5.280 -34.366  1.00  0.00     0.188 HD
HETATM   33  C   UNL     1      -4.576  -3.322 -34.156  1.00  0.00     0.123 A 
ENDBRANCH   9  28
TORSDOF 4
ENDMDL
MODEL 10
REMARK VINA RESULT:      -7.9      2.745      8.332
REMARK  4 active torsions:
REMARK  status: ('A' for Active; 'I' for Inactive)
REMARK    1  A    between atoms: N_2  and  C_4 
REMARK    2  A    between atoms: C_7  and  C_21 
REMARK    3  A    between atoms: C_12  and  C_15 
REMARK    4  A    between atoms: C_27  and  C_28 
ROOT
HETATM    1  C   UNL     1      -5.459   4.034 -32.193  1.00  0.00     0.116 A 
HETATM    2  N   UNL     1      -6.328   3.201 -32.789  1.00  0.00    -0.330 N 
HETATM    3  H   UNL     1      -6.051   2.801 -33.678  1.00  0.00     0.168 HD
HETATM    4  C   UNL     1      -7.487   2.870 -32.206  1.00  0.00     0.112 A 
HETATM    5  N   UNL     1      -7.840   3.296 -30.979  1.00  0.00    -0.234 NA
HETATM    6  C   UNL     1      -6.996   4.114 -30.338  1.00  0.00     0.072 A 
HETATM    7  C   UNL     1      -7.343   4.564 -29.074  1.00  0.00     0.033 A 
HETATM    8  C   UNL     1      -6.532   5.454 -28.360  1.00  0.00     0.014 A 
HETATM    9  C   UNL     1      -5.345   5.932 -28.914  1.00  0.00    -0.022 A 
HETATM   10  C   UNL     1      -4.985   5.471 -30.188  1.00  0.00     0.030 A 
HETATM   11  C   UNL     1      -5.786   4.544 -30.906  1.00  0.00     0.037 A 
ENDROOT
BRANCH   4  12
HETATM   12  C   UNL     1      -8.459   1.956 -32.911  1.00  0.00     0.091 C 
HETATM   13  C   UNL     1      -9.916   2.365 -32.681  1.00  0.00     0.245 C 
HETATM   14  N   UNL     1     -10.700   1.118 -32.956  1.00  0.00    -0.074 N 
HETATM   15  H   UNL     1     -11.562   1.086 -32.386  1.00  0.00     0.277 HD
HETATM   16  H   UNL     1     -11.032   1.078 -33.935  1.00  0.00     0.277 HD
HETATM   17  C   UNL     1      -9.823  -0.066 -32.656  1.00  0.00     0.242 C 
HETATM   18  C   UNL     1      -8.432   0.522 -32.351  1.00  0.00     0.057 C 
BRANCH  18  19
HETATM   19  C   UNL     1      -7.286  -0.287 -32.912  1.00  0.00    -0.052 A 
HETATM   20  C   UNL     1      -6.095  -0.491 -32.195  1.00  0.00     0.007 A 
HETATM   21  C   UNL     1      -5.049  -1.227 -32.752  1.00  0.00     0.001 A 
HETATM   22  C   UNL     1      -5.179  -1.774 -34.026  1.00  0.00     0.000 A 
HETATM   23  C   UNL     1      -6.356  -1.589 -34.744  1.00  0.00     0.001 A 
HETATM   24  C   UNL     1      -7.405  -0.852 -34.192  1.00  0.00     0.007 A 
ENDBRANCH  18  19
ENDBRANCH   4  12
BRANCH   1  25
HETATM   25  N   UNL     1      -4.287   4.371 -32.855  1.00  0.00    -0.375 N 
HETATM   26  C   UNL     1      -4.351   5.001 -34.173  1.00  0.00     0.150 C 
HETATM   27  C   UNL     1      -3.170   3.433 -32.671  1.00  0.00     0.150 C 
ENDBRANCH   1  25
BRANCH   9  28
HETATM   28  C   UNL     1      -4.495   6.871 -28.201  1.00  0.00     0.010 A 
HETATM   29  C   UNL     1      -3.618   7.876 -28.678  1.00  0.00     0.152 A 
HETATM   30  N   UNL     1      -3.015   8.549 -27.698  1.00  0.00    -0.187 NA
HETATM   31  N   UNL     1      -3.493   7.983 -26.580  1.00  0.00    -0.289 N 
HETATM   32  H   UNL     1      -3.170   8.335 -25.683  1.00  0.00     0.188 HD
HETATM   33  C   UNL     1      -4.387   6.977 -26.828  1.00  0.00     0.123 A 
ENDBRANCH   9  28
TORSDOF 4
ENDMDL
