MODEL 1
REMARK VINA RESULT:      -9.2      0.000      0.000
REMARK  10 active torsions:
REMARK  status: ('A' for Active; 'I' for Inactive)
REMARK    1  A    between atoms: C_4  and  C_5 
REMARK    2  A    between atoms: C_5  and  C_6 
REMARK    3  A    between atoms: C_6  and  N_7 
REMARK    4  A    between atoms: C_6  and  C_15 
REMARK       I    between atoms: N_7  and  C_8 
REMARK    5  A    between atoms: C_8  and  C_9 
REMARK       I    between atoms: C_15  and  N_16 
REMARK    6  A    between atoms: N_16  and  C_17 
REMARK    7  A    between atoms: C_17  and  C_18 
REMARK    8  A    between atoms: C_18  and  C_19 
REMARK    9  A    between atoms: C_21  and  O_22 
REMARK   10  A    between atoms: C_23  and  O_24 
ROOT
HETATM    1  C   UNL     1      -6.582  -0.007 -33.073  1.00  0.00     0.181 C 
ENDROOT
BRANCH   1   2
HETATM    2  C   UNL     1      -6.638  -0.720 -34.440  1.00  0.00     0.073 C 
BRANCH   2   3
HETATM    3  C   UNL     1      -6.041  -2.110 -34.501  1.00  0.00    -0.056 A 
HETATM    4  C   UNL     1      -4.706  -2.358 -34.148  1.00  0.00     0.007 A 
HETATM    5  C   UNL     1      -4.204  -3.661 -34.122  1.00  0.00     0.001 A 
HETATM    6  C   UNL     1      -5.034  -4.737 -34.427  1.00  0.00     0.000 A 
HETATM    7  C   UNL     1      -6.366  -4.509 -34.762  1.00  0.00     0.001 A 
HETATM    8  C   UNL     1      -6.866  -3.206 -34.799  1.00  0.00     0.007 A 
ENDBRANCH   2   3
ENDBRANCH   1   2
BRANCH   1   9
HETATM    9  N   UNL     1      -5.603   1.082 -32.990  1.00  0.00    -0.342 N 
HETATM   10  C   UNL     1      -4.775   1.348 -31.926  1.00  0.00     0.276 C 
HETATM   11  O   UNL     1      -4.697   0.591 -30.960  1.00  0.00    -0.265 OA
HETATM   12  H   UNL     1      -5.625   1.789 -33.717  1.00  0.00     0.163 HD
BRANCH  10  13
HETATM   13  C   UNL     1      -3.974   2.543 -32.083  1.00  0.00     0.142 A 
HETATM   14  O   UNL     1      -2.865   2.718 -31.293  1.00  0.00    -0.317 OA
HETATM   15  C   UNL     1      -2.317   3.914 -31.631  1.00  0.00     0.143 A 
HETATM   16  C   UNL     1      -3.053   4.520 -32.621  1.00  0.00     0.027 A 
HETATM   17  C   UNL     1      -4.121   3.637 -32.916  1.00  0.00     0.045 A 
ENDBRANCH  10  13
ENDBRANCH   1   9
BRANCH   1  18
HETATM   18  C   UNL     1      -8.027   0.348 -32.653  1.00  0.00     0.240 C 
HETATM   19  N   UNL     1      -8.980   0.359 -33.646  1.00  0.00    -0.359 N 
HETATM   20  H   UNL     1      -8.697  -0.020 -34.545  1.00  0.00     0.162 HD
HETATM   21  O   UNL     1      -8.323   0.468 -31.463  1.00  0.00    -0.271 OA
BRANCH  19  22
HETATM   22  C   UNL     1     -10.396   0.341 -33.315  1.00  0.00     0.127 C 
BRANCH  22  23
HETATM   23  C   UNL     1     -11.209   1.428 -34.024  1.00  0.00     0.058 C 
BRANCH  23  24
HETATM   24  C   UNL     1     -12.705   1.495 -33.788  1.00  0.00    -0.054 A 
HETATM   25  C   UNL     1     -13.646   0.726 -34.486  1.00  0.00     0.046 A 
HETATM   26  C   UNL     1     -15.007   0.899 -34.240  1.00  0.00     0.099 A 
HETATM   27  C   UNL     1     -15.444   1.795 -33.272  1.00  0.00     0.098 A 
HETATM   28  C   UNL     1     -14.536   2.548 -32.550  1.00  0.00     0.040 A 
HETATM   29  C   UNL     1     -13.171   2.404 -32.814  1.00  0.00     0.010 A 
BRANCH  26  30
HETATM   30  O   UNL     1     -15.953   0.211 -34.950  1.00  0.00    -0.358 OA
HETATM   31  H   UNL     1     -16.223   0.775 -35.698  1.00  0.00     0.218 HD
ENDBRANCH  26  30
BRANCH  27  32
HETATM   32  O   UNL     1     -16.779   1.944 -33.033  1.00  0.00    -0.358 OA
HETATM   33  H   UNL     1     -17.011   2.784 -33.480  1.00  0.00     0.218 HD
ENDBRANCH  27  32
ENDBRANCH  23  24
ENDBRANCH  22  23
ENDBRANCH  19  22
ENDBRANCH   1  18
TORSDOF 10
ENDMDL
MODEL 2
REMARK VINA RESULT:      -9.1      1.464      2.123
REMARK  10 active torsions:
REMARK  status: ('A' for Active; 'I' for Inactive)
REMARK    1  A    between atoms: C_4  and  C_5 
REMARK    2  A    between atoms: C_5  and  C_6 
REMARK    3  A    between atoms: C_6  and  N_7 
REMARK    4  A    between atoms: C_6  and  C_15 
REMARK       I    between atoms: N_7  and  C_8 
REMARK    5  A    between atoms: C_8  and  C_9 
REMARK       I    between atoms: C_15  and  N_16 
REMARK    6  A    between atoms: N_16  and  C_17 
REMARK    7  A    between atoms: C_17  and  C_18 
REMARK    8  A    between atoms: C_18  and  C_19 
REMARK    9  A    between atoms: C_21  and  O_22 
REMARK   10  A    between atoms: C_23  and  O_24 
ROOT
HETATM    1  C   UNL     1      -5.325   0.208 -32.696  1.00  0.00     0.181 C 
ENDROOT
BRANCH   1   2
HETATM    2  C   UNL     1      -5.690  -0.362 -34.083  1.00  0.00     0.073 C 
BRANCH   2   3
HETATM    3  C   UNL     1      -5.657  -1.869 -34.222  1.00  0.00    -0.056 A 
HETATM    4  C   UNL     1      -6.781  -2.598 -34.641  1.00  0.00     0.007 A 
HETATM    5  C   UNL     1      -6.700  -3.976 -34.854  1.00  0.00     0.001 A 
HETATM    6  C   UNL     1      -5.491  -4.642 -34.670  1.00  0.00     0.000 A 
HETATM    7  C   UNL     1      -4.362  -3.930 -34.271  1.00  0.00     0.001 A 
HETATM    8  C   UNL     1      -4.445  -2.554 -34.049  1.00  0.00     0.007 A 
ENDBRANCH   2   3
ENDBRANCH   1   2
BRANCH   1   9
HETATM    9  N   UNL     1      -4.567   1.464 -32.730  1.00  0.00    -0.342 N 
HETATM   10  C   UNL     1      -3.481   1.777 -31.949  1.00  0.00     0.276 C 
HETATM   11  O   UNL     1      -2.955   0.948 -31.208  1.00  0.00    -0.265 OA
HETATM   12  H   UNL     1      -4.951   2.229 -33.275  1.00  0.00     0.163 HD
BRANCH  10  13
HETATM   13  C   UNL     1      -2.988   3.125 -32.132  1.00  0.00     0.142 A 
HETATM   14  O   UNL     1      -2.074   3.633 -31.243  1.00  0.00    -0.317 OA
HETATM   15  C   UNL     1      -1.799   4.904 -31.634  1.00  0.00     0.143 A 
HETATM   16  C   UNL     1      -2.522   5.232 -32.756  1.00  0.00     0.027 A 
HETATM   17  C   UNL     1      -3.288   4.085 -33.080  1.00  0.00     0.045 A 
ENDBRANCH  10  13
ENDBRANCH   1   9
BRANCH   1  18
HETATM   18  C   UNL     1      -6.601   0.210 -31.823  1.00  0.00     0.240 C 
HETATM   19  N   UNL     1      -7.759   0.664 -32.412  1.00  0.00    -0.359 N 
HETATM   20  H   UNL     1      -7.725   0.813 -33.417  1.00  0.00     0.162 HD
HETATM   21  O   UNL     1      -6.598  -0.309 -30.706  1.00  0.00    -0.271 OA
BRANCH  19  22
HETATM   22  C   UNL     1      -9.054   0.393 -31.809  1.00  0.00     0.127 C 
BRANCH  22  23
HETATM   23  C   UNL     1     -10.116  -0.075 -32.810  1.00  0.00     0.058 C 
BRANCH  23  24
HETATM   24  C   UNL     1     -11.001   0.959 -33.475  1.00  0.00    -0.054 A 
HETATM   25  C   UNL     1     -12.354   0.755 -33.781  1.00  0.00     0.046 A 
HETATM   26  C   UNL     1     -13.075   1.744 -34.448  1.00  0.00     0.099 A 
HETATM   27  C   UNL     1     -12.479   2.957 -34.772  1.00  0.00     0.098 A 
HETATM   28  C   UNL     1     -11.153   3.195 -34.459  1.00  0.00     0.040 A 
HETATM   29  C   UNL     1     -10.415   2.195 -33.821  1.00  0.00     0.010 A 
BRANCH  26  30
HETATM   30  O   UNL     1     -14.378   1.550 -34.818  1.00  0.00    -0.358 OA
HETATM   31  H   UNL     1     -14.904   1.473 -34.000  1.00  0.00     0.218 HD
ENDBRANCH  26  30
BRANCH  27  32
HETATM   32  O   UNL     1     -13.201   3.921 -35.414  1.00  0.00    -0.358 OA
HETATM   33  H   UNL     1     -13.562   4.473 -34.690  1.00  0.00     0.218 HD
ENDBRANCH  27  32
ENDBRANCH  23  24
ENDBRANCH  22  23
ENDBRANCH  19  22
ENDBRANCH   1  18
TORSDOF 10
ENDMDL
MODEL 3
REMARK VINA RESULT:      -9.0      1.537      2.022
REMARK  10 active torsions:
REMARK  status: ('A' for Active; 'I' for Inactive)
REMARK    1  A    between atoms: C_4  and  C_5 
REMARK    2  A    between atoms: C_5  and  C_6 
REMARK    3  A    between atoms: C_6  and  N_7 
REMARK    4  A    between atoms: C_6  and  C_15 
REMARK       I    between atoms: N_7  and  C_8 
REMARK    5  A    between atoms: C_8  and  C_9 
REMARK       I    between atoms: C_15  and  N_16 
REMARK    6  A    between atoms: N_16  and  C_17 
REMARK    7  A    between atoms: C_17  and  C_18 
REMARK    8  A    between atoms: C_18  and  C_19 
REMARK    9  A    between atoms: C_21  and  O_22 
REMARK   10  A    between atoms: C_23  and  O_24 
ROOT
HETATM    1  C   UNL     1      -5.328   0.664 -32.478  1.00  0.00     0.181 C 
ENDROOT
BRANCH   1   2
HETATM    2  C   UNL     1      -5.223  -0.322 -33.661  1.00  0.00     0.073 C 
BRANCH   2   3
HETATM    3  C   UNL     1      -4.488  -1.619 -33.395  1.00  0.00    -0.056 A 
HETATM    4  C   UNL     1      -3.743  -1.820 -32.223  1.00  0.00     0.007 A 
HETATM    5  C   UNL     1      -3.152  -3.057 -31.956  1.00  0.00     0.001 A 
HETATM    6  C   UNL     1      -3.314  -4.117 -32.845  1.00  0.00     0.000 A 
HETATM    7  C   UNL     1      -4.066  -3.938 -34.003  1.00  0.00     0.001 A 
HETATM    8  C   UNL     1      -4.649  -2.699 -34.277  1.00  0.00     0.007 A 
ENDBRANCH   2   3
ENDBRANCH   1   2
BRANCH   1   9
HETATM    9  N   UNL     1      -4.531   1.885 -32.627  1.00  0.00    -0.342 N 
HETATM   10  C   UNL     1      -3.433   2.233 -31.878  1.00  0.00     0.276 C 
HETATM   11  O   UNL     1      -2.933   1.459 -31.063  1.00  0.00    -0.265 OA
HETATM   12  H   UNL     1      -4.891   2.609 -33.241  1.00  0.00     0.163 HD
BRANCH  10  13
HETATM   13  C   UNL     1      -2.897   3.542 -32.184  1.00  0.00     0.142 A 
HETATM   14  O   UNL     1      -1.726   3.944 -31.590  1.00  0.00    -0.317 OA
HETATM   15  C   UNL     1      -1.465   5.202 -32.033  1.00  0.00     0.143 A 
HETATM   16  C   UNL     1      -2.446   5.623 -32.898  1.00  0.00     0.027 A 
HETATM   17  C   UNL     1      -3.370   4.554 -32.999  1.00  0.00     0.045 A 
ENDBRANCH  10  13
ENDBRANCH   1   9
BRANCH   1  18
HETATM   18  C   UNL     1      -6.825   0.868 -32.151  1.00  0.00     0.240 C 
HETATM   19  N   UNL     1      -7.455   1.937 -32.748  1.00  0.00    -0.359 N 
HETATM   20  H   UNL     1      -6.934   2.416 -33.477  1.00  0.00     0.162 HD
HETATM   21  O   UNL     1      -7.447   0.023 -31.505  1.00  0.00    -0.271 OA
BRANCH  19  22
HETATM   22  C   UNL     1      -8.906   2.019 -32.782  1.00  0.00     0.127 C 
BRANCH  22  23
HETATM   23  C   UNL     1      -9.525   1.462 -34.068  1.00  0.00     0.058 C 
BRANCH  23  24
HETATM   24  C   UNL     1     -11.032   1.317 -34.152  1.00  0.00    -0.054 A 
HETATM   25  C   UNL     1     -11.754   0.267 -33.567  1.00  0.00     0.046 A 
HETATM   26  C   UNL     1     -13.133   0.185 -33.748  1.00  0.00     0.099 A 
HETATM   27  C   UNL     1     -13.813   1.163 -34.464  1.00  0.00     0.098 A 
HETATM   28  C   UNL     1     -13.129   2.224 -35.030  1.00  0.00     0.040 A 
HETATM   29  C   UNL     1     -11.741   2.294 -34.881  1.00  0.00     0.010 A 
BRANCH  26  30
HETATM   30  O   UNL     1     -13.858  -0.861 -33.245  1.00  0.00    -0.358 OA
HETATM   31  H   UNL     1     -14.780  -0.558 -33.153  1.00  0.00     0.218 HD
ENDBRANCH  26  30
BRANCH  27  32
HETATM   32  O   UNL     1     -15.166   1.077 -34.621  1.00  0.00    -0.358 OA
HETATM   33  H   UNL     1     -15.358   0.121 -34.537  1.00  0.00     0.218 HD
ENDBRANCH  27  32
ENDBRANCH  23  24
ENDBRANCH  22  23
ENDBRANCH  19  22
ENDBRANCH   1  18
TORSDOF 10
ENDMDL
MODEL 4
REMARK VINA RESULT:      -8.8      2.134      8.299
REMARK  10 active torsions:
REMARK  status: ('A' for Active; 'I' for Inactive)
REMARK    1  A    between atoms: C_4  and  C_5 
REMARK    2  A    between atoms: C_5  and  C_6 
REMARK    3  A    between atoms: C_6  and  N_7 
REMARK    4  A    between atoms: C_6  and  C_15 
REMARK       I    between atoms: N_7  and  C_8 
REMARK    5  A    between atoms: C_8  and  C_9 
REMARK       I    between atoms: C_15  and  N_16 
REMARK    6  A    between atoms: N_16  and  C_17 
REMARK    7  A    between atoms: C_17  and  C_18 
REMARK    8  A    between atoms: C_18  and  C_19 
REMARK    9  A    between atoms: C_21  and  O_22 
REMARK   10  A    between atoms: C_23  and  O_24 
ROOT
HETATM    1  C   UNL     1      -6.987   0.975 -33.329  1.00  0.00     0.181 C 
ENDROOT
BRANCH   1   2
HETATM    2  C   UNL     1      -6.668  -0.375 -32.654  1.00  0.00     0.073 C 
BRANCH   2   3
HETATM    3  C   UNL     1      -6.199  -1.491 -33.564  1.00  0.00    -0.056 A 
HETATM    4  C   UNL     1      -4.838  -1.779 -33.742  1.00  0.00     0.007 A 
HETATM    5  C   UNL     1      -4.433  -2.871 -34.512  1.00  0.00     0.001 A 
HETATM    6  C   UNL     1      -5.383  -3.705 -35.098  1.00  0.00     0.000 A 
HETATM    7  C   UNL     1      -6.739  -3.443 -34.916  1.00  0.00     0.001 A 
HETATM    8  C   UNL     1      -7.144  -2.345 -34.155  1.00  0.00     0.007 A 
ENDBRANCH   2   3
ENDBRANCH   1   2
BRANCH   1   9
HETATM    9  N   UNL     1      -8.386   1.138 -33.740  1.00  0.00    -0.342 N 
HETATM   10  C   UNL     1      -9.485   1.069 -32.918  1.00  0.00     0.276 C 
HETATM   11  O   UNL     1      -9.376   0.980 -31.696  1.00  0.00    -0.265 OA
HETATM   12  H   UNL     1      -8.583   1.168 -34.735  1.00  0.00     0.163 HD
BRANCH  10  13
HETATM   13  C   UNL     1     -10.750   1.178 -33.611  1.00  0.00     0.142 A 
HETATM   14  O   UNL     1     -11.749   0.278 -33.332  1.00  0.00    -0.317 OA
HETATM   15  C   UNL     1     -12.805   0.594 -34.126  1.00  0.00     0.143 A 
HETATM   16  C   UNL     1     -12.509   1.678 -34.917  1.00  0.00     0.027 A 
HETATM   17  C   UNL     1     -11.185   2.058 -34.585  1.00  0.00     0.045 A 
ENDBRANCH  10  13
ENDBRANCH   1   9
BRANCH   1  18
HETATM   18  C   UNL     1      -6.402   2.105 -32.451  1.00  0.00     0.240 C 
HETATM   19  N   UNL     1      -5.464   1.743 -31.511  1.00  0.00    -0.359 N 
HETATM   20  H   UNL     1      -5.112   0.792 -31.570  1.00  0.00     0.162 HD
HETATM   21  O   UNL     1      -6.662   3.285 -32.693  1.00  0.00    -0.271 OA
BRANCH  19  22
HETATM   22  C   UNL     1      -4.618   2.744 -30.884  1.00  0.00     0.127 C 
BRANCH  22  23
HETATM   23  C   UNL     1      -3.225   2.858 -31.513  1.00  0.00     0.058 C 
BRANCH  23  24
HETATM   24  C   UNL     1      -2.880   4.100 -32.311  1.00  0.00    -0.054 A 
HETATM   25  C   UNL     1      -3.469   4.433 -33.539  1.00  0.00     0.046 A 
HETATM   26  C   UNL     1      -3.045   5.567 -34.229  1.00  0.00     0.099 A 
HETATM   27  C   UNL     1      -2.075   6.403 -33.690  1.00  0.00     0.098 A 
HETATM   28  C   UNL     1      -1.496   6.112 -32.468  1.00  0.00     0.040 A 
HETATM   29  C   UNL     1      -1.893   4.959 -31.786  1.00  0.00     0.010 A 
BRANCH  26  30
HETATM   30  O   UNL     1      -3.553   5.884 -35.460  1.00  0.00    -0.358 OA
HETATM   31  H   UNL     1      -2.875   6.406 -35.928  1.00  0.00     0.218 HD
ENDBRANCH  26  30
BRANCH  27  32
HETATM   32  O   UNL     1      -1.679   7.517 -34.371  1.00  0.00    -0.358 OA
HETATM   33  H   UNL     1      -1.669   8.223 -33.694  1.00  0.00     0.218 HD
ENDBRANCH  27  32
ENDBRANCH  23  24
ENDBRANCH  22  23
ENDBRANCH  19  22
ENDBRANCH   1  18
TORSDOF 10
ENDMDL
MODEL 5
REMARK VINA RESULT:      -8.5      2.301      8.833
REMARK  10 active torsions:
REMARK  status: ('A' for Active; 'I' for Inactive)
REMARK    1  A    between atoms: C_4  and  C_5 
REMARK    2  A    between atoms: C_5  and  C_6 
REMARK    3  A    between atoms: C_6  and  N_7 
REMARK    4  A    between atoms: C_6  and  C_15 
REMARK       I    between atoms: N_7  and  C_8 
REMARK    5  A    between atoms: C_8  and  C_9 
REMARK       I    between atoms: C_15  and  N_16 
REMARK    6  A    between atoms: N_16  and  C_17 
REMARK    7  A    between atoms: C_17  and  C_18 
REMARK    8  A    between atoms: C_18  and  C_19 
REMARK    9  A    between atoms: C_21  and  O_22 
REMARK   10  A    between atoms: C_23  and  O_24 
ROOT
HETATM    1  C   UNL     1      -6.853   1.310 -34.052  1.00  0.00     0.181 C 
ENDROOT
BRANCH   1   2
HETATM    2  C   UNL     1      -6.491   0.145 -33.107  1.00  0.00     0.073 C 
BRANCH   2   3
HETATM    3  C   UNL     1      -6.086  -1.157 -33.765  1.00  0.00    -0.056 A 
HETATM    4  C   UNL     1      -4.749  -1.579 -33.810  1.00  0.00     0.007 A 
HETATM    5  C   UNL     1      -4.411  -2.827 -34.338  1.00  0.00     0.001 A 
HETATM    6  C   UNL     1      -5.406  -3.679 -34.811  1.00  0.00     0.000 A 
HETATM    7  C   UNL     1      -6.740  -3.282 -34.758  1.00  0.00     0.001 A 
HETATM    8  C   UNL     1      -7.078  -2.031 -34.239  1.00  0.00     0.007 A 
ENDBRANCH   2   3
ENDBRANCH   1   2
BRANCH   1   9
HETATM    9  N   UNL     1      -8.288   1.462 -34.315  1.00  0.00    -0.342 N 
HETATM   10  C   UNL     1      -9.289   1.456 -33.374  1.00  0.00     0.276 C 
HETATM   11  O   UNL     1      -9.047   1.443 -32.169  1.00  0.00    -0.265 OA
HETATM   12  H   UNL     1      -8.593   1.432 -35.282  1.00  0.00     0.163 HD
BRANCH  10  13
HETATM   13  C   UNL     1     -10.624   1.534 -33.929  1.00  0.00     0.142 A 
HETATM   14  O   UNL     1     -10.911   2.508 -34.854  1.00  0.00    -0.317 OA
HETATM   15  C   UNL     1     -12.220   2.367 -35.189  1.00  0.00     0.143 A 
HETATM   16  C   UNL     1     -12.787   1.325 -34.497  1.00  0.00     0.027 A 
HETATM   17  C   UNL     1     -11.759   0.784 -33.685  1.00  0.00     0.045 A 
ENDBRANCH  10  13
ENDBRANCH   1   9
BRANCH   1  18
HETATM   18  C   UNL     1      -6.116   2.577 -33.560  1.00  0.00     0.240 C 
HETATM   19  N   UNL     1      -5.699   3.470 -34.522  1.00  0.00    -0.359 N 
HETATM   20  H   UNL     1      -6.044   3.309 -35.464  1.00  0.00     0.162 HD
HETATM   21  O   UNL     1      -6.045   2.834 -32.357  1.00  0.00    -0.271 OA
BRANCH  19  22
HETATM   22  C   UNL     1      -5.314   4.824 -34.159  1.00  0.00     0.127 C 
BRANCH  22  23
HETATM   23  C   UNL     1      -3.971   5.263 -34.751  1.00  0.00     0.058 C 
BRANCH  23  24
HETATM   24  C   UNL     1      -2.809   5.529 -33.814  1.00  0.00    -0.054 A 
HETATM   25  C   UNL     1      -2.456   4.694 -32.745  1.00  0.00     0.046 A 
HETATM   26  C   UNL     1      -1.407   5.051 -31.900  1.00  0.00     0.099 A 
HETATM   27  C   UNL     1      -0.670   6.207 -32.134  1.00  0.00     0.098 A 
HETATM   28  C   UNL     1      -0.981   7.035 -33.197  1.00  0.00     0.040 A 
HETATM   29  C   UNL     1      -2.053   6.700 -34.029  1.00  0.00     0.010 A 
BRANCH  26  30
HETATM   30  O   UNL     1      -1.079   4.292 -30.810  1.00  0.00    -0.358 OA
HETATM   31  H   UNL     1      -1.155   3.357 -31.073  1.00  0.00     0.218 HD
ENDBRANCH  26  30
BRANCH  27  32
HETATM   32  O   UNL     1       0.362   6.537 -31.306  1.00  0.00    -0.358 OA
HETATM   33  H   UNL     1      -0.068   6.995 -30.556  1.00  0.00     0.218 HD
ENDBRANCH  27  32
ENDBRANCH  23  24
ENDBRANCH  22  23
ENDBRANCH  19  22
ENDBRANCH   1  18
TORSDOF 10
ENDMDL
MODEL 6
REMARK VINA RESULT:      -8.5      2.047      2.790
REMARK  10 active torsions:
REMARK  status: ('A' for Active; 'I' for Inactive)
REMARK    1  A    between atoms: C_4  and  C_5 
REMARK    2  A    between atoms: C_5  and  C_6 
REMARK    3  A    between atoms: C_6  and  N_7 
REMARK    4  A    between atoms: C_6  and  C_15 
REMARK       I    between atoms: N_7  and  C_8 
REMARK    5  A    between atoms: C_8  and  C_9 
REMARK       I    between atoms: C_15  and  N_16 
REMARK    6  A    between atoms: N_16  and  C_17 
REMARK    7  A    between atoms: C_17  and  C_18 
REMARK    8  A    between atoms: C_18  and  C_19 
REMARK    9  A    between atoms: C_21  and  O_22 
REMARK   10  A    between atoms: C_23  and  O_24 
ROOT
HETATM    1  C   UNL     1      -6.475   2.547 -33.027  1.00  0.00     0.181 C 
ENDROOT
BRANCH   1   2
HETATM    2  C   UNL     1      -6.607   1.741 -34.336  1.00  0.00     0.073 C 
BRANCH   2   3
HETATM    3  C   UNL     1      -6.217   0.279 -34.271  1.00  0.00    -0.056 A 
HETATM    4  C   UNL     1      -5.172  -0.172 -33.451  1.00  0.00     0.007 A 
HETATM    5  C   UNL     1      -4.892  -1.535 -33.336  1.00  0.00     0.001 A 
HETATM    6  C   UNL     1      -5.665  -2.469 -34.022  1.00  0.00     0.000 A 
HETATM    7  C   UNL     1      -6.717  -2.038 -34.827  1.00  0.00     0.001 A 
HETATM    8  C   UNL     1      -6.991  -0.674 -34.951  1.00  0.00     0.007 A 
ENDBRANCH   2   3
ENDBRANCH   1   2
BRANCH   1   9
HETATM    9  N   UNL     1      -5.239   3.327 -32.909  1.00  0.00    -0.342 N 
HETATM   10  C   UNL     1      -4.867   4.381 -33.708  1.00  0.00     0.276 C 
HETATM   11  O   UNL     1      -5.628   4.857 -34.549  1.00  0.00    -0.265 OA
HETATM   12  H   UNL     1      -4.525   2.982 -32.276  1.00  0.00     0.163 HD
BRANCH  10  13
HETATM   13  C   UNL     1      -3.550   4.906 -33.421  1.00  0.00     0.142 A 
HETATM   14  O   UNL     1      -2.599   4.077 -32.879  1.00  0.00    -0.317 OA
HETATM   15  C   UNL     1      -1.477   4.821 -32.695  1.00  0.00     0.143 A 
HETATM   16  C   UNL     1      -1.684   6.117 -33.104  1.00  0.00     0.027 A 
HETATM   17  C   UNL     1      -3.019   6.174 -33.574  1.00  0.00     0.045 A 
ENDBRANCH  10  13
ENDBRANCH   1   9
BRANCH   1  18
HETATM   18  C   UNL     1      -7.792   3.326 -32.804  1.00  0.00     0.240 C 
HETATM   19  N   UNL     1      -8.531   3.635 -33.924  1.00  0.00    -0.359 N 
HETATM   20  H   UNL     1      -8.240   3.194 -34.791  1.00  0.00     0.162 HD
HETATM   21  O   UNL     1      -8.220   3.523 -31.666  1.00  0.00    -0.271 OA
BRANCH  19  22
HETATM   22  C   UNL     1      -9.919   4.051 -33.805  1.00  0.00     0.127 C 
BRANCH  22  23
HETATM   23  C   UNL     1     -10.835   3.461 -34.882  1.00  0.00     0.058 C 
BRANCH  23  24
HETATM   24  C   UNL     1     -11.717   2.280 -34.528  1.00  0.00    -0.054 A 
HETATM   25  C   UNL     1     -13.066   2.170 -34.890  1.00  0.00     0.046 A 
HETATM   26  C   UNL     1     -13.814   1.073 -34.469  1.00  0.00     0.099 A 
HETATM   27  C   UNL     1     -13.224   0.055 -33.730  1.00  0.00     0.098 A 
HETATM   28  C   UNL     1     -11.887   0.125 -33.380  1.00  0.00     0.040 A 
HETATM   29  C   UNL     1     -11.139   1.239 -33.771  1.00  0.00     0.010 A 
BRANCH  26  30
HETATM   30  O   UNL     1     -15.149   0.968 -34.751  1.00  0.00    -0.358 OA
HETATM   31  H   UNL     1     -15.637   1.267 -33.962  1.00  0.00     0.218 HD
ENDBRANCH  26  30
BRANCH  27  32
HETATM   32  O   UNL     1     -13.965  -1.020 -33.334  1.00  0.00    -0.358 OA
HETATM   33  H   UNL     1     -14.872  -0.665 -33.240  1.00  0.00     0.218 HD
ENDBRANCH  27  32
ENDBRANCH  23  24
ENDBRANCH  22  23
ENDBRANCH  19  22
ENDBRANCH   1  18
TORSDOF 10
ENDMDL
MODEL 7
REMARK VINA RESULT:      -8.3      4.081      7.266
REMARK  10 active torsions:
REMARK  status: ('A' for Active; 'I' for Inactive)
REMARK    1  A    between atoms: C_4  and  C_5 
REMARK    2  A    between atoms: C_5  and  C_6 
REMARK    3  A    between atoms: C_6  and  N_7 
REMARK    4  A    between atoms: C_6  and  C_15 
REMARK       I    between atoms: N_7  and  C_8 
REMARK    5  A    between atoms: C_8  and  C_9 
REMARK       I    between atoms: C_15  and  N_16 
REMARK    6  A    between atoms: N_16  and  C_17 
REMARK    7  A    between atoms: C_17  and  C_18 
REMARK    8  A    between atoms: C_18  and  C_19 
REMARK    9  A    between atoms: C_21  and  O_22 
REMARK   10  A    between atoms: C_23  and  O_24 
ROOT
HETATM    1  C   UNL     1      -5.524   2.434 -31.162  1.00  0.00     0.181 C 
ENDROOT
BRANCH   1   2
HETATM    2  C   UNL     1      -6.769   1.569 -30.872  1.00  0.00     0.073 C 
BRANCH   2   3
HETATM    3  C   UNL     1      -7.700   1.314 -32.039  1.00  0.00    -0.056 A 
HETATM    4  C   UNL     1      -7.330   1.611 -33.359  1.00  0.00     0.007 A 
HETATM    5  C   UNL     1      -8.166   1.280 -34.427  1.00  0.00     0.001 A 
HETATM    6  C   UNL     1      -9.375   0.630 -34.193  1.00  0.00     0.000 A 
HETATM    7  C   UNL     1      -9.749   0.312 -32.889  1.00  0.00     0.001 A 
HETATM    8  C   UNL     1      -8.918   0.652 -31.820  1.00  0.00     0.007 A 
ENDBRANCH   2   3
ENDBRANCH   1   2
BRANCH   1   9
HETATM    9  N   UNL     1      -5.339   3.567 -30.250  1.00  0.00    -0.342 N 
HETATM   10  C   UNL     1      -5.470   4.897 -30.572  1.00  0.00     0.276 C 
HETATM   11  O   UNL     1      -5.890   5.259 -31.670  1.00  0.00    -0.265 OA
HETATM   12  H   UNL     1      -4.946   3.374 -29.334  1.00  0.00     0.163 HD
BRANCH  10  13
HETATM   13  C   UNL     1      -5.139   5.803 -29.493  1.00  0.00     0.142 A 
HETATM   14  O   UNL     1      -6.028   5.972 -28.461  1.00  0.00    -0.317 OA
HETATM   15  C   UNL     1      -5.484   6.878 -27.608  1.00  0.00     0.143 A 
HETATM   16  C   UNL     1      -4.261   7.303 -28.071  1.00  0.00     0.027 A 
HETATM   17  C   UNL     1      -4.036   6.609 -29.285  1.00  0.00     0.045 A 
ENDBRANCH  10  13
ENDBRANCH   1   9
BRANCH   1  18
HETATM   18  C   UNL     1      -4.309   1.492 -31.326  1.00  0.00     0.240 C 
HETATM   19  N   UNL     1      -4.545   0.141 -31.200  1.00  0.00    -0.359 N 
HETATM   20  H   UNL     1      -5.519  -0.144 -31.167  1.00  0.00     0.162 HD
HETATM   21  O   UNL     1      -3.220   1.932 -31.697  1.00  0.00    -0.271 OA
BRANCH  19  22
HETATM   22  C   UNL     1      -3.567  -0.829 -31.665  1.00  0.00     0.127 C 
BRANCH  22  23
HETATM   23  C   UNL     1      -3.600  -1.061 -33.179  1.00  0.00     0.058 C 
BRANCH  23  24
HETATM   24  C   UNL     1      -4.470  -2.172 -33.732  1.00  0.00    -0.054 A 
HETATM   25  C   UNL     1      -4.074  -3.514 -33.811  1.00  0.00     0.046 A 
HETATM   26  C   UNL     1      -4.921  -4.457 -34.389  1.00  0.00     0.099 A 
HETATM   27  C   UNL     1      -6.181  -4.092 -34.848  1.00  0.00     0.098 A 
HETATM   28  C   UNL     1      -6.607  -2.778 -34.759  1.00  0.00     0.040 A 
HETATM   29  C   UNL     1      -5.750  -1.821 -34.210  1.00  0.00     0.010 A 
BRANCH  26  30
HETATM   30  O   UNL     1      -4.538  -5.763 -34.540  1.00  0.00    -0.358 OA
HETATM   31  H   UNL     1      -5.275  -6.319 -34.227  1.00  0.00     0.218 HD
ENDBRANCH  26  30
BRANCH  27  32
HETATM   32  O   UNL     1      -7.005  -5.029 -35.400  1.00  0.00    -0.358 OA
HETATM   33  H   UNL     1      -7.388  -4.581 -36.181  1.00  0.00     0.218 HD
ENDBRANCH  27  32
ENDBRANCH  23  24
ENDBRANCH  22  23
ENDBRANCH  19  22
ENDBRANCH   1  18
TORSDOF 10
ENDMDL
MODEL 8
REMARK VINA RESULT:      -8.3      1.608      5.142
REMARK  10 active torsions:
REMARK  status: ('A' for Active; 'I' for Inactive)
REMARK    1  A    between atoms: C_4  and  C_5 
REMARK    2  A    between atoms: C_5  and  C_6 
REMARK    3  A    between atoms: C_6  and  N_7 
REMARK    4  A    between atoms: C_6  and  C_15 
REMARK       I    between atoms: N_7  and  C_8 
REMARK    5  A    between atoms: C_8  and  C_9 
REMARK       I    between atoms: C_15  and  N_16 
REMARK    6  A    between atoms: N_16  and  C_17 
REMARK    7  A    between atoms: C_17  and  C_18 
REMARK    8  A    between atoms: C_18  and  C_19 
REMARK    9  A    between atoms: C_21  and  O_22 
REMARK   10  A    between atoms: C_23  and  O_24 
ROOT
HETATM    1  C   UNL     1      -6.307   0.914 -33.284  1.00  0.00     0.181 C 
ENDROOT
BRANCH   1   2
HETATM    2  C   UNL     1      -5.828   1.240 -31.854  1.00  0.00     0.073 C 
BRANCH   2   3
HETATM    3  C   UNL     1      -4.886   2.417 -31.711  1.00  0.00    -0.056 A 
HETATM    4  C   UNL     1      -3.614   2.423 -32.301  1.00  0.00     0.007 A 
HETATM    5  C   UNL     1      -2.800   3.557 -32.234  1.00  0.00     0.001 A 
HETATM    6  C   UNL     1      -3.255   4.707 -31.595  1.00  0.00     0.000 A 
HETATM    7  C   UNL     1      -4.523   4.724 -31.019  1.00  0.00     0.001 A 
HETATM    8  C   UNL     1      -5.332   3.587 -31.076  1.00  0.00     0.007 A 
ENDBRANCH   2   3
ENDBRANCH   1   2
BRANCH   1   9
HETATM    9  N   UNL     1      -6.304  -0.513 -33.620  1.00  0.00    -0.342 N 
HETATM   10  C   UNL     1      -5.194  -1.290 -33.850  1.00  0.00     0.276 C 
HETATM   11  O   UNL     1      -4.055  -0.863 -33.666  1.00  0.00    -0.265 OA
HETATM   12  H   UNL     1      -7.195  -0.946 -33.841  1.00  0.00     0.163 HD
BRANCH  10  13
HETATM   13  C   UNL     1      -5.493  -2.647 -34.252  1.00  0.00     0.142 A 
HETATM   14  O   UNL     1      -4.512  -3.605 -34.168  1.00  0.00    -0.317 OA
HETATM   15  C   UNL     1      -5.049  -4.768 -34.620  1.00  0.00     0.143 A 
HETATM   16  C   UNL     1      -6.356  -4.581 -35.001  1.00  0.00     0.027 A 
HETATM   17  C   UNL     1      -6.646  -3.215 -34.762  1.00  0.00     0.045 A 
ENDBRANCH  10  13
ENDBRANCH   1   9
BRANCH   1  18
HETATM   18  C   UNL     1      -7.636   1.665 -33.531  1.00  0.00     0.240 C 
HETATM   19  N   UNL     1      -8.798   1.000 -33.212  1.00  0.00    -0.359 N 
HETATM   20  H   UNL     1      -8.692   0.133 -32.693  1.00  0.00     0.162 HD
HETATM   21  O   UNL     1      -7.633   2.853 -33.859  1.00  0.00    -0.271 OA
BRANCH  19  22
HETATM   22  C   UNL     1     -10.053   1.721 -33.083  1.00  0.00     0.127 C 
BRANCH  22  23
HETATM   23  C   UNL     1     -11.052   1.427 -34.207  1.00  0.00     0.058 C 
BRANCH  23  24
HETATM   24  C   UNL     1     -12.536   1.495 -33.905  1.00  0.00    -0.054 A 
HETATM   25  C   UNL     1     -13.505   0.709 -34.545  1.00  0.00     0.046 A 
HETATM   26  C   UNL     1     -14.854   0.882 -34.242  1.00  0.00     0.099 A 
HETATM   27  C   UNL     1     -15.251   1.796 -33.273  1.00  0.00     0.098 A 
HETATM   28  C   UNL     1     -14.314   2.566 -32.608  1.00  0.00     0.040 A 
HETATM   29  C   UNL     1     -12.962   2.421 -32.930  1.00  0.00     0.010 A 
BRANCH  26  30
HETATM   30  O   UNL     1     -15.828   0.177 -34.895  1.00  0.00    -0.358 OA
HETATM   31  H   UNL     1     -15.951  -0.662 -34.415  1.00  0.00     0.218 HD
ENDBRANCH  26  30
BRANCH  27  32
HETATM   32  O   UNL     1     -16.574   1.946 -32.978  1.00  0.00    -0.358 OA
HETATM   33  H   UNL     1     -17.028   1.324 -33.582  1.00  0.00     0.218 HD
ENDBRANCH  27  32
ENDBRANCH  23  24
ENDBRANCH  22  23
ENDBRANCH  19  22
ENDBRANCH   1  18
TORSDOF 10
ENDMDL
MODEL 9
REMARK VINA RESULT:      -8.2      3.466      5.483
REMARK  10 active torsions:
REMARK  status: ('A' for Active; 'I' for Inactive)
REMARK    1  A    between atoms: C_4  and  C_5 
REMARK    2  A    between atoms: C_5  and  C_6 
REMARK    3  A    between atoms: C_6  and  N_7 
REMARK    4  A    between atoms: C_6  and  C_15 
REMARK       I    between atoms: N_7  and  C_8 
REMARK    5  A    between atoms: C_8  and  C_9 
REMARK       I    between atoms: C_15  and  N_16 
REMARK    6  A    between atoms: N_16  and  C_17 
REMARK    7  A    between atoms: C_17  and  C_18 
REMARK    8  A    between atoms: C_18  and  C_19 
REMARK    9  A    between atoms: C_21  and  O_22 
REMARK   10  A    between atoms: C_23  and  O_24 
ROOT
HETATM    1  C   UNL     1      -6.238  -0.153 -32.809  1.00  0.00     0.181 C 
ENDROOT
BRANCH   1   2
HETATM    2  C   UNL     1      -6.067  -0.753 -34.221  1.00  0.00     0.073 C 
BRANCH   2   3
HETATM    3  C   UNL     1      -5.801  -2.242 -34.294  1.00  0.00    -0.056 A 
HETATM    4  C   UNL     1      -6.778  -3.147 -34.734  1.00  0.00     0.007 A 
HETATM    5  C   UNL     1      -6.480  -4.503 -34.883  1.00  0.00     0.001 A 
HETATM    6  C   UNL     1      -5.197  -4.972 -34.613  1.00  0.00     0.000 A 
HETATM    7  C   UNL     1      -4.211  -4.083 -34.192  1.00  0.00     0.001 A 
HETATM    8  C   UNL     1      -4.510  -2.728 -34.034  1.00  0.00     0.007 A 
ENDBRANCH   2   3
ENDBRANCH   1   2
BRANCH   1   9
HETATM    9  N   UNL     1      -5.307   0.933 -32.488  1.00  0.00    -0.342 N 
HETATM   10  C   UNL     1      -5.323   2.199 -33.021  1.00  0.00     0.276 C 
HETATM   11  O   UNL     1      -6.233   2.582 -33.755  1.00  0.00    -0.265 OA
HETATM   12  H   UNL     1      -4.492   0.702 -31.929  1.00  0.00     0.163 HD
BRANCH  10  13
HETATM   13  C   UNL     1      -4.226   3.038 -32.589  1.00  0.00     0.142 A 
HETATM   14  O   UNL     1      -3.875   4.128 -33.346  1.00  0.00    -0.317 OA
HETATM   15  C   UNL     1      -2.818   4.720 -32.730  1.00  0.00     0.143 A 
HETATM   16  C   UNL     1      -2.476   4.031 -31.591  1.00  0.00     0.027 A 
HETATM   17  C   UNL     1      -3.383   2.947 -31.497  1.00  0.00     0.045 A 
ENDBRANCH  10  13
ENDBRANCH   1   9
BRANCH   1  18
HETATM   18  C   UNL     1      -7.738   0.155 -32.595  1.00  0.00     0.240 C 
HETATM   19  N   UNL     1      -8.053   1.080 -31.626  1.00  0.00    -0.359 N 
HETATM   20  H   UNL     1      -7.276   1.606 -31.236  1.00  0.00     0.162 HD
HETATM   21  O   UNL     1      -8.588  -0.303 -33.361  1.00  0.00    -0.271 OA
BRANCH  19  22
HETATM   22  C   UNL     1      -9.374   1.684 -31.579  1.00  0.00     0.127 C 
BRANCH  22  23
HETATM   23  C   UNL     1      -9.434   2.975 -30.754  1.00  0.00     0.058 C 
BRANCH  23  24
HETATM   24  C   UNL     1      -8.176   3.806 -30.602  1.00  0.00    -0.054 A 
HETATM   25  C   UNL     1      -7.273   3.678 -29.537  1.00  0.00     0.046 A 
HETATM   26  C   UNL     1      -6.173   4.527 -29.450  1.00  0.00     0.099 A 
HETATM   27  C   UNL     1      -5.929   5.475 -30.438  1.00  0.00     0.098 A 
HETATM   28  C   UNL     1      -6.790   5.606 -31.513  1.00  0.00     0.040 A 
HETATM   29  C   UNL     1      -7.914   4.779 -31.589  1.00  0.00     0.010 A 
BRANCH  26  30
HETATM   30  O   UNL     1      -5.309   4.471 -28.390  1.00  0.00    -0.358 OA
HETATM   31  H   UNL     1      -4.488   4.052 -28.707  1.00  0.00     0.218 HD
ENDBRANCH  26  30
BRANCH  27  32
HETATM   32  O   UNL     1      -4.840   6.292 -30.346  1.00  0.00    -0.358 OA
HETATM   33  H   UNL     1      -4.719   6.424 -29.385  1.00  0.00     0.218 HD
ENDBRANCH  27  32
ENDBRANCH  23  24
ENDBRANCH  22  23
ENDBRANCH  19  22
ENDBRANCH   1  18
TORSDOF 10
ENDMDL
MODEL 10
REMARK VINA RESULT:      -8.2      2.970      3.653
REMARK  10 active torsions:
REMARK  status: ('A' for Active; 'I' for Inactive)
REMARK    1  A    between atoms: C_4  and  C_5 
REMARK    2  A    between atoms: C_5  and  C_6 
REMARK    3  A    between atoms: C_6  and  N_7 
REMARK    4  A    between atoms: C_6  and  C_15 
REMARK       I    between atoms: N_7  and  C_8 
REMARK    5  A    between atoms: C_8  and  C_9 
REMARK       I    between atoms: C_15  and  N_16 
REMARK    6  A    between atoms: N_16  and  C_17 
REMARK    7  A    between atoms: C_17  and  C_18 
REMARK    8  A    between atoms: C_18  and  C_19 
REMARK    9  A    between atoms: C_21  and  O_22 
REMARK   10  A    between atoms: C_23  and  O_24 
ROOT
HETATM    1  C   UNL     1      -5.319   1.528 -32.082  1.00  0.00     0.181 C 
ENDROOT
BRANCH   1   2
HETATM    2  C   UNL     1      -6.280   0.949 -33.142  1.00  0.00     0.073 C 
BRANCH   2   3
HETATM    3  C   UNL     1      -6.034  -0.484 -33.565  1.00  0.00    -0.056 A 
HETATM    4  C   UNL     1      -7.049  -1.276 -34.122  1.00  0.00     0.007 A 
HETATM    5  C   UNL     1      -6.775  -2.563 -34.591  1.00  0.00     0.001 A 
HETATM    6  C   UNL     1      -5.479  -3.069 -34.530  1.00  0.00     0.000 A 
HETATM    7  C   UNL     1      -4.456  -2.288 -33.996  1.00  0.00     0.001 A 
HETATM    8  C   UNL     1      -4.732  -1.006 -33.517  1.00  0.00     0.007 A 
ENDBRANCH   2   3
ENDBRANCH   1   2
BRANCH   1   9
HETATM    9  N   UNL     1      -4.384   2.536 -32.591  1.00  0.00    -0.342 N 
HETATM   10  C   UNL     1      -3.172   2.871 -32.036  1.00  0.00     0.276 C 
HETATM   11  O   UNL     1      -2.694   2.240 -31.094  1.00  0.00    -0.265 OA
HETATM   12  H   UNL     1      -4.708   3.144 -33.336  1.00  0.00     0.163 HD
BRANCH  10  13
HETATM   13  C   UNL     1      -2.499   3.968 -32.698  1.00  0.00     0.142 A 
HETATM   14  O   UNL     1      -1.355   4.486 -32.146  1.00  0.00    -0.317 OA
HETATM   15  C   UNL     1      -0.947   5.503 -32.949  1.00  0.00     0.143 A 
HETATM   16  C   UNL     1      -1.808   5.656 -34.009  1.00  0.00     0.027 A 
HETATM   17  C   UNL     1      -2.809   4.666 -33.851  1.00  0.00     0.045 A 
ENDBRANCH  10  13
ENDBRANCH   1   9
BRANCH   1  18
HETATM   18  C   UNL     1      -6.153   1.939 -30.847  1.00  0.00     0.240 C 
HETATM   19  N   UNL     1      -6.788   3.159 -30.900  1.00  0.00    -0.359 N 
HETATM   20  H   UNL     1      -6.792   3.625 -31.803  1.00  0.00     0.162 HD
HETATM   21  O   UNL     1      -6.351   1.140 -29.930  1.00  0.00    -0.271 OA
BRANCH  19  22
HETATM   22  C   UNL     1      -7.850   3.484 -29.962  1.00  0.00     0.127 C 
BRANCH  22  23
HETATM   23  C   UNL     1      -9.225   2.953 -30.378  1.00  0.00     0.058 C 
BRANCH  23  24
HETATM   24  C   UNL     1      -9.652   3.080 -31.827  1.00  0.00    -0.054 A 
HETATM   25  C   UNL     1      -9.692   2.009 -32.731  1.00  0.00     0.046 A 
HETATM   26  C   UNL     1     -10.042   2.233 -34.061  1.00  0.00     0.099 A 
HETATM   27  C   UNL     1     -10.401   3.503 -34.495  1.00  0.00     0.098 A 
HETATM   28  C   UNL     1     -10.395   4.573 -33.618  1.00  0.00     0.040 A 
HETATM   29  C   UNL     1     -10.013   4.362 -32.291  1.00  0.00     0.010 A 
BRANCH  26  30
HETATM   30  O   UNL     1     -10.028   1.221 -34.982  1.00  0.00    -0.358 OA
HETATM   31  H   UNL     1     -10.955   0.986 -35.170  1.00  0.00     0.218 HD
ENDBRANCH  26  30
BRANCH  27  32
HETATM   32  O   UNL     1     -10.754   3.705 -35.797  1.00  0.00    -0.358 OA
HETATM   33  H   UNL     1     -10.355   2.950 -36.275  1.00  0.00     0.218 HD
ENDBRANCH  27  32
ENDBRANCH  23  24
ENDBRANCH  22  23
ENDBRANCH  19  22
ENDBRANCH   1  18
TORSDOF 10
ENDMDL
